REMARK  Name = ZINC39448728
REMARK  10 active torsions:
REMARK  status: ('A' for Active; 'I' for Inactive)
REMARK    1  A    between atoms: C_4  and  C_7
REMARK    2  A    between atoms: C_7  and  N_8
REMARK    3  A    between atoms: C_9  and  C_34
REMARK    4  A    between atoms: C_10  and  C_28
REMARK    5  A    between atoms: C_11  and  C_26
REMARK    6  A    between atoms: C_12  and  N_13
REMARK    7  A    between atoms: C_14  and  C_17
REMARK    8  A    between atoms: N_15  and  O_16
REMARK    9  A    between atoms: C_17  and  C_20
REMARK   10  A    between atoms: N_18  and  O_19
REMARK                            x       y       z     vdW  Elec       q    Type
REMARK                         _______ _______ _______ _____ _____    ______ ____
ROOT
ATOM      1  N   UNL     1       3.333  -0.533   1.423  0.00  0.00    -0.323 N 
ATOM      2  C   UNL     1       4.068   0.501   1.956  0.00  0.00    +0.060 A 
ATOM      3  C   UNL     1       4.936  -0.016   2.897  0.00  0.00    +0.027 A 
ATOM      4  C   UNL     1       4.696  -1.468   2.922  0.00  0.00    +0.100 A 
ATOM      5  C   UNL     1       3.693  -1.712   1.993  0.00  0.00    +0.123 A 
ENDROOT
BRANCH   3   6
ATOM      6  C   UNL     1       5.912   0.739   3.715  0.00  0.00    -0.015 A 
ATOM      7  C   UNL     1       6.980   1.396   3.103  0.00  0.00    +0.008 A 
ATOM      8  C   UNL     1       7.885   2.098   3.871  0.00  0.00    +0.001 A 
ATOM      9  C   UNL     1       7.736   2.152   5.245  0.00  0.00    +0.000 A 
ATOM     10  C   UNL     1       6.679   1.503   5.858  0.00  0.00    +0.001 A 
ATOM     11  C   UNL     1       5.764   0.801   5.101  0.00  0.00    +0.008 A 
ENDBRANCH   3   6
BRANCH   2  12
ATOM     12  C   UNL     1       3.949   1.923   1.584  0.00  0.00    -0.001 A 
ATOM     13  C   UNL     1       3.867   2.293   0.239  0.00  0.00    +0.010 A 
ATOM     14  C   UNL     1       3.756   3.624  -0.102  0.00  0.00    +0.001 A 
ATOM     15  C   UNL     1       3.725   4.594   0.885  0.00  0.00    +0.000 A 
ATOM     16  C   UNL     1       3.805   4.236   2.219  0.00  0.00    +0.001 A 
ATOM     17  C   UNL     1       3.911   2.908   2.575  0.00  0.00    +0.010 A 
ENDBRANCH   2  12
BRANCH   5  18
ATOM     18  N   UNL     1       3.154  -2.949   1.696  0.00  0.00    -0.280 N 
ATOM     19  C   UNL     1       2.489  -3.670   2.677  0.00  0.00    +0.192 C 
ATOM     20  N   UNL     1       2.466  -3.232   3.902  0.00  0.00    -0.069 NA
ATOM     21  H   UNL     1       3.240  -3.313   0.801  0.00  0.00    +0.155 HD
BRANCH  20  22
ATOM     22  O   UNL     1       1.904  -4.030   4.928  0.00  0.00    -0.408 OA
ATOM     23  H   UNL     1       1.863  -3.591   5.789  0.00  0.00    +0.328 HD
ENDBRANCH  20  22
BRANCH  19  24
ATOM     24  C   UNL     1       1.807  -4.936   2.331  0.00  0.00    +0.153 C 
ATOM     25  N   UNL     1       1.923  -5.432   1.132  0.00  0.00    -0.083 NA
BRANCH  24  26
ATOM     26  C   UNL     1       0.992  -5.641   3.348  0.00  0.00    +0.007 A 
ATOM     27  C   UNL     1      -0.344  -5.289   3.541  0.00  0.00    +0.010 A 
ATOM     28  C   UNL     1      -1.097  -5.949   4.490  0.00  0.00    +0.001 A 
ATOM     29  C   UNL     1      -0.531  -6.958   5.249  0.00  0.00    +0.000 A 
ATOM     30  C   UNL     1       0.794  -7.311   5.062  0.00  0.00    +0.001 A 
ATOM     31  C   UNL     1       1.556  -6.662   4.112  0.00  0.00    +0.010 A 
ENDBRANCH  24  26
BRANCH  25  32
ATOM     32  O   UNL     1       1.182  -6.582   0.767  0.00  0.00    -0.409 OA
ATOM     33  H   UNL     1       1.334  -6.875  -0.142  0.00  0.00    +0.328 HD
ENDBRANCH  25  32
ENDBRANCH  19  24
ENDBRANCH   5  18
BRANCH   4  34
ATOM     34  C   UNL     1       5.360  -2.434   3.744  0.00  0.00    +0.103 C 
ATOM     35  N   UNL     1       5.887  -3.201   4.396  0.00  0.00    -0.191 NA
ENDBRANCH   4  34
BRANCH   1  36
ATOM     36  C   UNL     1       2.304  -0.383   0.391  0.00  0.00    +0.158 C 
BRANCH  36  40
ATOM     37  C   UNL     1      -1.493   0.247   2.243  0.00  0.00    +0.000 A 
ATOM     38  C   UNL     1      -0.667   1.323   1.976  0.00  0.00    +0.000 A 
ATOM     39  C   UNL     1       0.561   1.119   1.376  0.00  0.00    +0.005 A 
ATOM     40  C   UNL     1       0.965  -0.161   1.045  0.00  0.00    -0.028 A 
ATOM     41  C   UNL     1       0.140  -1.237   1.313  0.00  0.00    +0.005 A 
ATOM     42  C   UNL     1      -1.089  -1.033   1.912  0.00  0.00    +0.000 A 
ENDBRANCH  36  40
ENDBRANCH   1  36
TORSDOF 10
