REMARK  Name = ZINC40682775
REMARK  6 active torsions:
REMARK  status: ('A' for Active; 'I' for Inactive)
REMARK    1  A    between atoms: C_4  and  C_7
REMARK    2  A    between atoms: C_7  and  N_8
REMARK    3  A    between atoms: C_16  and  N_33
REMARK    4  A    between atoms: C_17  and  N_21
REMARK    5  A    between atoms: N_21  and  C_22
REMARK    6  A    between atoms: C_24  and  C_29
REMARK                            x       y       z     vdW  Elec       q    Type
REMARK                         _______ _______ _______ _____ _____    ______ ____
ROOT
ATOM      1  N   UNL     1       3.982  -0.929   1.478  0.00  0.00    -0.264 N 
ATOM      2  C   UNL     1       2.604  -0.856   1.656  0.00  0.00    +0.127 A 
ATOM      3  C   UNL     1       1.779  -1.795   1.046  0.00  0.00    +0.044 A 
ATOM      4  C   UNL     1       0.411  -1.710   1.231  0.00  0.00    +0.005 A 
ATOM      5  C   UNL     1      -0.088  -0.685   2.024  0.00  0.00    +0.020 A 
ATOM      6  C   UNL     1       0.788   0.213   2.599  0.00  0.00    +0.113 A 
ATOM      7  N   UNL     1       2.090   0.104   2.409  0.00  0.00    -0.240 NA
ATOM      8  C   UNL     1       4.824  -0.115   2.228  0.00  0.00    +0.153 A 
ATOM      9  C   UNL     1       5.394  -0.585   3.413  0.00  0.00    +0.104 A 
ATOM     10  C   UNL     1       6.232   0.273   4.127  0.00  0.00    +0.126 A 
ATOM     11  N   UNL     1       6.455   1.498   3.654  0.00  0.00    -0.333 N 
ATOM     12  C   UNL     1       5.897   1.902   2.531  0.00  0.00    +0.200 A 
ATOM     13  N   UNL     1       5.104   1.121   1.824  0.00  0.00    -0.220 NA
ATOM     14  H   UNL     1       7.035   2.101   4.144  0.00  0.00    +0.168 HD
ENDROOT
BRANCH   9  15
ATOM     15  N   UNL     1       5.130  -1.885   3.874  0.00  0.00    -0.353 N 
ATOM     16  H   UNL     1       4.610  -2.496   3.329  0.00  0.00    +0.143 HD
ATOM     17  H   UNL     1       5.468  -2.171   4.737  0.00  0.00    +0.143 HD
ENDBRANCH   9  15
BRANCH  10  18
ATOM     18  N   UNL     1       6.825  -0.144   5.313  0.00  0.00    -0.298 N 
ATOM     19  H   UNL     1       6.635  -1.028   5.665  0.00  0.00    +0.154 HD
BRANCH  18  20
ATOM     20  C   UNL     1       7.694   0.710   5.998  0.00  0.00    +0.051 A 
ATOM     21  C   UNL     1       9.062   0.465   5.989  0.00  0.00    +0.037 A 
ATOM     22  C   UNL     1       9.918   1.310   6.666  0.00  0.00    +0.057 A 
ATOM     23  C   UNL     1       9.416   2.400   7.354  0.00  0.00    +0.014 A 
ATOM     24  C   UNL     1       8.056   2.647   7.367  0.00  0.00    +0.022 A 
ATOM     25  C   UNL     1       7.193   1.809   6.686  0.00  0.00    +0.062 A 
ATOM     26 CL   UNL     1       5.486   2.124   6.696  0.00  0.00    -0.082 Cl
BRANCH  22  27
ATOM     27  C   UNL     1      11.402   1.045   6.655  0.00  0.00    +0.417 C 
ATOM     28  F   UNL     1      11.985   1.705   5.569  0.00  0.00    -0.166 F 
ATOM     29  F   UNL     1      11.968   1.515   7.845  0.00  0.00    -0.166 F 
ATOM     30  F   UNL     1      11.628  -0.331   6.543  0.00  0.00    -0.166 F 
ENDBRANCH  22  27
ENDBRANCH  18  20
ENDBRANCH  10  18
BRANCH   1  31
ATOM     31  C   UNL     1       4.545  -1.864   0.500  0.00  0.00    +0.149 C 
BRANCH  31  35
ATOM     32  C   UNL     1       4.878   0.070  -3.294  0.00  0.00    +0.000 A 
ATOM     33  C   UNL     1       5.927   0.126  -2.396  0.00  0.00    +0.000 A 
ATOM     34  C   UNL     1       5.819  -0.500  -1.168  0.00  0.00    +0.005 A 
ATOM     35  C   UNL     1       4.662  -1.181  -0.838  0.00  0.00    -0.030 A 
ATOM     36  C   UNL     1       3.613  -1.236  -1.736  0.00  0.00    +0.005 A 
ATOM     37  C   UNL     1       3.721  -0.612  -2.965  0.00  0.00    +0.000 A 
ENDBRANCH  31  35
ENDBRANCH   1  31
TORSDOF 6
