REMARK  Name = ZINC13085842
REMARK  12 active torsions:
REMARK  status: ('A' for Active; 'I' for Inactive)
REMARK    1  A    between atoms: C_1  and  C_2
REMARK    2  A    between atoms: C_2  and  O_3
REMARK    3  A    between atoms: O_3  and  C_4
REMARK    4  A    between atoms: C_4  and  C_6
REMARK    5  A    between atoms: C_6  and  N_7
REMARK    6  A    between atoms: C_8  and  C_10
REMARK    7  A    between atoms: C_10  and  S_11
REMARK    8  A    between atoms: S_11  and  C_12
REMARK    9  A    between atoms: N_23  and  C_24
REMARK   10  A    between atoms: C_24  and  C_25
REMARK   11  A    between atoms: C_28  and  C_36
REMARK   12  A    between atoms: C_33  and  C_35
REMARK                            x       y       z     vdW  Elec       q    Type
REMARK                         _______ _______ _______ _____ _____    ______ ____
ROOT
ATOM      1  C   UNL     1      -7.795   4.564   1.452  0.00  0.00    +0.198 A 
ATOM      2  N   UNL     1      -7.421   4.254   2.669  0.00  0.00    -0.120 NA
ATOM      3  N   UNL     1      -6.466   3.233   2.583  0.00  0.00    -0.109 NA
ATOM      4  C   UNL     1      -6.291   2.946   1.312  0.00  0.00    +0.238 A 
ATOM      5  N   UNL     1      -7.103   3.766   0.580  0.00  0.00    -0.254 N 
ATOM      6  C   UNL     1      -6.918   3.471  -0.772  0.00  0.00    +0.075 A 
ATOM      7  C   UNL     1      -7.480   3.986  -1.931  0.00  0.00    +0.028 A 
ATOM      8  C   UNL     1      -7.097   3.491  -3.162  0.00  0.00    +0.002 A 
ATOM      9  C   UNL     1      -6.153   2.482  -3.245  0.00  0.00    +0.002 A 
ATOM     10  C   UNL     1      -5.588   1.963  -2.098  0.00  0.00    +0.028 A 
ATOM     11  C   UNL     1      -5.966   2.454  -0.856  0.00  0.00    +0.069 A 
ATOM     12  N   UNL     1      -5.580   2.137   0.443  0.00  0.00    -0.299 N 
ENDROOT
BRANCH   1  13
ATOM     13  S   UNL     1      -8.980   5.792   1.013  0.00  0.00    -0.076 S 
BRANCH  13  14
ATOM     14  C   UNL     1      -9.515   6.474   2.607  0.00  0.00    +0.173 C 
BRANCH  14  16
ATOM     15  N   UNL     1     -11.086   8.203   3.419  0.00  0.00    -0.304 N 
ATOM     16  C   UNL     1     -10.543   7.551   2.372  0.00  0.00    +0.224 C 
ATOM     17  O   UNL     1     -10.882   7.830   1.242  0.00  0.00    -0.275 OA
ATOM     18  H   UNL     1     -10.815   7.980   4.323  0.00  0.00    +0.149 HD
BRANCH  15  19
ATOM     19  C   UNL     1     -12.086   9.250   3.192  0.00  0.00    +0.224 C 
BRANCH  19  20
ATOM     20  C   UNL     1     -12.530   9.816   4.515  0.00  0.00    +0.324 C 
ATOM     21  O   UNL     1     -12.060   9.390   5.543  0.00  0.00    -0.249 OA
BRANCH  20  22
ATOM     22  O   UNL     1     -13.448  10.795   4.552  0.00  0.00    -0.464 OA
BRANCH  22  24
ATOM     23  C   UNL     1     -14.876  12.396   5.704  0.00  0.00    +0.048 C 
ATOM     24  C   UNL     1     -13.828  11.293   5.862  0.00  0.00    +0.229 C 
ENDBRANCH  22  24
ENDBRANCH  20  22
ENDBRANCH  19  20
ENDBRANCH  15  19
ENDBRANCH  14  16
ENDBRANCH  13  14
ENDBRANCH   1  13
BRANCH  12  25
ATOM     25  C   UNL     1      -4.597   1.120   0.824  0.00  0.00    +0.221 C 
BRANCH  25  26
ATOM     26  C   UNL     1      -3.226   1.744   0.884  0.00  0.00    +0.236 C 
ATOM     27  O   UNL     1      -3.069   2.897   0.542  0.00  0.00    -0.274 OA
ATOM     28  N   UNL     1      -2.175   1.021   1.318  0.00  0.00    -0.294 N 
ATOM     29  C   UNL     1      -0.855   1.644   1.485  0.00  0.00    +0.073 C 
ATOM     30  C   UNL     1       0.178   0.828   0.703  0.00  0.00    +0.022 C 
ATOM     31  C   UNL     1       0.112  -0.634   1.151  0.00  0.00    +0.004 C 
ATOM     32  C   UNL     1      -1.278  -1.200   0.851  0.00  0.00    +0.022 C 
ATOM     33  C   UNL     1      -2.328  -0.406   1.635  0.00  0.00    +0.073 C 
ATOM     34  C   UNL     1      -2.120  -0.624   3.135  0.00  0.00    +0.028 C 
ATOM     35  C   UNL     1      -0.892   3.076   0.946  0.00  0.00    +0.028 C 
ENDBRANCH  25  26
ENDBRANCH  12  25
TORSDOF 9
