REMARK  Name = ZINC14996698
REMARK  13 active torsions:
REMARK  status: ('A' for Active; 'I' for Inactive)
REMARK    1  A    between atoms: C_1  and  C_2
REMARK    2  A    between atoms: C_2  and  N_72
REMARK    3  A    between atoms: C_3  and  C_4
REMARK    4  A    between atoms: C_3  and  N_72
REMARK    5  A    between atoms: C_5  and  C_6
REMARK    6  A    between atoms: C_5  and  N_72
REMARK    7  A    between atoms: C_6  and  N_7
REMARK    8  A    between atoms: N_7  and  C_8
REMARK    9  A    between atoms: C_8  and  C_9
REMARK   10  A    between atoms: C_10  and  C_12
REMARK   11  A    between atoms: C_16  and  C_17
REMARK   12  A    between atoms: C_29  and  O_34
REMARK   13  A    between atoms: O_34  and  C_35
REMARK                            x       y       z     vdW  Elec       q    Type
REMARK                         _______ _______ _______ _____ _____    ______ ____
ROOT
ATOM      1  C   UNL     1      -2.607  -0.466   1.630  0.00  0.00    +0.078 A 
ATOM      2  C   UNL     1      -1.788  -1.206   0.746  0.00  0.00    +0.148 A 
ATOM      3  N   UNL     1      -2.325  -2.384   0.587  0.00  0.00    -0.171 NA
ATOM      4  N   UNL     1      -3.497  -2.455   1.349  0.00  0.00    -0.201 N 
ATOM      5  C   UNL     1      -3.660  -1.281   1.989  0.00  0.00    +0.063 A 
ATOM      6  C   UNL     1      -4.348  -3.557   1.435  0.00  0.00    +0.252 A 
ATOM      7  N   UNL     1      -5.487  -3.439   2.100  0.00  0.00    -0.219 NA
ATOM      8  C   UNL     1      -6.321  -4.462   2.218  0.00  0.00    +0.120 A 
ATOM      9  C   UNL     1      -5.986  -5.666   1.631  0.00  0.00    -0.003 A 
ATOM     10  C   UNL     1      -4.788  -5.753   0.919  0.00  0.00    +0.080 A 
ATOM     11  N   UNL     1      -3.997  -4.689   0.846  0.00  0.00    -0.210 NA
ATOM     12  C   UNL     1      -4.449  -7.019   0.233  0.00  0.00    +0.004 A 
ATOM     13  C   UNL     1      -3.152  -7.260  -0.213  0.00  0.00    +0.014 A 
ATOM     14  C   UNL     1      -2.852  -8.454  -0.835  0.00  0.00    +0.046 A 
ATOM     15  C   UNL     1      -3.841  -9.411  -1.015  0.00  0.00    +0.120 A 
ATOM     16  C   UNL     1      -5.137  -9.169  -0.577  0.00  0.00    +0.050 A 
ATOM     17  C   UNL     1      -5.446  -7.975   0.039  0.00  0.00    -0.034 A 
ATOM     18  C   UNL     1      -6.856  -7.701   0.488  0.00  0.00    +0.040 C 
ATOM     19  C   UNL     1      -6.870  -6.873   1.769  0.00  0.00    +0.043 C 
ENDROOT
BRANCH   1  21
ATOM     20  N   UNL     1      -1.157   1.281   2.538  0.00  0.00    -0.299 N 
ATOM     21  C   UNL     1      -2.374   0.916   2.088  0.00  0.00    +0.250 C 
ATOM     22  O   UNL     1      -3.280   1.726   2.060  0.00  0.00    -0.270 OA
BRANCH  20  23
ATOM     23  C   UNL     1      -0.032   0.348   2.444  0.00  0.00    +0.104 C 
ATOM     24  C   UNL     1       0.789   0.662   1.192  0.00  0.00    +0.024 C 
ENDBRANCH  20  23
BRANCH  20  25
ATOM     25  C   UNL     1      -0.960   2.611   3.119  0.00  0.00    +0.089 C 
BRANCH  25  26
ATOM     26  C   UNL     1      -0.566   3.597   2.017  0.00  0.00    -0.060 C 
BRANCH  26  27
ATOM     27  N   UNL     1      -0.328   4.921   2.628  0.00  0.00    +0.380 N 
ATOM     28  H   UNL     1      -1.096   5.134   3.275  0.00  0.00    -0.082 HD
BRANCH  27  30
ATOM     29  C   UNL     1       1.057   6.208   4.181  0.00  0.00    -0.017 C 
ATOM     30  C   UNL     1       0.944   4.909   3.381  0.00  0.00    -0.082 C 
ENDBRANCH  27  30
BRANCH  27  31
ATOM     31  C   UNL     1      -0.283   5.961   1.578  0.00  0.00    -0.082 C 
ATOM     32  C   UNL     1      -1.715   6.277   1.140  0.00  0.00    -0.017 C 
ENDBRANCH  27  31
ENDBRANCH  26  27
ENDBRANCH  25  26
ENDBRANCH  20  25
ENDBRANCH   1  21
BRANCH   5  33
ATOM     33  C   UNL     1      -4.788  -0.923   2.922  0.00  0.00    +0.039 C 
ATOM     34  C   UNL     1      -4.421  -0.266   4.254  0.00  0.00    +0.010 C 
ATOM     35  C   UNL     1      -4.906  -1.717   4.225  0.00  0.00    +0.010 C 
ENDBRANCH   5  33
BRANCH  15  36
ATOM     36  O   UNL     1      -3.541 -10.589  -1.622  0.00  0.00    -0.495 OA
ATOM     37  C   UNL     1      -2.190 -10.773  -2.048  0.00  0.00    +0.277 C 
ENDBRANCH  15  36
TORSDOF 9
