REMARK  Name = ZINC34829960
REMARK  7 active torsions:
REMARK  status: ('A' for Active; 'I' for Inactive)
REMARK    1  A    between atoms: C_1  and  C_2
REMARK    2  A    between atoms: C_5  and  C_8
REMARK    3  A    between atoms: N_17  and  C_18
REMARK    4  A    between atoms: C_18  and  C_19
REMARK    5  A    between atoms: C_25  and  C_28
REMARK    6  A    between atoms: N_31  and  C_32
REMARK    7  A    between atoms: C_32  and  C_33
REMARK                            x       y       z     vdW  Elec       q    Type
REMARK                         _______ _______ _______ _____ _____    ______ ____
ROOT
ATOM      1  C   UNL     1       3.235  -4.728   1.881  0.00  0.00    +0.199 C 
ATOM      2  O   UNL     1       2.780  -5.306   2.846  0.00  0.00    -0.278 OA
ATOM      3  N   UNL     1       4.550  -4.439   1.828  0.00  0.00    -0.300 N 
ATOM      4  C   UNL     1       5.114  -3.733   0.668  0.00  0.00    +0.126 C 
ATOM      5  C   UNL     1       6.262  -4.572   0.095  0.00  0.00    +0.128 C 
ATOM      6  N   UNL     1       7.158  -4.956   1.195  0.00  0.00    -0.280 N 
ATOM      7  C   UNL     1       6.595  -5.661   2.355  0.00  0.00    +0.092 C 
ATOM      8  C   UNL     1       5.445  -4.817   2.930  0.00  0.00    +0.130 C 
ATOM      9  C   UNL     1       6.067  -7.029   1.917  0.00  0.00    +0.030 C 
ATOM     10  C   UNL     1       8.473  -4.666   1.141  0.00  0.00    +0.303 C 
ATOM     11  O   UNL     1       9.187  -4.902   2.097  0.00  0.00    -0.253 OA
ATOM     12  N   UNL     1       8.997  -4.114   0.029  0.00  0.00    -0.295 N 
ATOM     13  H   UNL     1       8.416  -3.859  -0.705  0.00  0.00    +0.151 HD
ENDROOT
BRANCH   1  14
ATOM     14  C   UNL     1       2.329  -4.334   0.743  0.00  0.00    +0.020 C 
BRANCH  14  23
ATOM     15  C   UNL     1       0.059  -4.268  -0.013  0.00  0.00    -0.005 C 
ATOM     16  C   UNL     1      -1.347  -4.800   0.249  0.00  0.00    -0.047 A 
ATOM     17  C   UNL     1      -2.503  -4.247  -0.296  0.00  0.00    +0.010 A 
ATOM     18  C   UNL     1      -3.712  -4.784  -0.006  0.00  0.00    +0.045 A 
ATOM     19  S   UNL     1      -3.266  -6.134   1.077  0.00  0.00    -0.101 S 
ATOM     20  C   UNL     1      -1.515  -5.882   1.060  0.00  0.00    -0.010 A 
ATOM     21  C   UNL     1      -0.434  -6.647   1.752  0.00  0.00    +0.024 C 
ATOM     22  C   UNL     1       0.906  -6.226   1.126  0.00  0.00    -0.072 C 
ATOM     23  N   UNL     1       0.955  -4.759   1.041  0.00  0.00    +0.393 N 
ATOM     24  H   UNL     1       0.672  -4.368   1.927  0.00  0.00    -0.080 HD
BRANCH  15  29
ATOM     25  C   UNL     1      -0.018   1.510   0.041  0.00  0.00    +0.044 C 
ATOM     26  C   UNL     1       0.002   0.003   0.027  0.00  0.00    -0.050 A 
ATOM     27  C   UNL     1       0.005  -0.677  -1.176  0.00  0.00    +0.003 A 
ATOM     28  C   UNL     1       0.023  -2.059  -1.189  0.00  0.00    +0.002 A 
ATOM     29  C   UNL     1       0.040  -2.762   0.002  0.00  0.00    -0.057 A 
ATOM     30  C   UNL     1       0.038  -2.082   1.205  0.00  0.00    +0.002 A 
ATOM     31  C   UNL     1       0.024  -0.699   1.218  0.00  0.00    +0.003 A 
ENDBRANCH  15  29
ENDBRANCH  14  23
ENDBRANCH   1  14
BRANCH  12  32
ATOM     32  C   UNL     1      10.443  -3.900  -0.072  0.00  0.00    +0.141 C 
BRANCH  32  33
ATOM     33  C   UNL     1      10.766  -3.275  -1.404  0.00  0.00    -0.030 A 
ATOM     34  C   UNL     1      11.037  -4.077  -2.497  0.00  0.00    +0.005 A 
ATOM     35  C   UNL     1      11.334  -3.504  -3.719  0.00  0.00    +0.000 A 
ATOM     36  C   UNL     1      11.359  -2.128  -3.849  0.00  0.00    +0.000 A 
ATOM     37  C   UNL     1      11.087  -1.325  -2.757  0.00  0.00    +0.000 A 
ATOM     38  C   UNL     1      10.786  -1.899  -1.536  0.00  0.00    +0.005 A 
ENDBRANCH  32  33
ENDBRANCH  12  32
TORSDOF 5
