REMARK  Name = ZINC63637337
REMARK  18 active torsions:
REMARK  status: ('A' for Active; 'I' for Inactive)
REMARK    1  A    between atoms: C_1  and  C_2
REMARK    2  A    between atoms: C_2  and  C_3
REMARK    3  A    between atoms: C_3  and  C_4
REMARK    4  A    between atoms: C_4  and  C_5
REMARK    5  A    between atoms: C_8  and  N_11
REMARK    6  A    between atoms: N_11  and  C_12
REMARK    7  A    between atoms: C_12  and  N_14
REMARK    8  A    between atoms: N_14  and  C_15
REMARK    9  A    between atoms: N_14  and  C_28
REMARK   10  A    between atoms: C_15  and  C_16
REMARK   11  A    between atoms: C_16  and  C_17
REMARK   12  A    between atoms: C_20  and  O_26
REMARK   13  A    between atoms: O_26  and  C_27
REMARK   14  A    between atoms: C_28  and  C_29
REMARK   15  A    between atoms: C_32  and  O_37
REMARK   16  A    between atoms: C_33  and  O_35
REMARK   17  A    between atoms: O_35  and  C_36
REMARK   18  A    between atoms: O_37  and  C_38
REMARK                            x       y       z     vdW  Elec       q    Type
REMARK                         _______ _______ _______ _____ _____    ______ ____
ROOT
ATOM      1  N   UNL     1      -8.707  -4.535  -1.096  0.00  0.00    -0.308 N 
ENDROOT
BRANCH   1   2
ATOM      2  C   UNL     1      -7.411  -4.164  -1.113  0.00  0.00    +0.137 C 
ATOM      3  S   UNL     1      -6.625  -3.868  -2.604  0.00  0.00    -0.018 S 
BRANCH   2   4
ATOM      4  N   UNL     1      -6.734  -4.027   0.045  0.00  0.00    -0.297 N 
ATOM      5  H   UNL     1      -7.154  -4.273   0.884  0.00  0.00    +0.154 HD
BRANCH   4   9
ATOM      6  C   UNL     1      -2.839  -2.551   0.019  0.00  0.00    -0.047 A 
ATOM      7  C   UNL     1      -3.801  -1.972  -0.788  0.00  0.00    +0.005 A 
ATOM      8  C   UNL     1      -5.094  -2.460  -0.782  0.00  0.00    +0.023 A 
ATOM      9  C   UNL     1      -5.426  -3.532   0.036  0.00  0.00    +0.033 A 
ATOM     10  C   UNL     1      -4.457  -4.111   0.845  0.00  0.00    +0.023 A 
ATOM     11  C   UNL     1      -3.166  -3.623   0.830  0.00  0.00    +0.005 A 
BRANCH   6  12
ATOM     12  C   UNL     1      -1.430  -2.017   0.010  0.00  0.00    +0.035 C 
BRANCH  12  13
ATOM     13  C   UNL     1      -0.615  -2.747  -1.060  0.00  0.00    +0.004 C 
BRANCH  13  15
ATOM     14  C   UNL     1       1.631  -2.934  -2.139  0.00  0.00    +0.004 C 
ATOM     15  C   UNL     1       0.816  -2.204  -1.069  0.00  0.00    -0.003 C 
ENDBRANCH  13  15
ENDBRANCH  12  13
ENDBRANCH   6  12
ENDBRANCH   4   9
ENDBRANCH   2   4
ENDBRANCH   1   2
BRANCH   1  16
ATOM     16  C   UNL     1      -9.442  -4.683  -2.354  0.00  0.00    +0.111 C 
BRANCH  16  17
ATOM     17  C   UNL     1      -9.303  -6.121  -2.860  0.00  0.00    +0.052 C 
BRANCH  17  18
ATOM     18  C   UNL     1     -10.060  -6.274  -4.154  0.00  0.00    -0.040 C 
ATOM     19  C   UNL     1      -9.558  -6.173  -5.406  0.00  0.00    +0.002 A 
ATOM     20  C   UNL     1      -8.211  -5.902  -5.919  0.00  0.00    +0.055 A 
ATOM     21  C   UNL     1      -8.003  -5.860  -7.257  0.00  0.00    +0.121 A 
ATOM     22  C   UNL     1      -9.039  -6.069  -8.185  0.00  0.00    +0.047 A 
ATOM     23  C   UNL     1     -10.310  -6.325  -7.809  0.00  0.00    +0.029 A 
ATOM     24  C   UNL     1     -10.648  -6.393  -6.384  0.00  0.00    +0.043 A 
ATOM     25  N   UNL     1     -11.778  -6.620  -5.762  0.00  0.00    -0.380 N 
ATOM     26  C   UNL     1     -11.533  -6.577  -4.316  0.00  0.00    +0.144 C 
ATOM     27  H   UNL     1     -12.633  -6.792  -6.186  0.00  0.00    +0.160 HD
BRANCH  21  28
ATOM     28  O   UNL     1      -6.750  -5.607  -7.719  0.00  0.00    -0.495 OA
ATOM     29  C   UNL     1      -6.575  -5.572  -9.137  0.00  0.00    +0.277 C 
ENDBRANCH  21  28
ENDBRANCH  17  18
ENDBRANCH  16  17
ENDBRANCH   1  16
BRANCH   1  30
ATOM     30  C   UNL     1      -9.380  -4.788   0.180  0.00  0.00    +0.142 C 
BRANCH  30  31
ATOM     31  C   UNL     1     -10.000  -3.511   0.684  0.00  0.00    -0.026 A 
ATOM     32  C   UNL     1      -9.269  -2.663   1.496  0.00  0.00    +0.009 A 
ATOM     33  C   UNL     1      -9.834  -1.490   1.960  0.00  0.00    +0.050 A 
ATOM     34  C   UNL     1     -11.134  -1.161   1.613  0.00  0.00    +0.162 A 
ATOM     35  C   UNL     1     -11.869  -2.014   0.795  0.00  0.00    +0.162 A 
ATOM     36  C   UNL     1     -11.296  -3.186   0.329  0.00  0.00    +0.054 A 
BRANCH  35  37
ATOM     37  O   UNL     1     -13.146  -1.696   0.451  0.00  0.00    -0.491 OA
ATOM     38  C   UNL     1     -13.840  -2.619  -0.391  0.00  0.00    +0.277 C 
ENDBRANCH  35  37
BRANCH  34  39
ATOM     39  O   UNL     1     -11.691  -0.007   2.069  0.00  0.00    -0.491 OA
ATOM     40  C   UNL     1     -10.877   0.820   2.904  0.00  0.00    +0.277 C 
ENDBRANCH  34  39
ENDBRANCH  30  31
ENDBRANCH   1  30
TORSDOF 14
