REMARK  Name = ZINC09344798
REMARK  6 active torsions:
REMARK  status: ('A' for Active; 'I' for Inactive)
REMARK    1  A    between atoms: C_7  and  N_20
REMARK    2  A    between atoms: C_8  and  C_10
REMARK    3  A    between atoms: N_12  and  C_13
REMARK    4  A    between atoms: C_21  and  C_23
REMARK    5  A    between atoms: C_23  and  O_24
REMARK    6  A    between atoms: O_24  and  C_25
REMARK                            x       y       z     vdW  Elec       q    Type
REMARK                         _______ _______ _______ _____ _____    ______ ____
ROOT
ATOM      1  C   UNL     1       2.945  -8.557  -1.437  0.00  0.00    +0.001 A 
ATOM      2  C   UNL     1       1.561  -8.511  -1.346  0.00  0.00    +0.004 A 
ATOM      3  C   UNL     1       0.921  -7.363  -0.929  0.00  0.00    +0.047 A 
ATOM      4  C   UNL     1       1.666  -6.237  -0.595  0.00  0.00    +0.138 A 
ATOM      5  C   UNL     1       3.068  -6.291  -0.690  0.00  0.00    +0.042 A 
ATOM      6  C   UNL     1       3.697  -7.462  -1.114  0.00  0.00    +0.013 A 
ATOM      7  C   UNL     1       3.547  -4.968  -0.275  0.00  0.00    +0.092 A 
ATOM      8  C   UNL     1       2.427  -4.242   0.028  0.00  0.00    +0.212 A 
ATOM      9  O   UNL     1       1.329  -5.007  -0.161  0.00  0.00    -0.448 OA
ENDROOT
BRANCH   8  10
ATOM     10  C   UNL     1       2.420  -2.856   0.491  0.00  0.00    +0.285 C 
ATOM     11  O   UNL     1       3.461  -2.227   0.546  0.00  0.00    -0.266 OA
ATOM     12  N   UNL     1       1.261  -2.273   0.856  0.00  0.00    -0.279 N 
ATOM     13  H   UNL     1       0.442  -2.793   0.877  0.00  0.00    +0.155 HD
BRANCH  12  14
ATOM     14  C   UNL     1       1.238  -0.919   1.204  0.00  0.00    +0.034 A 
ATOM     15  C   UNL     1       0.137  -0.136   0.881  0.00  0.00    +0.025 A 
ATOM     16  C   UNL     1       0.117   1.202   1.226  0.00  0.00    +0.022 A 
ATOM     17  C   UNL     1       1.194   1.762   1.892  0.00  0.00    +0.041 A 
ATOM     18  C   UNL     1       2.292   0.984   2.214  0.00  0.00    +0.022 A 
ATOM     19  C   UNL     1       2.317  -0.354   1.872  0.00  0.00    +0.025 A 
ATOM     20 CL   UNL     1       1.165   3.443   2.323  0.00  0.00    -0.084 Cl
ENDBRANCH  12  14
ENDBRANCH   8  10
BRANCH   7  21
ATOM     21  N   UNL     1       4.867  -4.539  -0.204  0.00  0.00    -0.279 N 
ATOM     22  C   UNL     1       5.837  -5.401   0.159  0.00  0.00    +0.255 C 
ATOM     23  O   UNL     1       5.574  -6.573   0.329  0.00  0.00    -0.272 OA
ATOM     24  H   UNL     1       5.090  -3.619  -0.416  0.00  0.00    +0.155 HD
BRANCH  22  25
ATOM     25  C   UNL     1       7.248  -4.910   0.354  0.00  0.00    +0.325 C 
BRANCH  25  26
ATOM     26  O   UNL     1       8.086  -6.003   0.734  0.00  0.00    -0.480 OA
BRANCH  26  27
ATOM     27  C   UNL     1       9.400  -5.729   0.950  0.00  0.00    +0.156 A 
ATOM     28  C   UNL     1       9.874  -4.435   0.794  0.00  0.00    +0.048 A 
ATOM     29  C   UNL     1      11.209  -4.157   1.018  0.00  0.00    +0.004 A 
ATOM     30  C   UNL     1      12.075  -5.170   1.388  0.00  0.00    +0.003 A 
ATOM     31  C   UNL     1      11.607  -6.462   1.540  0.00  0.00    +0.042 A 
ATOM     32  C   UNL     1      10.271  -6.745   1.322  0.00  0.00    +0.165 A 
ATOM     33  F   UNL     1       9.814  -8.008   1.469  0.00  0.00    -0.202 F 
ENDBRANCH  26  27
ENDBRANCH  25  26
ENDBRANCH  22  25
ENDBRANCH   7  21
TORSDOF 6
