REMARK  Name = ZINC08617365
REMARK  11 active torsions:
REMARK  status: ('A' for Active; 'I' for Inactive)
REMARK    1  A    between atoms: C_1  and  C_2
REMARK    2  A    between atoms: C_2  and  C_3
REMARK    3  A    between atoms: C_3  and  C_5
REMARK    4  A    between atoms: C_3  and  N_63
REMARK    5  A    between atoms: N_9  and  C_10
REMARK    6  A    between atoms: C_15  and  C_16
REMARK    7  A    between atoms: C_15  and  N_63
REMARK    8  A    between atoms: C_21  and  C_22
REMARK    9  A    between atoms: C_21  and  N_63
REMARK   10  A    between atoms: C_28  and  C_33
REMARK   11  A    between atoms: C_31  and  O_32
REMARK                            x       y       z     vdW  Elec       q    Type
REMARK                         _______ _______ _______ _____ _____    ______ ____
ROOT
ATOM      1  N   UNL     1       2.607   2.427   0.642  0.00  0.00    +0.392 N 
ATOM      2  H   UNL     1       3.226   1.722   0.225  0.00  0.00    -0.080 HD
ENDROOT
BRANCH   1   3
ATOM      3  C   UNL     1       1.706   2.956  -0.404  0.00  0.00    +0.003 C 
BRANCH   3   4
ATOM      4  C   UNL     1       2.469   3.033  -1.701  0.00  0.00    +0.138 A 
ATOM      5  N   UNL     1       3.665   3.540  -1.877  0.00  0.00    -0.115 NA
ATOM      6  N   UNL     1       3.969   3.420  -3.123  0.00  0.00    -0.023 NA
ATOM      7  N   UNL     1       2.998   2.848  -3.747  0.00  0.00    -0.044 NA
ATOM      8  N   UNL     1       2.054   2.594  -2.904  0.00  0.00    -0.228 N 
BRANCH   8   9
ATOM      9  C   UNL     1       0.770   1.955  -3.202  0.00  0.00    +0.111 C 
ATOM     10  C   UNL     1       1.005   0.564  -3.826  0.00  0.00    +0.027 C 
ATOM     11  C   UNL     1      -0.114   0.431  -4.889  0.00  0.00    +0.002 C 
ATOM     12  C   UNL     1      -0.207   1.864  -5.469  0.00  0.00    +0.002 C 
ATOM     13  C   UNL     1      -0.001   2.781  -4.246  0.00  0.00    +0.027 C 
ENDBRANCH   8   9
ENDBRANCH   3   4
BRANCH   3  15
ATOM     14  C   UNL     1       0.337   4.256   1.233  0.00  0.00    +0.002 C 
ATOM     15  C   UNL     1       1.206   4.351  -0.023  0.00  0.00    -0.011 C 
ENDBRANCH   3  15
ENDBRANCH   1   3
BRANCH   1  16
ATOM     16  C   UNL     1       1.815   1.794   1.718  0.00  0.00    -0.034 C 
BRANCH  16  17
ATOM     17  C   UNL     1       1.381   0.427   1.256  0.00  0.00    -0.027 A 
ATOM     18  C   UNL     1       1.992  -0.769   1.436  0.00  0.00    +0.009 A 
ATOM     19  C   UNL     1       1.403  -1.908   0.919  0.00  0.00    +0.008 A 
ATOM     20  C   UNL     1       0.232  -1.794   0.247  0.00  0.00    +0.045 A 
ATOM     21  S   UNL     1      -0.078  -0.038   0.338  0.00  0.00    -0.103 S 
ENDBRANCH  16  17
ENDBRANCH   1  16
BRANCH   1  22
ATOM     22  C   UNL     1       3.432   3.520   1.199  0.00  0.00    -0.036 C 
BRANCH  22  23
ATOM     23  C   UNL     1       4.569   2.918   1.982  0.00  0.00    -0.002 A 
ATOM     24  C   UNL     1       4.571   2.983   3.344  0.00  0.00    +0.017 A 
ATOM     25  C   UNL     1       5.650   2.403   4.039  0.00  0.00    +0.001 A 
ATOM     26  C   UNL     1       5.713   2.429   5.441  0.00  0.00    +0.010 A 
ATOM     27  C   UNL     1       6.776   1.863   6.078  0.00  0.00    +0.001 A 
ATOM     28  C   UNL     1       7.802   1.258   5.356  0.00  0.00    +0.005 A 
ATOM     29  C   UNL     1       7.772   1.214   3.995  0.00  0.00    -0.024 A 
ATOM     30  C   UNL     1       6.692   1.788   3.303  0.00  0.00    +0.078 A 
ATOM     31  N   UNL     1       6.638   1.760   1.966  0.00  0.00    -0.213 NA
ATOM     32  C   UNL     1       5.629   2.295   1.313  0.00  0.00    +0.214 A 
ATOM     33  C   UNL     1       8.893   0.554   3.235  0.00  0.00    +0.046 C 
BRANCH  32  34
ATOM     34  O   UNL     1       5.617   2.243  -0.042  0.00  0.00    -0.492 OA
ATOM     35  H   UNL     1       6.111   2.957  -0.468  0.00  0.00    +0.294 HD
ENDBRANCH  32  34
ENDBRANCH  22  23
ENDBRANCH   1  22
TORSDOF 9
