REMARK  Name = ZINC00650137
REMARK  15 active torsions:
REMARK  status: ('A' for Active; 'I' for Inactive)
REMARK    1  A    between atoms: C_1  and  C_2
REMARK    2  A    between atoms: C_3  and  C_37
REMARK    3  A    between atoms: C_4  and  C_25
REMARK    4  A    between atoms: C_10  and  C_15
REMARK    5  A    between atoms: C_18  and  O_23
REMARK    6  A    between atoms: C_19  and  O_21
REMARK    7  A    between atoms: O_21  and  C_22
REMARK    8  A    between atoms: O_23  and  C_24
REMARK    9  A    between atoms: C_28  and  O_33
REMARK   10  A    between atoms: C_29  and  O_31
REMARK   11  A    between atoms: O_31  and  C_32
REMARK   12  A    between atoms: O_33  and  C_34
REMARK   13  A    between atoms: C_34  and  C_36
REMARK   14  A    between atoms: C_37  and  O_39
REMARK   15  A    between atoms: O_39  and  C_40
REMARK                            x       y       z     vdW  Elec       q    Type
REMARK                         _______ _______ _______ _____ _____    ______ ____
ROOT
ATOM      1  C   UNL     1       0.025   1.467  -0.008  0.00  0.00    +0.061 C 
ATOM      2  C   UNL     1       0.014  -0.040  -0.020  0.00  0.00    +0.016 C 
ATOM      3  C   UNL     1      -1.157  -0.700  -0.004  0.00  0.00    +0.065 C 
ATOM      4  C   UNL     1      -1.206  -2.199  -0.006  0.00  0.00    +0.092 C 
ATOM      5  C   UNL     1       0.111  -2.784  -0.452  0.00  0.00    +0.024 C 
ATOM      6  C   UNL     1       1.234  -2.034  -0.453  0.00  0.00    +0.016 C 
ATOM      7  N   UNL     1       1.196  -0.727  -0.052  0.00  0.00    -0.321 N 
ATOM      8  C   UNL     1       2.553  -2.609  -0.904  0.00  0.00    +0.059 C 
ATOM      9  C   UNL     1       2.593  -4.107  -0.592  0.00  0.00    +0.032 C 
ATOM     10  C   UNL     1       1.417  -4.783  -1.304  0.00  0.00    +0.088 C 
ATOM     11  C   UNL     1       0.137  -4.128  -0.864  0.00  0.00    +0.162 C 
ATOM     12  O   UNL     1      -0.894  -4.771  -0.864  0.00  0.00    -0.292 OA
ATOM     13  H   UNL     1       2.016  -0.284   0.216  0.00  0.00    +0.152 HD
ENDROOT
BRANCH   9  14
ATOM     14  C   UNL     1       3.892  -4.692  -1.085  0.00  0.00    -0.040 A 
ATOM     15  C   UNL     1       4.218  -4.617  -2.426  0.00  0.00    +0.008 A 
ATOM     16  C   UNL     1       5.408  -5.152  -2.883  0.00  0.00    +0.049 A 
ATOM     17  C   UNL     1       6.278  -5.764  -1.995  0.00  0.00    +0.161 A 
ATOM     18  C   UNL     1       5.951  -5.839  -0.644  0.00  0.00    +0.162 A 
ATOM     19  C   UNL     1       4.758  -5.296  -0.193  0.00  0.00    +0.053 A 
BRANCH  18  20
ATOM     20  O   UNL     1       6.802  -6.438   0.231  0.00  0.00    -0.491 OA
ATOM     21  C   UNL     1       6.400  -6.478   1.602  0.00  0.00    +0.277 C 
ENDBRANCH  18  20
BRANCH  17  22
ATOM     22  O   UNL     1       7.449  -6.291  -2.442  0.00  0.00    -0.491 OA
ATOM     23  C   UNL     1       7.719  -6.179  -3.841  0.00  0.00    +0.277 C 
ENDBRANCH  17  22
ENDBRANCH   9  14
BRANCH   4  24
ATOM     24  C   UNL     1      -1.515  -2.686   1.386  0.00  0.00    -0.032 A 
ATOM     25  C   UNL     1      -0.667  -2.370   2.432  0.00  0.00    +0.008 A 
ATOM     26  C   UNL     1      -0.946  -2.814   3.711  0.00  0.00    +0.050 A 
ATOM     27  C   UNL     1      -2.079  -3.576   3.948  0.00  0.00    +0.173 A 
ATOM     28  C   UNL     1      -2.933  -3.894   2.896  0.00  0.00    +0.163 A 
ATOM     29  C   UNL     1      -2.649  -3.442   1.617  0.00  0.00    +0.054 A 
BRANCH  28  30
ATOM     30  O   UNL     1      -4.045  -4.642   3.123  0.00  0.00    -0.491 OA
ATOM     31  C   UNL     1      -4.875  -4.929   1.996  0.00  0.00    +0.277 C 
ENDBRANCH  28  30
BRANCH  27  32
ATOM     32  O   UNL     1      -2.355  -4.014   5.205  0.00  0.00    -0.422 OA
BRANCH  32  33
ATOM     33  C   UNL     1      -2.019  -5.274   5.522  0.00  0.00    +0.309 C 
ATOM     34  O   UNL     1      -1.402  -5.951   4.734  0.00  0.00    -0.251 OA
ATOM     35  C   UNL     1      -2.413  -5.846   6.860  0.00  0.00    +0.136 C 
ENDBRANCH  32  33
ENDBRANCH  27  32
ENDBRANCH   4  24
BRANCH   3  36
ATOM     36  C   UNL     1      -2.366   0.034   0.015  0.00  0.00    +0.338 C 
ATOM     37  O   UNL     1      -2.340   1.250   0.017  0.00  0.00    -0.245 OA
BRANCH  36  38
ATOM     38  O   UNL     1      -3.549  -0.616   0.031  0.00  0.00    -0.458 OA
BRANCH  38  39
ATOM     39  C   UNL     1      -4.730   0.188   0.049  0.00  0.00    +0.177 C 
ATOM     40  C   UNL     1      -5.131   0.472   1.498  0.00  0.00    +0.044 C 
ATOM     41  C   UNL     1      -6.396   1.333   1.518  0.00  0.00    +0.004 C 
ATOM     42  C   UNL     1      -7.530   0.589   0.812  0.00  0.00    +0.000 C 
ATOM     43  C   UNL     1      -7.130   0.305  -0.637  0.00  0.00    +0.004 C 
ATOM     44  C   UNL     1      -5.865  -0.556  -0.657  0.00  0.00    +0.044 C 
ENDBRANCH  38  39
ENDBRANCH  36  38
ENDBRANCH   3  36
TORSDOF 10
