REMARK  Name = ZINC39666226
REMARK  8 active torsions:
REMARK  status: ('A' for Active; 'I' for Inactive)
REMARK    1  A    between atoms: C_1  and  C_2
REMARK    2  A    between atoms: C_5  and  O_8
REMARK    3  A    between atoms: O_8  and  C_9
REMARK    4  A    between atoms: C_9  and  C_11
REMARK    5  A    between atoms: C_9  and  C_12
REMARK    6  A    between atoms: C_12  and  N_13
REMARK    7  A    between atoms: C_14  and  C_16
REMARK    8  A    between atoms: C_27  and  C_29
REMARK                            x       y       z     vdW  Elec       q    Type
REMARK                         _______ _______ _______ _____ _____    ______ ____
ROOT
ATOM      1  C   UNL     1       4.576  -6.812   0.035  0.00  0.00    +0.100 C 
ATOM      2  C   UNL     1       5.500  -6.143   1.077  0.00  0.00    +0.121 C 
ATOM      3  N   UNL     1       6.138  -7.273   1.792  0.00  0.00    -0.296 N 
ATOM      4  C   UNL     1       6.414  -8.272   0.732  0.00  0.00    +0.115 C 
ATOM      5  C   UNL     1       5.182  -8.208  -0.191  0.00  0.00    -0.004 C 
ATOM      6  C   UNL     1       4.177  -9.289   0.196  0.00  0.00    -0.010 C 
ATOM      7  C   UNL     1       4.780 -10.666  -0.091  0.00  0.00    -0.082 C 
ATOM      8  N   UNL     1       5.114 -10.769  -1.516  0.00  0.00    +0.379 N 
ATOM      9  C   UNL     1       6.150  -9.787  -1.860  0.00  0.00    -0.082 C 
ATOM     10  C   UNL     1       5.604  -8.372  -1.648  0.00  0.00    -0.010 C 
ATOM     11  C   UNL     1       6.406  -7.371   3.110  0.00  0.00    +0.248 C 
ATOM     12  O   UNL     1       6.194  -6.426   3.845  0.00  0.00    -0.270 OA
ATOM     13  H   UNL     1       5.455 -11.698  -1.715  0.00  0.00    -0.086 HD
ATOM     14  H   UNL     1       4.288 -10.592  -2.068  0.00  0.00    -0.086 HD
ENDROOT
BRANCH  11  15
ATOM     15  C   UNL     1       6.953  -8.619   3.657  0.00  0.00    +0.052 A 
ATOM     16  C   UNL     1       7.884  -9.334   2.974  0.00  0.00    +0.059 A 
ATOM     17  S   UNL     1       8.226 -10.660   3.942  0.00  0.00    -0.096 S 
ATOM     18  C   UNL     1       7.148 -10.337   5.310  0.00  0.00    +0.020 A 
ATOM     19  C   UNL     1       6.516  -9.129   4.959  0.00  0.00    +0.001 A 
ATOM     20  C   UNL     1       5.583  -8.600   5.871  0.00  0.00    +0.010 A 
ATOM     21  C   UNL     1       5.320  -9.249   7.051  0.00  0.00    +0.001 A 
ATOM     22  C   UNL     1       5.960 -10.436   7.376  0.00  0.00    +0.001 A 
ATOM     23  C   UNL     1       6.873 -10.984   6.495  0.00  0.00    +0.015 A 
ENDBRANCH  11  15
BRANCH   1  25
ATOM     24  N   UNL     1       2.132  -7.028  -0.274  0.00  0.00    -0.312 N 
ATOM     25  C   UNL     1       3.174  -6.929   0.575  0.00  0.00    +0.218 C 
ATOM     26  O   UNL     1       2.985  -6.935   1.772  0.00  0.00    -0.275 OA
ATOM     27  H   UNL     1       2.284  -7.024  -1.232  0.00  0.00    +0.149 HD
BRANCH  24  28
ATOM     28  C   UNL     1       0.769  -7.142   0.252  0.00  0.00    +0.148 C 
BRANCH  28  29
ATOM     29  C   UNL     1      -0.220  -7.239  -0.912  0.00  0.00    +0.187 C 
ATOM     30  C   UNL     1      -1.650  -7.233  -0.369  0.00  0.00    +0.053 C 
BRANCH  29  31
ATOM     31  O   UNL     1       0.010  -8.452  -1.633  0.00  0.00    -0.488 OA
BRANCH  31  36
ATOM     32  C   UNL     1      -1.532  -8.540  -7.049  0.00  0.00    +0.044 C 
ATOM     33  C   UNL     1      -1.119  -8.516  -5.600  0.00  0.00    -0.050 A 
ATOM     34  C   UNL     1      -1.413  -7.415  -4.817  0.00  0.00    +0.007 A 
ATOM     35  C   UNL     1      -1.035  -7.391  -3.488  0.00  0.00    +0.046 A 
ATOM     36  C   UNL     1      -0.362  -8.473  -2.939  0.00  0.00    +0.121 A 
ATOM     37  C   UNL     1      -0.070  -9.577  -3.728  0.00  0.00    +0.046 A 
ATOM     38  C   UNL     1      -0.454  -9.598  -5.054  0.00  0.00    +0.007 A 
ENDBRANCH  31  36
ENDBRANCH  29  31
ENDBRANCH  28  29
ENDBRANCH  24  28
ENDBRANCH   1  25
TORSDOF 6
