REMARK  Name = ZINC09949534
REMARK  6 active torsions:
REMARK  status: ('A' for Active; 'I' for Inactive)
REMARK    1  A    between atoms: C_9  and  C_12
REMARK    2  A    between atoms: C_12  and  N_13
REMARK    3  A    between atoms: C_14  and  C_16
REMARK    4  A    between atoms: C_16  and  N_62
REMARK    5  A    between atoms: N_19  and  S_22
REMARK    6  A    between atoms: S_22  and  C_25
REMARK                            x       y       z     vdW  Elec       q    Type
REMARK                         _______ _______ _______ _____ _____    ______ ____
ROOT
ATOM      1  C   UNL     1       2.061   1.657   1.241  0.00  0.00    -0.061 C 
ATOM      2  C   UNL     1       3.539   2.044   1.117  0.00  0.00    +0.091 C 
ATOM      3  N   UNL     1       3.620   3.463   0.740  0.00  0.00    -0.180 NA
ATOM      4  C   UNL     1       2.834   3.922  -0.415  0.00  0.00    +0.091 C 
ATOM      5  C   UNL     1       1.384   3.462  -0.231  0.00  0.00    -0.061 C 
ATOM      6  N   UNL     1       1.374   1.997  -0.024  0.00  0.00    +0.387 N 
ATOM      7  H   UNL     1       1.868   1.547  -0.803  0.00  0.00    -0.081 HD
ENDROOT
BRANCH   3   8
ATOM      8  S   UNL     1       4.573   4.516   1.593  0.00  0.00    +0.061 S 
ATOM      9  O   UNL     1       5.577   3.734   2.224  0.00  0.00    -0.153 OA
ATOM     10  O   UNL     1       4.883   5.587   0.712  0.00  0.00    -0.153 OA
BRANCH   8  11
ATOM     11  C   UNL     1       3.578   5.193   2.880  0.00  0.00    +0.106 A 
ATOM     12  C   UNL     1       3.521   4.568   4.112  0.00  0.00    +0.029 A 
ATOM     13  C   UNL     1       2.741   5.101   5.119  0.00  0.00    +0.006 A 
ATOM     14  C   UNL     1       2.015   6.260   4.900  0.00  0.00    -0.044 A 
ATOM     15  C   UNL     1       2.072   6.884   3.668  0.00  0.00    -0.042 A 
ATOM     16  C   UNL     1       2.859   6.351   2.661  0.00  0.00    +0.032 A 
ATOM     17  C   UNL     1       1.198   8.120   3.680  0.00  0.00    +0.036 C 
ATOM     18  C   UNL     1       0.950   8.425   5.173  0.00  0.00    +0.009 C 
ATOM     19  C   UNL     1       1.100   7.034   5.824  0.00  0.00    +0.036 C 
ENDBRANCH   8  11
ENDBRANCH   3   8
BRANCH   6  20
ATOM     20  C   UNL     1      -0.018   1.503   0.010  0.00  0.00    +0.019 C 
BRANCH  20  22
ATOM     21  N   UNL     1      -1.156  -0.694   0.009  0.00  0.00    -0.313 N 
ATOM     22  C   UNL     1       0.002  -0.004   0.002  0.00  0.00    +0.197 C 
ATOM     23  O   UNL     1       1.060  -0.596  -0.011  0.00  0.00    -0.278 OA
ATOM     24  H   UNL     1      -2.002  -0.220   0.020  0.00  0.00    +0.149 HD
BRANCH  21  25
ATOM     25  C   UNL     1      -1.136  -2.159   0.001  0.00  0.00    +0.152 C 
BRANCH  25  34
ATOM     26  C   UNL     1      -6.786  -4.240  -2.074  0.00  0.00    +0.004 A 
ATOM     27  C   UNL     1      -6.449  -3.068  -2.725  0.00  0.00    +0.004 A 
ATOM     28  C   UNL     1      -5.258  -2.430  -2.432  0.00  0.00    +0.049 A 
ATOM     29  C   UNL     1      -4.399  -2.965  -1.483  0.00  0.00    +0.163 A 
ATOM     30  C   UNL     1      -4.739  -4.142  -0.828  0.00  0.00    +0.162 A 
ATOM     31  C   UNL     1      -5.935  -4.778  -1.128  0.00  0.00    +0.049 A 
ATOM     32  O   UNL     1      -3.913  -4.681   0.109  0.00  0.00    -0.485 OA
ATOM     33  C   UNL     1      -2.557  -4.219   0.115  0.00  0.00    +0.275 C 
ATOM     34  C   UNL     1      -2.571  -2.688   0.012  0.00  0.00    +0.228 C 
ATOM     35  O   UNL     1      -3.229  -2.326  -1.207  0.00  0.00    -0.480 OA
ENDBRANCH  25  34
ENDBRANCH  21  25
ENDBRANCH  20  22
ENDBRANCH   6  20
TORSDOF 6
