REMARK  Name = ZINC37264064
REMARK  13 active torsions:
REMARK  status: ('A' for Active; 'I' for Inactive)
REMARK    1  A    between atoms: C_1  and  C_2
REMARK    2  A    between atoms: C_2  and  C_3
REMARK    3  A    between atoms: C_3  and  C_5
REMARK    4  A    between atoms: C_3  and  N_6
REMARK    5  A    between atoms: C_7  and  C_9
REMARK    6  A    between atoms: C_9  and  N_10
REMARK    7  A    between atoms: C_13  and  C_23
REMARK    8  A    between atoms: N_15  and  C_16
REMARK    9  A    between atoms: C_21  and  C_22
REMARK   10  A    between atoms: C_23  and  C_24
REMARK   11  A    between atoms: C_23  and  C_25
REMARK   12  A    between atoms: C_23  and  C_26
REMARK   13  A    between atoms: C_27  and  C_33
REMARK                            x       y       z     vdW  Elec       q    Type
REMARK                         _______ _______ _______ _____ _____    ______ ____
ROOT
ATOM      1  N   UNL     1       2.395   2.008  -2.739  0.00  0.00    -0.246 N 
ATOM      2  C   UNL     1       2.349   2.680  -3.969  0.00  0.00    +0.136 A 
ATOM      3  C   UNL     1       3.340   2.636  -4.889  0.00  0.00    +0.034 A 
ATOM      4  C   UNL     1       2.946   3.410  -5.981  0.00  0.00    +0.075 A 
ATOM      5  N   UNL     1       1.759   3.906  -5.726  0.00  0.00    -0.169 NA
ATOM      6  N   UNL     1       1.357   3.461  -4.457  0.00  0.00    -0.217 N 
ATOM      7  C   UNL     1       4.633   1.878  -4.727  0.00  0.00    +0.115 C 
ATOM      8  S   UNL     1       4.287   0.091  -4.907  0.00  0.00    -0.138 S 
ATOM      9  C   UNL     1       2.716  -0.082  -3.996  0.00  0.00    +0.166 C 
ATOM     10  C   UNL     1       2.752   0.719  -2.729  0.00  0.00    +0.231 C 
ATOM     11  O   UNL     1       3.101   0.197  -1.691  0.00  0.00    -0.274 OA
ENDROOT
BRANCH   6  12
ATOM     12  C   UNL     1       0.151   3.770  -3.813  0.00  0.00    +0.070 A 
ATOM     13  C   UNL     1      -0.694   2.751  -3.391  0.00  0.00    +0.028 A 
ATOM     14  C   UNL     1      -1.881   3.058  -2.757  0.00  0.00    +0.002 A 
ATOM     15  C   UNL     1      -2.230   4.379  -2.542  0.00  0.00    +0.000 A 
ATOM     16  C   UNL     1      -1.392   5.396  -2.960  0.00  0.00    +0.005 A 
ATOM     17  C   UNL     1      -0.200   5.095  -3.590  0.00  0.00    -0.025 A 
ATOM     18  C   UNL     1       0.716   6.203  -4.040  0.00  0.00    +0.046 C 
ENDBRANCH   6  12
BRANCH   7  19
ATOM     19  C   UNL     1       5.613   2.317  -5.784  0.00  0.00    +0.005 A 
ATOM     20  C   UNL     1       6.474   3.369  -5.534  0.00  0.00    +0.008 A 
ATOM     21  C   UNL     1       7.374   3.771  -6.503  0.00  0.00    +0.000 A 
ATOM     22  C   UNL     1       7.413   3.123  -7.723  0.00  0.00    +0.003 A 
ATOM     23  C   UNL     1       6.553   2.071  -7.975  0.00  0.00    +0.038 A 
ATOM     24  C   UNL     1       5.656   1.663  -7.003  0.00  0.00    +0.128 A 
ATOM     25  F   UNL     1       4.818   0.631  -7.247  0.00  0.00    -0.205 F 
ENDBRANCH   7  19
BRANCH   4  26
ATOM     26  C   UNL     1       3.747   3.639  -7.238  0.00  0.00    +0.007 C 
ATOM     27  C   UNL     1       3.857   2.327  -8.017  0.00  0.00    +0.017 C 
ATOM     28  C   UNL     1       3.049   4.689  -8.104  0.00  0.00    +0.017 C 
ATOM     29  C   UNL     1       5.147   4.131  -6.867  0.00  0.00    +0.017 C 
ENDBRANCH   4  26
BRANCH   1  30
ATOM     30  C   UNL     1       2.067   2.704  -1.492  0.00  0.00    +0.210 C 
BRANCH  30  32
ATOM     31  N   UNL     1       3.274   3.891   0.311  0.00  0.00    -0.311 N 
ATOM     32  C   UNL     1       3.332   3.214  -0.853  0.00  0.00    +0.231 C 
ATOM     33  O   UNL     1       4.404   3.016  -1.386  0.00  0.00    -0.274 OA
ATOM     34  H   UNL     1       2.417   4.049   0.738  0.00  0.00    +0.149 HD
BRANCH  31  35
ATOM     35  C   UNL     1       4.504   4.386   0.933  0.00  0.00    +0.070 C 
ATOM     36  C   UNL     1       5.131   3.276   1.779  0.00  0.00    +0.028 C 
BRANCH  35  38
ATOM     37  C   UNL     1       3.666   6.740   0.962  0.00  0.00    +0.005 C 
ATOM     38  C   UNL     1       4.177   5.585   1.826  0.00  0.00    +0.018 C 
ENDBRANCH  35  38
ENDBRANCH  31  35
ENDBRANCH  30  32
ENDBRANCH   1  30
TORSDOF 7
