REMARK  Name = ZINC10339097
REMARK  1 active torsions:
REMARK  status: ('A' for Active; 'I' for Inactive)
REMARK    1  A    between atoms: C_4  and  C_7
REMARK                            x       y       z     vdW  Elec       q    Type
REMARK                         _______ _______ _______ _____ _____    ______ ____
ROOT
ATOM      1  C   UNL     1      -0.947   5.279   0.054  0.00  0.00    +0.090 C 
ATOM      2  C   UNL     1      -0.510   5.870   1.360  0.00  0.00    +0.044 A 
ATOM      3  C   UNL     1      -0.162   7.215   1.450  0.00  0.00    +0.127 A 
ATOM      4  N   UNL     1       0.218   7.704   2.629  0.00  0.00    -0.200 NA
ATOM      5  C   UNL     1       0.267   6.928   3.702  0.00  0.00    +0.216 A 
ATOM      6  N   UNL     1      -0.058   5.644   3.650  0.00  0.00    -0.199 NA
ATOM      7  C   UNL     1      -0.447   5.090   2.506  0.00  0.00    +0.134 A 
ATOM      8  N   UNL     1      -0.786   3.749   2.443  0.00  0.00    -0.302 N 
ATOM      9  C   UNL     1      -0.798   3.093   1.242  0.00  0.00    +0.017 C 
ATOM     10  C   UNL     1      -0.863   3.773   0.078  0.00  0.00    +0.024 C 
ATOM     11  C   UNL     1      -0.857   3.098  -1.155  0.00  0.00    +0.162 C 
ATOM     12  O   UNL     1      -0.928   3.739  -2.185  0.00  0.00    -0.292 OA
ATOM     13  C   UNL     1      -0.764   1.599  -1.225  0.00  0.00    +0.080 C 
ATOM     14  C   UNL     1      -0.013   1.086   0.008  0.00  0.00    +0.014 C 
ATOM     15  C   UNL     1      -0.739   1.584   1.259  0.00  0.00    +0.051 C 
ATOM     16  N   UNL     1       0.667   7.473   4.909  0.00  0.00    -0.327 N 
ATOM     17  N   UNL     1      -0.209   8.032   0.331  0.00  0.00    -0.343 N 
ATOM     18  H   UNL     1      -1.018   3.272   3.255  0.00  0.00    +0.153 HD
ATOM     19  H   UNL     1       0.707   6.917   5.703  0.00  0.00    +0.145 HD
ATOM     20  H   UNL     1       0.908   8.411   4.962  0.00  0.00    +0.145 HD
ATOM     21  H   UNL     1       0.036   8.968   0.403  0.00  0.00    +0.144 HD
ATOM     22  H   UNL     1      -0.487   7.668  -0.523  0.00  0.00    +0.144 HD
ENDROOT
BRANCH   1  26
ATOM     23  C   UNL     1      -4.983   6.440  -0.728  0.00  0.00    +0.000 A 
ATOM     24  C   UNL     1      -3.974   6.823  -1.591  0.00  0.00    +0.000 A 
ATOM     25  C   UNL     1      -2.668   6.447  -1.339  0.00  0.00    +0.004 A 
ATOM     26  C   UNL     1      -2.371   5.688  -0.222  0.00  0.00    -0.035 A 
ATOM     27  C   UNL     1      -3.381   5.301   0.639  0.00  0.00    +0.004 A 
ATOM     28  C   UNL     1      -4.686   5.681   0.389  0.00  0.00    +0.000 A 
ENDBRANCH   1  26
TORSDOF 1
