REMARK  Name = ZINC02294251
REMARK  11 active torsions:
REMARK  status: ('A' for Active; 'I' for Inactive)
REMARK    1  A    between atoms: C_1  and  C_2
REMARK    2  A    between atoms: C_2  and  O_3
REMARK    3  A    between atoms: O_3  and  C_4
REMARK    4  A    between atoms: C_4  and  C_6
REMARK    5  A    between atoms: C_10  and  N_11
REMARK    6  A    between atoms: C_12  and  C_31
REMARK    7  A    between atoms: C_14  and  C_17
REMARK    8  A    between atoms: C_15  and  C_16
REMARK    9  A    between atoms: C_18  and  C_19
REMARK   10  A    between atoms: C_18  and  C_21
REMARK   11  A    between atoms: N_23  and  C_24
REMARK                            x       y       z     vdW  Elec       q    Type
REMARK                         _______ _______ _______ _____ _____    ______ ____
ROOT
ATOM      1  N   UNL     1      -1.299   0.588   4.529  0.00  0.00    -0.311 N 
ATOM      2  C   UNL     1      -1.146  -0.717   4.915  0.00  0.00    +0.022 A 
ATOM      3  C   UNL     1      -1.454  -0.832   6.217  0.00  0.00    +0.031 A 
ATOM      4  C   UNL     1      -1.840   0.510   6.677  0.00  0.00    -0.003 A 
ATOM      5  C   UNL     1      -1.720   1.339   5.575  0.00  0.00    +0.029 A 
ATOM      6  C   UNL     1      -2.006   2.819   5.544  0.00  0.00    +0.064 C 
ATOM      7  C   UNL     1      -0.698  -1.844   4.021  0.00  0.00    +0.064 C 
ENDROOT
BRANCH   1  12
ATOM      8  C   UNL     1      -1.962   1.658   2.369  0.00  0.00    +0.093 A 
ATOM      9  C   UNL     1      -1.457   2.081   1.074  0.00  0.00    -0.021 A 
ATOM     10  C   UNL     1      -0.139   1.852   0.864  0.00  0.00    -0.004 A 
ATOM     11  S   UNL     1       0.429   1.088   2.356  0.00  0.00    -0.075 S 
ATOM     12  C   UNL     1      -1.063   1.070   3.247  0.00  0.00    +0.099 A 
ATOM     13  C   UNL     1       0.649   2.175  -0.368  0.00  0.00    +0.043 C 
ATOM     14  C   UNL     1      -0.335   2.471  -1.509  0.00  0.00    +0.005 C 
ATOM     15  C   UNL     1      -1.401   3.447  -1.000  0.00  0.00    +0.005 C 
ATOM     16  C   UNL     1      -2.316   2.742   0.003  0.00  0.00    +0.037 C 
BRANCH   8  17
ATOM     17  C   UNL     1      -3.369   1.847   2.733  0.00  0.00    +0.342 C 
ATOM     18  O   UNL     1      -4.161   0.934   2.595  0.00  0.00    -0.245 OA
BRANCH  17  19
ATOM     19  O   UNL     1      -3.786   3.033   3.223  0.00  0.00    -0.461 OA
BRANCH  19  21
ATOM     20  C   UNL     1      -5.498   4.584   3.993  0.00  0.00    +0.048 C 
ATOM     21  C   UNL     1      -5.191   3.146   3.569  0.00  0.00    +0.229 C 
ENDBRANCH  19  21
ENDBRANCH  17  19
ENDBRANCH   8  17
ENDBRANCH   1  12
BRANCH   4  22
ATOM     22  C   UNL     1      -2.253   0.879   7.982  0.00  0.00    +0.033 C 
ATOM     23  C   UNL     1      -1.573   0.397   9.084  0.00  0.00    +0.114 C 
BRANCH  23  24
ATOM     24  C   UNL     1      -0.298  -0.312   8.908  0.00  0.00    +0.259 C 
ATOM     25  O   UNL     1       0.229  -0.353   7.811  0.00  0.00    -0.269 OA
ATOM     26  N   UNL     1       0.288  -0.917   9.960  0.00  0.00    -0.281 N 
ATOM     27  H   UNL     1      -0.168  -0.951  10.815  0.00  0.00    +0.155 HD
BRANCH  26  28
ATOM     28  C   UNL     1       1.554  -1.495   9.819  0.00  0.00    +0.034 A 
ATOM     29  C   UNL     1       1.883  -2.635  10.541  0.00  0.00    +0.025 A 
ATOM     30  C   UNL     1       3.131  -3.207  10.395  0.00  0.00    +0.022 A 
ATOM     31  C   UNL     1       4.058  -2.639   9.539  0.00  0.00    +0.041 A 
ATOM     32  C   UNL     1       3.736  -1.500   8.823  0.00  0.00    +0.022 A 
ATOM     33  C   UNL     1       2.486  -0.927   8.960  0.00  0.00    +0.025 A 
ATOM     34 CL   UNL     1       5.629  -3.357   9.363  0.00  0.00    -0.084 Cl
ENDBRANCH  26  28
ENDBRANCH  23  24
BRANCH  23  35
ATOM     35  C   UNL     1      -2.110   0.588  10.397  0.00  0.00    +0.104 C 
ATOM     36  N   UNL     1      -2.537   0.739  11.439  0.00  0.00    -0.191 NA
ENDBRANCH  23  35
ENDBRANCH   4  22
TORSDOF 8
