REMARK  Name = ZINC08995227
REMARK  7 active torsions:
REMARK  status: ('A' for Active; 'I' for Inactive)
REMARK    1  A    between atoms: C_1  and  C_2
REMARK    2  A    between atoms: C_2  and  C_3
REMARK    3  A    between atoms: C_2  and  C_4
REMARK    4  A    between atoms: C_2  and  C_5
REMARK    5  A    between atoms: C_5  and  C_7
REMARK    6  A    between atoms: C_9  and  C_33
REMARK    7  A    between atoms: C_36  and  N_39
REMARK                            x       y       z     vdW  Elec       q    Type
REMARK                         _______ _______ _______ _____ _____    ______ ____
ROOT
ATOM      1  C   UNL     1       1.177   2.461   0.242  0.00  0.00    +0.150 C 
ATOM      2  C   UNL     1       1.606   2.723  -1.230  0.00  0.00    +0.070 C 
ATOM      3  C   UNL     1       2.802   1.776  -1.461  0.00  0.00    +0.127 C 
ATOM      4  C   UNL     1       2.945   1.000  -0.160  0.00  0.00    +0.119 C 
ATOM      5  N   UNL     1       2.397   1.932   0.864  0.00  0.00    -0.311 N 
ATOM      6  C   UNL     1       2.293   1.276   2.067  0.00  0.00    +0.038 A 
ATOM      7  C   UNL     1       1.196   1.374   2.901  0.00  0.00    +0.024 A 
ATOM      8  C   UNL     1       1.171   0.672   4.093  0.00  0.00    +0.002 A 
ATOM      9  C   UNL     1       2.238  -0.130   4.459  0.00  0.00    +0.001 A 
ATOM     10  C   UNL     1       3.345  -0.238   3.639  0.00  0.00    +0.010 A 
ATOM     11  C   UNL     1       3.385   0.462   2.441  0.00  0.00    -0.004 A 
ATOM     12  C   UNL     1       4.554   0.382   1.533  0.00  0.00    +0.007 C 
ATOM     13  C   UNL     1       4.347   0.647   0.230  0.00  0.00    -0.003 C 
ATOM     14  C   UNL     1       2.544   0.867  -2.633  0.00  0.00    +0.180 C 
ATOM     15  O   UNL     1       1.632   0.077  -2.748  0.00  0.00    -0.291 OA
ATOM     16  C   UNL     1       3.608   1.120  -3.606  0.00  0.00    +0.029 A 
ATOM     17  C   UNL     1       3.820   0.532  -4.858  0.00  0.00    +0.012 A 
ATOM     18  C   UNL     1       4.922   0.968  -5.581  0.00  0.00    +0.001 A 
ATOM     19  C   UNL     1       5.779   1.938  -5.099  0.00  0.00    +0.001 A 
ATOM     20  C   UNL     1       5.593   2.536  -3.860  0.00  0.00    +0.012 A 
ATOM     21  C   UNL     1       4.490   2.115  -3.110  0.00  0.00    +0.029 A 
ATOM     22  C   UNL     1       4.045   2.560  -1.788  0.00  0.00    +0.180 C 
ATOM     23  O   UNL     1       4.576   3.398  -1.091  0.00  0.00    -0.291 OA
ENDROOT
BRANCH   2  24
ATOM     24  C   UNL     1       0.479   2.385  -2.173  0.00  0.00    -0.041 A 
ATOM     25  C   UNL     1       0.022   3.333  -3.070  0.00  0.00    +0.006 A 
ATOM     26  C   UNL     1      -1.008   3.022  -3.938  0.00  0.00    +0.033 A 
ATOM     27  C   UNL     1      -1.587   1.767  -3.903  0.00  0.00    +0.126 A 
ATOM     28  C   UNL     1      -1.133   0.822  -3.003  0.00  0.00    +0.033 A 
ATOM     29  C   UNL     1      -0.100   1.131  -2.138  0.00  0.00    +0.006 A 
BRANCH  27  30
ATOM     30  N   UNL     1      -2.693   1.436  -4.830  0.00  0.00    +0.056 N 
ATOM     31  O   UNL     1      -3.203   0.331  -4.798  0.00  0.00    -0.126 OA
ATOM     32  O   UNL     1      -3.092   2.269  -5.623  0.00  0.00    -0.126 OA
ENDBRANCH  27  30
ENDBRANCH   2  24
BRANCH   1  33
ATOM     33  C   UNL     1       0.067   1.443   0.298  0.00  0.00    +0.159 C 
ATOM     34  O   UNL     1       0.327   0.264   0.274  0.00  0.00    -0.295 OA
BRANCH  33  36
ATOM     35  C   UNL     1      -2.294   0.693   0.196  0.00  0.00    +0.018 C 
ATOM     36  C   UNL     1      -1.368   1.897   0.380  0.00  0.00    +0.022 C 
ATOM     37  C   UNL     1      -1.624   2.533   1.747  0.00  0.00    +0.018 C 
ATOM     38  C   UNL     1      -1.641   2.924  -0.720  0.00  0.00    +0.018 C 
ENDBRANCH  33  36
ENDBRANCH   1  33
TORSDOF 4
