REMARK  Name = ZINC15676277
REMARK  9 active torsions:
REMARK  status: ('A' for Active; 'I' for Inactive)
REMARK    1  A    between atoms: C_1  and  C_2
REMARK    2  A    between atoms: C_7  and  N_8
REMARK    3  A    between atoms: C_13  and  C_29
REMARK    4  A    between atoms: C_17  and  C_18
REMARK    5  A    between atoms: C_17  and  C_19
REMARK    6  A    between atoms: N_21  and  C_22
REMARK    7  A    between atoms: C_29  and  C_30
REMARK    8  A    between atoms: C_29  and  C_31
REMARK    9  A    between atoms: C_29  and  C_32
REMARK                            x       y       z     vdW  Elec       q    Type
REMARK                         _______ _______ _______ _____ _____    ______ ____
ROOT
ATOM      1  N   UNL     1       4.339   2.137  -5.286  0.00  0.00    -0.250 N 
ATOM      2  C   UNL     1       5.429   2.667  -5.890  0.00  0.00    +0.270 C 
ATOM      3  O   UNL     1       6.559   2.364  -5.555  0.00  0.00    -0.268 OA
ATOM      4  C   UNL     1       5.173   3.629  -6.972  0.00  0.00    +0.124 A 
ATOM      5  C   UNL     1       6.004   4.206  -7.890  0.00  0.00    +0.058 A 
ATOM      6  C   UNL     1       5.176   5.034  -8.661  0.00  0.00    +0.069 A 
ATOM      7  N   UNL     1       3.954   4.932  -8.192  0.00  0.00    -0.175 NA
ATOM      8  N   UNL     1       3.912   4.135  -7.197  0.00  0.00    -0.256 N 
ATOM      9  C   UNL     1       2.778   3.752  -6.348  0.00  0.00    +0.179 C 
ATOM     10  C   UNL     1       2.997   2.333  -5.824  0.00  0.00    +0.135 C 
ATOM     11  C   UNL     1       2.775   1.345  -6.971  0.00  0.00    +0.044 C 
ENDROOT
BRANCH   1  18
ATOM     12  C   UNL     1       4.351   3.508  -2.793  0.00  0.00    +0.045 C 
ATOM     13  C   UNL     1       4.514   2.012  -2.881  0.00  0.00    -0.029 A 
ATOM     14  C   UNL     1       4.676   1.266  -1.730  0.00  0.00    +0.006 A 
ATOM     15  C   UNL     1       4.826  -0.106  -1.809  0.00  0.00    +0.020 A 
ATOM     16  C   UNL     1       4.815  -0.737  -3.041  0.00  0.00    +0.043 A 
ATOM     17  C   UNL     1       4.649   0.004  -4.196  0.00  0.00    +0.043 A 
ATOM     18  C   UNL     1       4.503   1.383  -4.119  0.00  0.00    +0.042 A 
ATOM     19 CL   UNL     1       5.004  -2.460  -3.136  0.00  0.00    -0.083 Cl
ENDBRANCH   1  18
BRANCH  10  20
ATOM     20  C   UNL     1       1.990   2.053  -4.739  0.00  0.00    +0.239 C 
ATOM     21  O   UNL     1       1.407   2.971  -4.201  0.00  0.00    -0.273 OA
ATOM     22  N   UNL     1       1.737   0.783  -4.366  0.00  0.00    -0.311 N 
ATOM     23  H   UNL     1       2.157   0.046  -4.837  0.00  0.00    +0.149 HD
BRANCH  22  24
ATOM     24  C   UNL     1       0.828   0.515  -3.249  0.00  0.00    +0.073 C 
ATOM     25  C   UNL     1       1.603   0.670  -1.927  0.00  0.00    +0.022 C 
ATOM     26  C   UNL     1       0.888   0.008  -0.734  0.00  0.00    +0.002 C 
ATOM     27  C   UNL     1      -0.597   0.250  -0.746  0.00  0.00    +0.000 C 
ATOM     28  C   UNL     1      -1.282  -0.940  -1.448  0.00  0.00    +0.000 C 
ATOM     29  C   UNL     1      -1.209  -0.845  -2.899  0.00  0.00    +0.002 C 
ATOM     30  C   UNL     1       0.244  -0.862  -3.416  0.00  0.00    +0.022 C 
ENDBRANCH  22  24
ENDBRANCH  10  20
BRANCH   6  31
ATOM     31  C   UNL     1       5.612   5.890  -9.822  0.00  0.00    +0.006 C 
ATOM     32  C   UNL     1       5.865   5.003 -11.043  0.00  0.00    +0.017 C 
ATOM     33  C   UNL     1       4.515   6.905 -10.147  0.00  0.00    +0.017 C 
ATOM     34  C   UNL     1       6.900   6.630  -9.454  0.00  0.00    +0.017 C 
ENDBRANCH   6  31
TORSDOF 4
