REMARK  Name = ZINC01990745
REMARK  13 active torsions:
REMARK  status: ('A' for Active; 'I' for Inactive)
REMARK    1  A    between atoms: C_1  and  C_2
REMARK    2  A    between atoms: C_2  and  C_3
REMARK    3  A    between atoms: C_6  and  O_10
REMARK    4  A    between atoms: O_10  and  C_11
REMARK    5  A    between atoms: C_11  and  C_12
REMARK    6  A    between atoms: N_14  and  C_15
REMARK    7  A    between atoms: C_16  and  C_29
REMARK    8  A    between atoms: C_21  and  C_25
REMARK    9  A    between atoms: C_25  and  C_26
REMARK   10  A    between atoms: C_25  and  C_27
REMARK   11  A    between atoms: C_25  and  C_28
REMARK   12  A    between atoms: C_29  and  O_31
REMARK   13  A    between atoms: O_31  and  C_32
REMARK                            x       y       z     vdW  Elec       q    Type
REMARK                         _______ _______ _______ _____ _____    ______ ____
ROOT
ATOM      1  C   UNL     1      -3.567   5.923   8.208  0.00  0.00    +0.086 A 
ATOM      2  C   UNL     1      -3.483   7.038   9.031  0.00  0.00    +0.091 A 
ATOM      3  C   UNL     1      -4.393   7.107  10.162  0.00  0.00    -0.021 A 
ATOM      4  C   UNL     1      -5.227   6.054  10.295  0.00  0.00    -0.004 A 
ATOM      5  S   UNL     1      -4.825   4.985   8.942  0.00  0.00    -0.077 S 
ATOM      6  C   UNL     1      -6.261   5.848  11.359  0.00  0.00    +0.046 C 
ATOM      7  C   UNL     1      -6.496   7.189  12.070  0.00  0.00    -0.000 C 
ATOM      8  C   UNL     1      -5.140   7.804  12.425  0.00  0.00    +0.009 C 
ATOM      9  C   UNL     1      -4.428   8.266  11.152  0.00  0.00    +0.037 C 
ENDROOT
BRANCH   1  12
ATOM     10  C   UNL     1      -3.042   4.483   6.404  0.00  0.00    +0.255 C 
ATOM     11  O   UNL     1      -3.894   3.709   6.786  0.00  0.00    -0.272 OA
ATOM     12  N   UNL     1      -2.821   5.629   7.078  0.00  0.00    -0.277 N 
ATOM     13  H   UNL     1      -2.048   6.331   6.731  0.00  0.00    +0.155 HD
BRANCH  10  14
ATOM     14  C   UNL     1      -2.231   4.163   5.175  0.00  0.00    +0.325 C 
BRANCH  14  15
ATOM     15  O   UNL     1      -2.649   2.904   4.642  0.00  0.00    -0.482 OA
BRANCH  15  19
ATOM     16  C   UNL     1      -0.718   1.572   1.248  0.00  0.00    -0.046 A 
ATOM     17  C   UNL     1      -0.359   2.779   1.818  0.00  0.00    +0.007 A 
ATOM     18  C   UNL     1      -1.008   3.230   2.951  0.00  0.00    +0.047 A 
ATOM     19  C   UNL     1      -2.013   2.465   3.524  0.00  0.00    +0.135 A 
ATOM     20  C   UNL     1      -2.368   1.251   2.954  0.00  0.00    +0.060 A 
ATOM     21  C   UNL     1      -1.719   0.807   1.817  0.00  0.00    +0.022 A 
ATOM     22 BR   UNL     1      -3.737   0.204   3.732  0.00  0.00    -0.047 Br
BRANCH  16  24
ATOM     23  C   UNL     1      -0.753   1.593  -1.232  0.00  0.00    +0.009 C 
ATOM     24  C   UNL     1      -0.013   1.086   0.008  0.00  0.00    +0.032 C 
ENDBRANCH  16  24
ENDBRANCH  15  19
ENDBRANCH  14  15
ENDBRANCH  10  14
ENDBRANCH   1  12
BRANCH   7  25
ATOM     25  C   UNL     1      -7.305   6.957  13.348  0.00  0.00    -0.035 C 
ATOM     26  C   UNL     1      -6.532   6.017  14.276  0.00  0.00    +0.011 C 
ATOM     27  C   UNL     1      -7.538   8.294  14.054  0.00  0.00    +0.011 C 
ATOM     28  C   UNL     1      -8.653   6.327  12.991  0.00  0.00    +0.011 C 
ENDBRANCH   7  25
BRANCH   2  29
ATOM     29  C   UNL     1      -2.518   8.107   8.767  0.00  0.00    +0.342 C 
ATOM     30  O   UNL     1      -2.828   9.046   8.059  0.00  0.00    -0.245 OA
BRANCH  29  31
ATOM     31  O   UNL     1      -1.283   8.050   9.308  0.00  0.00    -0.464 OA
ATOM     32  C   UNL     1      -0.379   9.144   9.002  0.00  0.00    +0.280 C 
ENDBRANCH  29  31
ENDBRANCH   2  29
TORSDOF 8
