REMARK  Name = ZINC39965469
REMARK  10 active torsions:
REMARK  status: ('A' for Active; 'I' for Inactive)
REMARK    1  A    between atoms: C_1  and  N_2
REMARK    2  A    between atoms: C_3  and  C_27
REMARK    3  A    between atoms: C_6  and  S_7
REMARK    4  A    between atoms: S_7  and  C_8
REMARK    5  A    between atoms: C_8  and  C_9
REMARK    6  A    between atoms: N_11  and  C_12
REMARK    7  A    between atoms: C_13  and  C_23
REMARK    8  A    between atoms: C_15  and  C_17
REMARK    9  A    between atoms: C_23  and  O_25
REMARK   10  A    between atoms: O_25  and  C_26
REMARK                            x       y       z     vdW  Elec       q    Type
REMARK                         _______ _______ _______ _____ _____    ______ ____
ROOT
ATOM      1  C   UNL     1       0.520  -1.630   5.146  0.00  0.00    +0.228 C 
ATOM      2  O   UNL     1       0.536  -0.485   5.547  0.00  0.00    -0.275 OA
ATOM      3  N   UNL     1       0.624  -2.651   6.020  0.00  0.00    -0.279 N 
ATOM      4  H   UNL     1       0.612  -3.566   5.699  0.00  0.00    +0.155 HD
ENDROOT
BRANCH   3   5
ATOM      5  C   UNL     1       0.749  -2.393   7.375  0.00  0.00    +0.086 A 
ATOM      6  C   UNL     1       0.872  -3.309   8.414  0.00  0.00    +0.088 A 
ATOM      7  C   UNL     1       0.986  -2.801   9.711  0.00  0.00    +0.033 A 
ATOM      8  C   UNL     1       0.965  -1.446   9.832  0.00  0.00    +0.022 A 
ATOM      9  S   UNL     1       0.794  -0.902   8.145  0.00  0.00    -0.073 S 
BRANCH   8  10
ATOM     10  C   UNL     1       1.064  -0.628  11.060  0.00  0.00    -0.011 A 
ATOM     11  C   UNL     1       1.206  -1.246  12.304  0.00  0.00    +0.009 A 
ATOM     12  C   UNL     1       1.298  -0.476  13.445  0.00  0.00    +0.001 A 
ATOM     13  C   UNL     1       1.250   0.904  13.359  0.00  0.00    +0.000 A 
ATOM     14  C   UNL     1       1.109   1.522  12.129  0.00  0.00    +0.001 A 
ATOM     15  C   UNL     1       1.022   0.765  10.979  0.00  0.00    +0.009 A 
ENDBRANCH   8  10
BRANCH   6  16
ATOM     16  C   UNL     1       0.882  -4.752   8.159  0.00  0.00    +0.341 C 
ATOM     17  O   UNL     1       0.782  -5.169   7.021  0.00  0.00    -0.245 OA
BRANCH  16  18
ATOM     18  O   UNL     1       1.003  -5.617   9.187  0.00  0.00    -0.464 OA
ATOM     19  C   UNL     1       1.006  -7.010   8.865  0.00  0.00    +0.280 C 
ENDBRANCH  16  18
ENDBRANCH   6  16
ENDBRANCH   3   5
BRANCH   1  20
ATOM     20  C   UNL     1       0.385  -1.910   3.672  0.00  0.00    +0.173 C 
BRANCH  20  21
ATOM     21  S   UNL     1       0.267  -0.343   2.767  0.00  0.00    -0.077 S 
BRANCH  21  27
ATOM     22  C   UNL     1      -0.033   1.460   0.011  0.00  0.00    +0.153 C 
ATOM     23  N   UNL     1      -0.004  -0.004   0.003  0.00  0.00    -0.305 N 
ATOM     24  C   UNL     1      -0.087  -0.831  -1.094  0.00  0.00    +0.165 A 
ATOM     25  N   UNL     1      -0.023  -2.065  -0.652  0.00  0.00    -0.128 NA
ATOM     26  N   UNL     1       0.093  -2.067   0.628  0.00  0.00    -0.122 NA
ATOM     27  C   UNL     1       0.115  -0.834   1.081  0.00  0.00    +0.192 A 
BRANCH  24  28
ATOM     28  C   UNL     1      -0.223  -0.409  -2.504  0.00  0.00    +0.023 A 
ATOM     29  C   UNL     1      -0.718  -1.300  -3.457  0.00  0.00    +0.015 A 
ATOM     30  C   UNL     1      -0.844  -0.904  -4.772  0.00  0.00    +0.050 A 
ATOM     31  C   UNL     1      -0.480   0.379  -5.153  0.00  0.00    +0.166 A 
ATOM     32  C   UNL     1       0.015   1.274  -4.206  0.00  0.00    +0.167 A 
ATOM     33  C   UNL     1       0.139   0.885  -2.885  0.00  0.00    +0.061 A 
ATOM     34  O   UNL     1       0.296   2.456  -4.829  0.00  0.00    -0.453 OA
ATOM     35  C   UNL     1       0.354   2.146  -6.234  0.00  0.00    +0.466 C 
ATOM     36  O   UNL     1      -0.509   1.002  -6.368  0.00  0.00    -0.453 OA
ENDBRANCH  24  28
ENDBRANCH  21  27
ENDBRANCH  20  21
ENDBRANCH   1  20
TORSDOF 8
