REMARK  Name = ZINC64230991
REMARK  13 active torsions:
REMARK  status: ('A' for Active; 'I' for Inactive)
REMARK    1  A    between atoms: C_1  and  C_2
REMARK    2  A    between atoms: C_2  and  O_3
REMARK    3  A    between atoms: O_3  and  C_4
REMARK    4  A    between atoms: C_6  and  N_28
REMARK    5  A    between atoms: C_7  and  O_25
REMARK    6  A    between atoms: C_9  and  N_10
REMARK    7  A    between atoms: N_10  and  C_11
REMARK    8  A    between atoms: C_11  and  C_13
REMARK    9  A    between atoms: C_11  and  C_14
REMARK   10  A    between atoms: C_14  and  C_16
REMARK   11  A    between atoms: O_25  and  C_26
REMARK   12  A    between atoms: C_26  and  C_27
REMARK   13  A    between atoms: C_29  and  C_31
REMARK                            x       y       z     vdW  Elec       q    Type
REMARK                         _______ _______ _______ _____ _____    ______ ____
ROOT
ATOM      1  C   UNL     1      -1.488  -1.843  -0.021  0.00  0.00    +0.143 A 
ATOM      2  C   UNL     1      -0.381  -2.675  -0.020  0.00  0.00    +0.074 A 
ATOM      3  C   UNL     1      -0.549  -4.053  -0.018  0.00  0.00    +0.079 A 
ATOM      4  C   UNL     1      -1.831  -4.598  -0.018  0.00  0.00    +0.144 A 
ATOM      5  C   UNL     1      -2.937  -3.766  -0.019  0.00  0.00    +0.074 A 
ATOM      6  C   UNL     1      -2.769  -2.388  -0.015  0.00  0.00    +0.074 A 
ENDROOT
BRANCH   3   7
ATOM      7  N   UNL     1       0.572  -4.896  -0.018  0.00  0.00    -0.278 N 
ATOM      8  C   UNL     1       1.747  -4.454   0.471  0.00  0.00    +0.248 C 
ATOM      9  O   UNL     1       1.812  -3.362   1.003  0.00  0.00    -0.270 OA
ATOM     10  H   UNL     1       0.501  -5.797  -0.370  0.00  0.00    +0.155 HD
BRANCH   8  11
ATOM     11  C   UNL     1       2.957  -5.295   0.360  0.00  0.00    +0.037 A 
ATOM     12  C   UNL     1       2.887  -6.546  -0.255  0.00  0.00    +0.013 A 
ATOM     13  C   UNL     1       4.020  -7.327  -0.355  0.00  0.00    +0.001 A 
ATOM     14  C   UNL     1       5.224  -6.872   0.153  0.00  0.00    +0.000 A 
ATOM     15  C   UNL     1       5.301  -5.633   0.764  0.00  0.00    +0.001 A 
ATOM     16  C   UNL     1       4.176  -4.840   0.866  0.00  0.00    +0.013 A 
ENDBRANCH   8  11
ENDBRANCH   3   7
BRANCH   6  17
ATOM     17  N   UNL     1      -3.889  -1.546  -0.010  0.00  0.00    -0.331 N 
ATOM     18  H   UNL     1      -3.772  -0.583  -0.011  0.00  0.00    +0.147 HD
BRANCH  17  19
ATOM     19  C   UNL     1      -5.238  -2.119  -0.004  0.00  0.00    +0.138 C 
ATOM     20  C   UNL     1      -5.664  -2.435  -1.438  0.00  0.00    +0.036 C 
BRANCH  19  21
ATOM     21  C   UNL     1      -6.201  -1.131   0.601  0.00  0.00    +0.181 C 
ATOM     22  O   UNL     1      -5.909   0.047   0.654  0.00  0.00    -0.290 OA
BRANCH  21  23
ATOM     23  C   UNL     1      -7.442  -1.574   1.105  0.00  0.00    +0.025 C 
ATOM     24  C   UNL     1      -8.435  -0.801   1.682  0.00  0.00    +0.006 A 
ATOM     25  C   UNL     1      -8.544   0.584   1.947  0.00  0.00    +0.010 A 
ATOM     26  C   UNL     1      -9.655   1.079   2.537  0.00  0.00    +0.001 A 
ATOM     27  C   UNL     1     -10.737   0.266   2.909  0.00  0.00    +0.002 A 
ATOM     28  C   UNL     1     -10.733  -1.068   2.701  0.00  0.00    +0.026 A 
ATOM     29  C   UNL     1      -9.560  -1.689   2.063  0.00  0.00    +0.043 A 
ATOM     30  N   UNL     1      -9.294  -2.925   1.749  0.00  0.00    -0.380 N 
ATOM     31  C   UNL     1      -7.970  -2.991   1.122  0.00  0.00    +0.152 C 
ATOM     32  H   UNL     1      -9.880  -3.682   1.902  0.00  0.00    +0.160 HD
ENDBRANCH  21  23
ENDBRANCH  19  21
ENDBRANCH  17  19
ENDBRANCH   6  17
BRANCH   1  33
ATOM     33  O   UNL     1      -1.324  -0.492  -0.022  0.00  0.00    -0.490 OA
BRANCH  33  35
ATOM     34  C   UNL     1       0.003   1.528  -0.029  0.00  0.00    +0.048 C 
ATOM     35  C   UNL     1       0.019  -0.002  -0.029  0.00  0.00    +0.226 C 
ENDBRANCH  33  35
ENDBRANCH   1  33
BRANCH   4  36
ATOM     36  O   UNL     1      -1.995  -5.949  -0.016  0.00  0.00    -0.490 OA
BRANCH  36  37
ATOM     37  C   UNL     1      -3.337  -6.439  -0.016  0.00  0.00    +0.226 C 
ATOM     38  C   UNL     1      -3.322  -7.968  -0.014  0.00  0.00    +0.048 C 
ENDBRANCH  36  37
ENDBRANCH   4  36
TORSDOF 10
