REMARK  Name = ZINC62589961
REMARK  7 active torsions:
REMARK  status: ('A' for Active; 'I' for Inactive)
REMARK    1  A    between atoms: C_6  and  C_7
REMARK    2  A    between atoms: C_9  and  C_12
REMARK    3  A    between atoms: N_17  and  C_19
REMARK    4  A    between atoms: C_19  and  C_20
REMARK    5  A    between atoms: C_20  and  C_21
REMARK    6  A    between atoms: N_23  and  C_24
REMARK    7  A    between atoms: C_25  and  C_34
REMARK                            x       y       z     vdW  Elec       q    Type
REMARK                         _______ _______ _______ _____ _____    ______ ____
ROOT
ATOM      1  C   UNL     1      -3.170  -3.859   0.020  0.00  0.00    +0.061 C 
ATOM      2  C   UNL     1      -4.037  -4.082  -1.222  0.00  0.00    +0.009 C 
ATOM      3  C   UNL     1      -4.632  -5.492  -1.172  0.00  0.00    -0.018 C 
ATOM      4  C   UNL     1      -5.426  -5.658   0.126  0.00  0.00    -0.079 C 
ATOM      5  N   UNL     1      -4.536  -5.459   1.277  0.00  0.00    +0.381 N 
ATOM      6  C   UNL     1      -4.017  -4.086   1.274  0.00  0.00    -0.066 C 
ATOM      7  H   UNL     1      -3.766  -6.108   1.221  0.00  0.00    -0.082 HD
ENDROOT
BRANCH   1  10
ATOM      8  C   UNL     1      -1.272  -0.765   0.011  0.00  0.00    +0.202 A 
ATOM      9  N   UNL     1      -1.384  -2.106   0.010  0.00  0.00    -0.191 NA
ATOM     10  C   UNL     1      -2.641  -2.448   0.019  0.00  0.00    +0.229 A 
ATOM     11  O   UNL     1      -3.384  -1.333   0.026  0.00  0.00    -0.337 OA
ATOM     12  N   UNL     1      -2.474  -0.244   0.026  0.00  0.00    -0.056 NA
BRANCH   8  18
ATOM     13  C   UNL     1      -0.017   1.389   0.010  0.00  0.00    +0.014 A 
ATOM     14  C   UNL     1       1.170   2.093   0.002  0.00  0.00    +0.039 A 
ATOM     15  C   UNL     1       2.379   1.417  -0.013  0.00  0.00    +0.123 A 
ATOM     16  C   UNL     1       2.402   0.031  -0.021  0.00  0.00    +0.039 A 
ATOM     17  C   UNL     1       1.220  -0.680  -0.013  0.00  0.00    +0.014 A 
ATOM     18  C   UNL     1       0.002  -0.004   0.002  0.00  0.00    +0.023 A 
ATOM     19  F   UNL     1       3.538   2.110  -0.022  0.00  0.00    -0.205 F 
ENDBRANCH   8  18
ENDBRANCH   1  10
BRANCH   5  20
ATOM     20  C   UNL     1      -5.284  -5.696   2.519  0.00  0.00    -0.070 C 
BRANCH  20  21
ATOM     21  C   UNL     1      -5.711  -7.163   2.585  0.00  0.00    +0.077 C 
BRANCH  21  22
ATOM     22  C   UNL     1      -6.478  -7.406   3.859  0.00  0.00    +0.216 C 
ATOM     23  O   UNL     1      -6.665  -6.495   4.637  0.00  0.00    -0.276 OA
ATOM     24  N   UNL     1      -6.956  -8.636   4.133  0.00  0.00    -0.279 N 
ATOM     25  H   UNL     1      -6.807  -9.365   3.511  0.00  0.00    +0.155 HD
BRANCH  24  26
ATOM     26  C   UNL     1      -7.663  -8.860   5.307  0.00  0.00    +0.090 A 
ATOM     27  C   UNL     1      -8.218 -10.046   5.753  0.00  0.00    +0.084 A 
ATOM     28  C   UNL     1      -8.917 -10.021   7.029  0.00  0.00    -0.018 A 
ATOM     29  C   UNL     1      -8.935  -8.807   7.619  0.00  0.00    -0.004 A 
ATOM     30  S   UNL     1      -8.035  -7.755   6.514  0.00  0.00    -0.077 S 
ATOM     31  C   UNL     1      -9.579  -8.430   8.917  0.00  0.00    +0.043 C 
ATOM     32  C   UNL     1      -9.175  -9.446   9.993  0.00  0.00    +0.005 C 
ATOM     33  C   UNL     1     -10.185 -10.589   9.988  0.00  0.00    +0.001 C 
ATOM     34  C   UNL     1     -10.701 -10.831   8.571  0.00  0.00    +0.005 C 
ATOM     35  C   UNL     1      -9.559 -11.253   7.652  0.00  0.00    +0.037 C 
BRANCH  27  36
ATOM     36  C   UNL     1      -8.108 -11.252   4.988  0.00  0.00    +0.102 C 
ATOM     37  N   UNL     1      -8.022 -12.209   4.382  0.00  0.00    -0.191 NA
ENDBRANCH  27  36
ENDBRANCH  24  26
ENDBRANCH  21  22
ENDBRANCH  20  21
ENDBRANCH   5  20
TORSDOF 7
