REMARK  Name = ZINC35743736
REMARK  12 active torsions:
REMARK  status: ('A' for Active; 'I' for Inactive)
REMARK    1  A    between atoms: C_1  and  C_2
REMARK    2  A    between atoms: C_5  and  C_8
REMARK    3  A    between atoms: N_10  and  C_11
REMARK    4  A    between atoms: N_10  and  C_18
REMARK    5  A    between atoms: C_11  and  C_12
REMARK    6  A    between atoms: C_12  and  C_13
REMARK    7  A    between atoms: C_13  and  C_14
REMARK    8  A    between atoms: C_14  and  C_15
REMARK    9  A    between atoms: C_15  and  C_16
REMARK   10  A    between atoms: C_16  and  N_17
REMARK   11  A    between atoms: C_18  and  C_20
REMARK   12  A    between atoms: C_18  and  C_21
REMARK                            x       y       z     vdW  Elec       q    Type
REMARK                         _______ _______ _______ _____ _____    ______ ____
ROOT
ATOM      1  C   UNL     1      -1.111  -3.267   0.568  0.00  0.00    +0.247 C 
ATOM      2  O   UNL     1      -2.080  -3.460  -0.140  0.00  0.00    -0.270 OA
ATOM      3  N   UNL     1      -0.433  -4.312   1.082  0.00  0.00    -0.288 N 
ENDROOT
BRANCH   1   8
ATOM      4  C   UNL     1       0.585   2.111   1.718  0.00  0.00    +0.044 C 
ATOM      5  C   UNL     1       0.141   0.703   1.417  0.00  0.00    -0.050 A 
ATOM      6  C   UNL     1      -0.323   0.382   0.154  0.00  0.00    +0.004 A 
ATOM      7  C   UNL     1      -0.731  -0.905  -0.129  0.00  0.00    +0.013 A 
ATOM      8  C   UNL     1      -0.675  -1.885   0.863  0.00  0.00    +0.037 A 
ATOM      9  C   UNL     1      -0.206  -1.555   2.136  0.00  0.00    +0.013 A 
ATOM     10  C   UNL     1       0.204  -0.266   2.404  0.00  0.00    +0.004 A 
ENDBRANCH   1   8
BRANCH   3  11
ATOM     11  C   UNL     1       0.172  -4.209   2.412  0.00  0.00    +0.139 C 
ATOM     12  C   UNL     1       1.264  -3.136   2.394  0.00  0.00    +0.036 C 
BRANCH  11  13
ATOM     13  C   UNL     1      -0.885  -3.833   3.418  0.00  0.00    +0.131 A 
ATOM     14  N   UNL     1      -0.498  -3.582   4.696  0.00  0.00    -0.309 N 
ATOM     15  H   UNL     1       0.439  -3.648   4.936  0.00  0.00    +0.170 HD
ATOM     16  C   UNL     1      -1.409  -3.240   5.637  0.00  0.00    +0.259 A 
ATOM     17  O   UNL     1      -1.077  -3.012   6.785  0.00  0.00    -0.267 OA
ATOM     18  C   UNL     1      -2.816  -3.154   5.217  0.00  0.00    +0.065 A 
ATOM     19  C   UNL     1      -3.831  -2.811   6.108  0.00  0.00    +0.015 A 
ATOM     20  C   UNL     1      -5.133  -2.746   5.661  0.00  0.00    +0.001 A 
ATOM     21  C   UNL     1      -5.439  -3.020   4.334  0.00  0.00    +0.002 A 
ATOM     22  C   UNL     1      -4.450  -3.361   3.439  0.00  0.00    +0.028 A 
ATOM     23  C   UNL     1      -3.123  -3.433   3.867  0.00  0.00    +0.078 A 
ATOM     24  N   UNL     1      -2.118  -3.760   3.018  0.00  0.00    -0.232 NA
ENDBRANCH  11  13
ENDBRANCH   3  11
BRANCH   3  25
ATOM     25  C   UNL     1      -0.302  -5.551   0.312  0.00  0.00    +0.109 C 
BRANCH  25  26
ATOM     26  C   UNL     1       0.961  -5.485  -0.549  0.00  0.00    +0.019 C 
BRANCH  26  27
ATOM     27  C   UNL     1       1.097  -6.779  -1.354  0.00  0.00    +0.001 C 
BRANCH  27  28
ATOM     28  C   UNL     1       2.360  -6.713  -2.215  0.00  0.00    -0.002 C 
BRANCH  28  29
ATOM     29  C   UNL     1       2.497  -8.007  -3.020  0.00  0.00    -0.020 C 
BRANCH  29  30
ATOM     30  C   UNL     1       3.760  -7.941  -3.881  0.00  0.00    -0.086 C 
BRANCH  30  31
ATOM     31  N   UNL     1       3.891  -9.184  -4.654  0.00  0.00    +0.378 N 
ATOM     32  H   UNL     1       3.084  -9.297  -5.248  0.00  0.00    -0.090 HD
ATOM     33  H   UNL     1       4.724  -9.140  -5.222  0.00  0.00    -0.090 HD
ATOM     34  H   UNL     1       3.955  -9.968  -4.022  0.00  0.00    -0.090 HD
ENDBRANCH  30  31
ENDBRANCH  29  30
ENDBRANCH  28  29
ENDBRANCH  27  28
ENDBRANCH  26  27
ENDBRANCH  25  26
ENDBRANCH   3  25
TORSDOF 10
