REMARK  Name = ZINC59186752
REMARK  4 active torsions:
REMARK  status: ('A' for Active; 'I' for Inactive)
REMARK    1  A    between atoms: C_4  and  C_7
REMARK    2  A    between atoms: N_9  and  C_10
REMARK    3  A    between atoms: C_10  and  C_31
REMARK    4  A    between atoms: N_18  and  C_23
REMARK                            x       y       z     vdW  Elec       q    Type
REMARK                         _______ _______ _______ _____ _____    ______ ____
ROOT
ATOM      1  C   UNL     1       6.118  -3.425  -0.901  0.00  0.00    +0.242 C 
ATOM      2  C   UNL     1       5.281  -4.537  -0.313  0.00  0.00    +0.094 C 
ATOM      3  C   UNL     1       4.129  -5.153  -0.686  0.00  0.00    +0.253 C 
ATOM      4  O   UNL     1       3.493  -4.778  -1.815  0.00  0.00    -0.270 OA
ATOM      5  N   UNL     1       3.617  -6.159   0.094  0.00  0.00    -0.236 N 
ATOM      6  H   UNL     1       2.795  -6.601  -0.168  0.00  0.00    +0.159 HD
ATOM      7  C   UNL     1       4.249  -6.534   1.221  0.00  0.00    +0.318 C 
ATOM      8  O   UNL     1       3.777  -7.428   1.897  0.00  0.00    -0.251 OA
ATOM      9  N   UNL     1       5.391  -5.943   1.615  0.00  0.00    -0.209 N 
ATOM     10  C   UNL     1       5.944  -4.925   0.861  0.00  0.00    +0.137 C 
ATOM     11  N   UNL     1       7.044  -4.200   1.039  0.00  0.00    -0.162 NA
ATOM     12  C   UNL     1       7.257  -3.301   0.093  0.00  0.00    +0.275 C 
ATOM     13  O   UNL     1       8.189  -2.521   0.032  0.00  0.00    -0.271 OA
ENDROOT
BRANCH   9  14
ATOM     14  C   UNL     1       6.021  -6.360   2.795  0.00  0.00    +0.046 A 
ATOM     15  C   UNL     1       5.698  -5.760   4.005  0.00  0.00    +0.027 A 
ATOM     16  C   UNL     1       6.320  -6.172   5.168  0.00  0.00    +0.041 A 
ATOM     17  C   UNL     1       7.266  -7.182   5.127  0.00  0.00    +0.142 A 
ATOM     18  C   UNL     1       7.591  -7.782   3.921  0.00  0.00    +0.078 A 
ATOM     19  C   UNL     1       6.966  -7.376   2.756  0.00  0.00    +0.046 A 
ATOM     20 CL   UNL     1       8.779  -9.047   3.873  0.00  0.00    -0.081 Cl
ATOM     21  F   UNL     1       7.874  -7.583   6.265  0.00  0.00    -0.204 F 
ENDBRANCH   9  14
BRANCH   1  24
ATOM     22  C   UNL     1       5.950  -1.040  -1.368  0.00  0.00    +0.245 C 
ATOM     23  O   UNL     1       7.128  -1.046  -1.670  0.00  0.00    -0.270 OA
ATOM     24  N   UNL     1       5.351  -2.179  -0.970  0.00  0.00    -0.287 N 
ATOM     25  H   UNL     1       4.411  -2.174  -0.729  0.00  0.00    +0.151 HD
BRANCH  22  29
ATOM     26  C   UNL     1       3.725   2.573  -1.569  0.00  0.00    +0.000 A 
ATOM     27  C   UNL     1       5.065   2.569  -1.913  0.00  0.00    +0.001 A 
ATOM     28  C   UNL     1       5.794   1.399  -1.850  0.00  0.00    +0.013 A 
ATOM     29  C   UNL     1       5.176   0.218  -1.438  0.00  0.00    +0.037 A 
ATOM     30  C   UNL     1       3.824   0.228  -1.092  0.00  0.00    +0.013 A 
ATOM     31  C   UNL     1       3.107   1.405  -1.160  0.00  0.00    +0.001 A 
ENDBRANCH  22  29
ENDBRANCH   1  24
BRANCH   1  32
ATOM     32  C   UNL     1       6.646  -3.812  -2.284  0.00  0.00    +0.424 C 
ATOM     33  F   UNL     1       7.463  -2.788  -2.774  0.00  0.00    -0.167 F 
ATOM     34  F   UNL     1       7.386  -4.994  -2.186  0.00  0.00    -0.167 F 
ATOM     35  F   UNL     1       5.569  -4.006  -3.156  0.00  0.00    -0.167 F 
ENDBRANCH   1  32
TORSDOF 4
