REMARK  Name = ZINC17939704
REMARK  8 active torsions:
REMARK  status: ('A' for Active; 'I' for Inactive)
REMARK    1  A    between atoms: C_1  and  C_2
REMARK    2  A    between atoms: C_5  and  C_8
REMARK    3  A    between atoms: C_10  and  C_13
REMARK    4  A    between atoms: C_13  and  O_15
REMARK    5  A    between atoms: O_15  and  C_16
REMARK    6  A    between atoms: C_16  and  C_18
REMARK    7  A    between atoms: C_16  and  C_19
REMARK    8  A    between atoms: N_21  and  C_22
REMARK                            x       y       z     vdW  Elec       q    Type
REMARK                         _______ _______ _______ _____ _____    ______ ____
ROOT
ATOM      1  C   UNL     1       3.616  -2.036   0.062  0.00  0.00    +0.258 C 
ATOM      2  O   UNL     1       2.568  -2.646   0.069  0.00  0.00    -0.271 OA
ATOM      3  N   UNL     1       3.613  -0.692  -0.034  0.00  0.00    -0.282 N 
ATOM      4  H   UNL     1       4.451  -0.209  -0.107  0.00  0.00    +0.155 HD
ENDROOT
BRANCH   3   5
ATOM      5  C   UNL     1       2.408   0.003  -0.028  0.00  0.00    +0.045 A 
ATOM      6  C   UNL     1       1.278  -0.548  -0.631  0.00  0.00    +0.024 A 
ATOM      7  C   UNL     1       0.081   0.137  -0.627  0.00  0.00    +0.003 A 
ATOM      8  C   UNL     1      -0.017   1.382  -0.024  0.00  0.00    +0.012 A 
ATOM      9  C   UNL     1       1.096   1.950   0.583  0.00  0.00    +0.035 A 
ATOM     10  C   UNL     1       2.323   1.258   0.583  0.00  0.00    +0.054 A 
ATOM     11  C   UNL     1       3.504   1.862   1.226  0.00  0.00    +0.196 C 
ATOM     12  O   UNL     1       4.490   1.189   1.456  0.00  0.00    -0.287 OA
ATOM     13  C   UNL     1       3.476   3.296   1.588  0.00  0.00    +0.033 A 
ATOM     14  C   UNL     1       4.647   3.965   1.926  0.00  0.00    +0.012 A 
ATOM     15  C   UNL     1       4.602   5.307   2.262  0.00  0.00    +0.001 A 
ATOM     16  C   UNL     1       3.398   5.989   2.263  0.00  0.00    +0.001 A 
ATOM     17  C   UNL     1       2.223   5.339   1.929  0.00  0.00    +0.012 A 
ATOM     18  C   UNL     1       2.252   3.990   1.590  0.00  0.00    +0.033 A 
ATOM     19  C   UNL     1       1.006   3.278   1.228  0.00  0.00    +0.195 C 
ATOM     20  O   UNL     1      -0.077   3.778   1.459  0.00  0.00    -0.287 OA
ENDBRANCH   3   5
BRANCH   1  21
ATOM     21  C   UNL     1       4.922  -2.782   0.161  0.00  0.00    +0.259 C 
ATOM     22  C   UNL     1       5.713  -2.599  -1.136  0.00  0.00    +0.062 C 
BRANCH  21  23
ATOM     23  O   UNL     1       4.658  -4.194   0.372  0.00  0.00    -0.448 OA
BRANCH  23  24
ATOM     24  C   UNL     1       5.575  -4.889   1.073  0.00  0.00    +0.359 C 
ATOM     25  O   UNL     1       6.568  -4.331   1.497  0.00  0.00    -0.243 OA
BRANCH  24  28
ATOM     26  C   UNL     1       4.128  -8.234   1.103  0.00  0.00    +0.109 A 
ATOM     27  N   UNL     1       4.294  -6.945   0.874  0.00  0.00    -0.232 NA
ATOM     28  C   UNL     1       5.375  -6.325   1.326  0.00  0.00    +0.155 A 
ATOM     29  C   UNL     1       6.308  -7.051   2.045  0.00  0.00    +0.082 A 
ATOM     30  S   UNL     1       5.593  -8.634   2.042  0.00  0.00    -0.075 S 
BRANCH  26  35
ATOM     31  C   UNL     1      -0.205 -11.669  -0.494  0.00  0.00    +0.044 C 
ATOM     32  C   UNL     1       0.930 -10.770  -0.076  0.00  0.00    -0.050 A 
ATOM     33  C   UNL     1       1.983 -11.285   0.659  0.00  0.00    +0.004 A 
ATOM     34  C   UNL     1       3.024 -10.467   1.044  0.00  0.00    +0.011 A 
ATOM     35  C   UNL     1       3.014  -9.117   0.693  0.00  0.00    +0.007 A 
ATOM     36  C   UNL     1       1.946  -8.602  -0.043  0.00  0.00    +0.011 A 
ATOM     37  C   UNL     1       0.914  -9.432  -0.428  0.00  0.00    +0.004 A 
ENDBRANCH  26  35
ENDBRANCH  24  28
ENDBRANCH  23  24
ENDBRANCH  21  23
ENDBRANCH   1  21
TORSDOF 6
