REMARK  Name = ZINC36309234
REMARK  19 active torsions:
REMARK  status: ('A' for Active; 'I' for Inactive)
REMARK    1  A    between atoms: C_1  and  C_2
REMARK    2  A    between atoms: C_2  and  C_3
REMARK    3  A    between atoms: C_3  and  N_4
REMARK    4  A    between atoms: N_4  and  C_5
REMARK    5  A    between atoms: N_4  and  C_14
REMARK    6  A    between atoms: C_5  and  C_6
REMARK    7  A    between atoms: C_6  and  C_8
REMARK    8  A    between atoms: C_6  and  O_13
REMARK    9  A    between atoms: C_8  and  O_9
REMARK   10  A    between atoms: O_9  and  C_10
REMARK   11  A    between atoms: C_10  and  C_11
REMARK   12  A    between atoms: C_10  and  C_12
REMARK   13  A    between atoms: C_14  and  C_15
REMARK   14  A    between atoms: C_25  and  C_27
REMARK   15  A    between atoms: C_27  and  O_28
REMARK   16  A    between atoms: O_28  and  C_29
REMARK   17  A    between atoms: C_32  and  C_35
REMARK   18  A    between atoms: C_35  and  C_36
REMARK   19  A    between atoms: C_35  and  C_37
REMARK                            x       y       z     vdW  Elec       q    Type
REMARK                         _______ _______ _______ _____ _____    ______ ____
ROOT
ATOM      1  C   UNL     1      -1.296  -1.833  -0.044  0.00  0.00    +0.200 C 
ATOM      2  O   UNL     1      -0.711  -1.139   0.761  0.00  0.00    -0.278 OA
ATOM      3  N   UNL     1      -2.607  -2.097   0.120  0.00  0.00    -0.292 N 
ATOM      4  C   UNL     1      -3.325  -2.942  -0.846  0.00  0.00    +0.113 C 
ATOM      5  C   UNL     1      -3.780  -4.220  -0.124  0.00  0.00    +0.061 C 
ATOM      6  C   UNL     1      -4.324  -3.845   1.216  0.00  0.00    -0.004 A 
ATOM      7  C   UNL     1      -4.158  -2.674   1.888  0.00  0.00    -0.014 A 
ATOM      8  C   UNL     1      -4.769  -2.578   3.138  0.00  0.00    +0.013 A 
ATOM      9  C   UNL     1      -5.487  -3.617   3.622  0.00  0.00    +0.046 A 
ATOM     10  S   UNL     1      -5.335  -4.815   2.305  0.00  0.00    -0.101 S 
ATOM     11  C   UNL     1      -3.339  -1.548   1.271  0.00  0.00    +0.144 C 
ENDROOT
BRANCH   1  12
ATOM     12  C   UNL     1      -0.556  -2.401  -1.227  0.00  0.00    +0.019 C 
BRANCH  12  13
ATOM     13  N   UNL     1       0.877  -2.102  -1.099  0.00  0.00    +0.387 N 
ATOM     14  H   UNL     1       1.001  -1.111  -0.953  0.00  0.00    -0.081 HD
BRANCH  13  15
ATOM     15  C   UNL     1       1.574  -2.508  -2.326  0.00  0.00    -0.078 C 
BRANCH  15  17
ATOM     16  C   UNL     1       1.921  -1.968  -4.741  0.00  0.00    +0.002 C 
ATOM     17  C   UNL     1       1.092  -1.647  -3.495  0.00  0.00    -0.022 C 
ENDBRANCH  15  17
ENDBRANCH  13  15
BRANCH  13  18
ATOM     18  C   UNL     1       1.430  -2.838   0.045  0.00  0.00    -0.044 C 
BRANCH  18  19
ATOM     19  C   UNL     1       2.890  -2.432   0.256  0.00  0.00    +0.124 C 
BRANCH  19  20
ATOM     20  O   UNL     1       2.952  -1.054   0.628  0.00  0.00    -0.391 OA
ATOM     21  H   UNL     1       2.477  -0.845   1.444  0.00  0.00    +0.210 HD
ENDBRANCH  19  20
BRANCH  19  22
ATOM     22  C   UNL     1       3.503  -3.288   1.366  0.00  0.00    +0.189 C 
BRANCH  22  23
ATOM     23  O   UNL     1       4.896  -2.990   1.483  0.00  0.00    -0.375 OA
BRANCH  23  24
ATOM     24  C   UNL     1       5.567  -3.740   2.498  0.00  0.00    +0.112 C 
ATOM     25  C   UNL     1       7.029  -3.946   2.096  0.00  0.00    +0.037 C 
ATOM     26  C   UNL     1       5.505  -2.975   3.822  0.00  0.00    +0.037 C 
ENDBRANCH  23  24
ENDBRANCH  22  23
ENDBRANCH  19  22
ENDBRANCH  18  19
ENDBRANCH  13  18
ENDBRANCH  12  13
ENDBRANCH   1  12
BRANCH  11  27
ATOM     27  C   UNL     1      -4.273  -0.429   0.805  0.00  0.00    +0.256 C 
BRANCH  27  28
ATOM     28  O   UNL     1      -5.277  -0.973  -0.053  0.00  0.00    -0.490 OA
BRANCH  28  29
ATOM     29  C   UNL     1      -6.194  -0.106  -0.557  0.00  0.00    +0.121 A 
ATOM     30  C   UNL     1      -6.124   1.242  -0.237  0.00  0.00    +0.046 A 
ATOM     31  C   UNL     1      -7.057   2.122  -0.752  0.00  0.00    +0.007 A 
ATOM     32  C   UNL     1      -8.059   1.660  -1.584  0.00  0.00    -0.045 A 
ATOM     33  C   UNL     1      -8.131   0.317  -1.904  0.00  0.00    +0.007 A 
ATOM     34  C   UNL     1      -7.198  -0.566  -1.397  0.00  0.00    +0.046 A 
BRANCH  32  35
ATOM     35  C   UNL     1      -9.076   2.622  -2.143  0.00  0.00    +0.013 C 
ATOM     36  C   UNL     1      -9.010   2.602  -3.672  0.00  0.00    +0.012 C 
ATOM     37  C   UNL     1     -10.476   2.207  -1.687  0.00  0.00    +0.012 C 
ENDBRANCH  32  35
ENDBRANCH  28  29
ENDBRANCH  27  28
ENDBRANCH  11  27
TORSDOF 14
