REMARK  Name = ZINC08694240
REMARK  14 active torsions:
REMARK  status: ('A' for Active; 'I' for Inactive)
REMARK    1  A    between atoms: C_1  and  C_2
REMARK    2  A    between atoms: C_2  and  N_3
REMARK    3  A    between atoms: N_3  and  C_4
REMARK    4  A    between atoms: N_3  and  C_6
REMARK    5  A    between atoms: C_4  and  C_5
REMARK    6  A    between atoms: C_9  and  C_12
REMARK    7  A    between atoms: C_12  and  C_13
REMARK    8  A    between atoms: C_12  and  C_27
REMARK    9  A    between atoms: C_14  and  C_26
REMARK   10  A    between atoms: N_15  and  C_25
REMARK   11  A    between atoms: N_16  and  C_19
REMARK   12  A    between atoms: C_28  and  C_40
REMARK   13  A    between atoms: N_29  and  C_39
REMARK   14  A    between atoms: N_30  and  C_33
REMARK                            x       y       z     vdW  Elec       q    Type
REMARK                         _______ _______ _______ _____ _____    ______ ____
ROOT
ATOM      1  C   UNL     1       0.162  -0.129  -0.275  0.00  0.00    +0.093 C 
ENDROOT
BRANCH   1   2
ATOM      2  C   UNL     1      -0.696  -1.096   0.501  0.00  0.00    +0.051 A 
ATOM      3  C   UNL     1      -0.268  -2.217   1.115  0.00  0.00    +0.042 A 
ATOM      4  N   UNL     1      -1.340  -2.822   1.707  0.00  0.00    -0.284 N 
ATOM      5  N   UNL     1      -2.477  -2.045   1.450  0.00  0.00    -0.217 N 
ATOM      6  C   UNL     1      -2.089  -0.982   0.716  0.00  0.00    +0.276 A 
ATOM      7  O   UNL     1      -2.809  -0.088   0.309  0.00  0.00    -0.266 OA
ATOM      8  C   UNL     1      -1.306  -4.067   2.478  0.00  0.00    +0.171 C 
ATOM      9  C   UNL     1       1.153  -2.719   1.143  0.00  0.00    +0.065 C 
BRANCH   5  10
ATOM     10  C   UNL     1      -3.779  -2.319   1.881  0.00  0.00    +0.067 A 
ATOM     11  C   UNL     1      -4.836  -2.263   0.983  0.00  0.00    +0.028 A 
ATOM     12  C   UNL     1      -6.120  -2.540   1.411  0.00  0.00    +0.002 A 
ATOM     13  C   UNL     1      -6.354  -2.861   2.736  0.00  0.00    +0.000 A 
ATOM     14  C   UNL     1      -5.304  -2.912   3.634  0.00  0.00    +0.002 A 
ATOM     15  C   UNL     1      -4.018  -2.642   3.211  0.00  0.00    +0.028 A 
ENDBRANCH   5  10
ENDBRANCH   1   2
BRANCH   1  16
ATOM     16  C   UNL     1      -0.202  -0.195  -1.736  0.00  0.00    +0.051 A 
ATOM     17  C   UNL     1       0.357   0.532  -2.724  0.00  0.00    +0.042 A 
ATOM     18  N   UNL     1      -0.240   0.188  -3.904  0.00  0.00    -0.284 N 
ATOM     19  N   UNL     1      -1.208  -0.789  -3.636  0.00  0.00    -0.217 N 
ATOM     20  C   UNL     1      -1.186  -1.033  -2.309  0.00  0.00    +0.276 A 
ATOM     21  O   UNL     1      -1.889  -1.830  -1.714  0.00  0.00    -0.266 OA
ATOM     22  C   UNL     1       0.076   0.745  -5.221  0.00  0.00    +0.171 C 
ATOM     23  C   UNL     1       1.456   1.550  -2.557  0.00  0.00    +0.065 C 
BRANCH  19  24
ATOM     24  C   UNL     1      -2.041  -1.405  -4.575  0.00  0.00    +0.067 A 
ATOM     25  C   UNL     1      -3.405  -1.509  -4.333  0.00  0.00    +0.028 A 
ATOM     26  C   UNL     1      -4.226  -2.113  -5.265  0.00  0.00    +0.002 A 
ATOM     27  C   UNL     1      -3.690  -2.623  -6.433  0.00  0.00    +0.000 A 
ATOM     28  C   UNL     1      -2.332  -2.526  -6.675  0.00  0.00    +0.002 A 
ATOM     29  C   UNL     1      -1.506  -1.919  -5.749  0.00  0.00    +0.028 A 
ENDBRANCH  19  24
ENDBRANCH   1  16
BRANCH   1  33
ATOM     30  C   UNL     1      -0.491   3.837   1.179  0.00  0.00    +0.030 A 
ATOM     31  C   UNL     1       0.616   3.113   1.604  0.00  0.00    +0.023 A 
ATOM     32  C   UNL     1       0.824   1.832   1.132  0.00  0.00    +0.006 A 
ATOM     33  C   UNL     1      -0.069   1.269   0.238  0.00  0.00    -0.035 A 
ATOM     34  C   UNL     1      -1.169   1.989  -0.191  0.00  0.00    +0.006 A 
ATOM     35  C   UNL     1      -1.386   3.268   0.281  0.00  0.00    +0.023 A 
BRANCH  30  36
ATOM     36  N   UNL     1      -0.705   5.133   1.654  0.00  0.00    -0.330 N 
BRANCH  36  38
ATOM     37  C   UNL     1      -3.047   5.630   2.149  0.00  0.00    +0.024 C 
ATOM     38  C   UNL     1      -1.873   5.894   1.205  0.00  0.00    +0.102 C 
ENDBRANCH  36  38
BRANCH  36  39
ATOM     39  C   UNL     1       0.240   5.731   2.601  0.00  0.00    +0.102 C 
ATOM     40  C   UNL     1       1.337   6.468   1.830  0.00  0.00    +0.024 C 
ENDBRANCH  36  39
ENDBRANCH  30  36
ENDBRANCH   1  33
TORSDOF 8
