REMARK  Name = ZINC28650003
REMARK  13 active torsions:
REMARK  status: ('A' for Active; 'I' for Inactive)
REMARK    1  A    between atoms: C_1  and  C_2
REMARK    2  A    between atoms: C_2  and  C_3
REMARK    3  A    between atoms: C_2  and  N_4
REMARK    4  A    between atoms: N_4  and  C_5
REMARK    5  A    between atoms: N_4  and  C_36
REMARK    6  A    between atoms: C_5  and  C_6
REMARK    7  A    between atoms: C_6  and  N_7
REMARK    8  A    between atoms: N_7  and  C_8
REMARK    9  A    between atoms: C_12  and  C_17
REMARK   10  A    between atoms: C_21  and  C_23
REMARK   11  A    between atoms: N_27  and  C_28
REMARK   12  A    between atoms: C_36  and  C_37
REMARK   13  A    between atoms: C_37  and  O_38
REMARK                            x       y       z     vdW  Elec       q    Type
REMARK                         _______ _______ _______ _____ _____    ______ ____
ROOT
ATOM      1  N   UNL     1       3.107  -1.923   1.707  0.00  0.00    -0.284 N 
ATOM      2  C   UNL     1       4.422  -2.151   1.523  0.00  0.00    +0.307 C 
ATOM      3  O   UNL     1       4.866  -2.275   0.398  0.00  0.00    -0.252 OA
ATOM      4  N   UNL     1       5.246  -2.243   2.586  0.00  0.00    -0.269 N 
ATOM      5  H   UNL     1       4.831  -2.246   3.604  0.00  0.00    +0.156 HD
ENDROOT
BRANCH   4   6
ATOM      6  C   UNL     1       6.625  -2.334   2.394  0.00  0.00    +0.040 A 
ATOM      7  C   UNL     1       7.236  -1.723   1.300  0.00  0.00    +0.063 A 
ATOM      8  C   UNL     1       8.604  -1.832   1.147  0.00  0.00    +0.133 A 
ATOM      9  N   UNL     1       9.330  -2.513   2.017  0.00  0.00    -0.224 NA
ATOM     10  C   UNL     1       8.787  -3.109   3.062  0.00  0.00    +0.133 A 
ATOM     11  C   UNL     1       7.426  -3.042   3.288  0.00  0.00    +0.063 A 
ATOM     12 CL   UNL     1       9.796  -3.989   4.168  0.00  0.00    -0.062 Cl
ATOM     13 CL   UNL     1       9.380  -1.071  -0.206  0.00  0.00    -0.062 Cl
ENDBRANCH   4   6
BRANCH   1  14
ATOM     14  C   UNL     1       2.592  -1.656   3.053  0.00  0.00    +0.078 C 
ATOM     15  C   UNL     1       1.646  -2.786   3.475  0.00  0.00    +0.023 C 
ATOM     16  C   UNL     1       1.337  -2.693   4.950  0.00  0.00    +0.013 C 
ATOM     17  C   UNL     1       0.859  -1.299   5.327  0.00  0.00    -0.001 C 
ATOM     18  C   UNL     1      -0.270  -0.689   4.568  0.00  0.00    +0.016 C 
ATOM     19  C   UNL     1       1.149  -0.121   4.410  0.00  0.00    +0.002 C 
ATOM     20  C   UNL     1       1.811  -0.342   3.051  0.00  0.00    +0.027 C 
BRANCH  17  21
ATOM     21  C   UNL     1       0.902  -1.008   6.806  0.00  0.00    -0.040 A 
ATOM     22  C   UNL     1       2.035  -0.446   7.366  0.00  0.00    +0.004 A 
ATOM     23  C   UNL     1       2.081  -0.171   8.721  0.00  0.00    +0.002 A 
ATOM     24  C   UNL     1       1.000  -0.467   9.525  0.00  0.00    +0.019 A 
ATOM     25  C   UNL     1      -0.145  -1.039   8.967  0.00  0.00    +0.052 A 
ATOM     26  C   UNL     1      -0.186  -1.309   7.598  0.00  0.00    +0.023 A 
BRANCH  25  27
ATOM     27  C   UNL     1      -1.271  -1.349   9.796  0.00  0.00    +0.099 C 
ATOM     28  N   UNL     1      -2.164  -1.595  10.453  0.00  0.00    -0.191 NA
ENDBRANCH  25  27
ENDBRANCH  17  21
ENDBRANCH   1  14
BRANCH   1  29
ATOM     29  C   UNL     1       2.193  -1.942   0.563  0.00  0.00    +0.091 C 
BRANCH  29  30
ATOM     30  C   UNL     1       2.092  -0.536  -0.033  0.00  0.00    -0.059 C 
BRANCH  30  31
ATOM     31  N   UNL     1       1.175  -0.556  -1.180  0.00  0.00    +0.384 N 
ATOM     32  H   UNL     1       1.499  -1.359  -1.858  0.00  0.00    -0.081 HD
BRANCH  31  34
ATOM     33  C   UNL     1      -1.046  -1.216  -1.973  0.00  0.00    -0.014 C 
ATOM     34  C   UNL     1      -0.199  -0.853  -0.752  0.00  0.00    -0.075 C 
ATOM     35  C   UNL     1      -0.795   0.376  -0.063  0.00  0.00    -0.014 C 
ENDBRANCH  31  34
BRANCH  31  36
ATOM     36  C   UNL     1       1.232   0.711  -1.921  0.00  0.00    -0.050 C 
BRANCH  36  37
ATOM     37  C   UNL     1       2.556   0.797  -2.683  0.00  0.00    +0.137 C 
BRANCH  37  38
ATOM     38  O   UNL     1       2.590  -0.212  -3.694  0.00  0.00    -0.397 OA
ATOM     39  H   UNL     1       3.470  -0.306  -4.348  0.00  0.00    +0.209 HD
ENDBRANCH  37  38
ENDBRANCH  36  37
ENDBRANCH  31  36
ENDBRANCH  30  31
ENDBRANCH  29  30
ENDBRANCH   1  29
TORSDOF 11
