REMARK  Name = ZINC15517969
REMARK  8 active torsions:
REMARK  status: ('A' for Active; 'I' for Inactive)
REMARK    1  A    between atoms: C_1  and  C_2
REMARK    2  A    between atoms: C_4  and  C_30
REMARK    3  A    between atoms: C_6  and  N_8
REMARK    4  A    between atoms: C_9  and  S_13
REMARK    5  A    between atoms: S_13  and  C_14
REMARK    6  A    between atoms: C_14  and  C_15
REMARK    7  A    between atoms: N_20  and  C_21
REMARK    8  A    between atoms: C_27  and  C_29
REMARK                            x       y       z     vdW  Elec       q    Type
REMARK                         _______ _______ _______ _____ _____    ______ ____
ROOT
ATOM      1  C   UNL     1       0.034   4.228   0.024  0.00  0.00    +0.173 C 
ENDROOT
BRANCH   1   2
ATOM      2  C   UNL     1       0.185   5.728   0.029  0.00  0.00    +0.231 C 
ATOM      3  O   UNL     1       1.290   6.226   0.021  0.00  0.00    -0.274 OA
ATOM      4  N   UNL     1      -0.910   6.515   0.044  0.00  0.00    -0.239 N 
ATOM      5  C   UNL     1      -0.775   7.856   0.049  0.00  0.00    +0.306 C 
ATOM      6  O   UNL     1       0.333   8.355   0.041  0.00  0.00    -0.252 OA
ATOM      7  N   UNL     1      -1.869   8.643   0.064  0.00  0.00    -0.296 N 
ATOM      8  H   UNL     1      -1.794   6.116   0.051  0.00  0.00    +0.159 HD
ATOM      9  H   UNL     1      -2.754   8.244   0.070  0.00  0.00    +0.151 HD
BRANCH   7  10
ATOM     10  C   UNL     1      -1.724  10.100   0.069  0.00  0.00    +0.077 C 
ATOM     11  C   UNL     1      -1.534  10.588   1.507  0.00  0.00    +0.022 C 
ATOM     12  C   UNL     1      -1.381  12.111   1.513  0.00  0.00    +0.002 C 
ATOM     13  C   UNL     1      -2.637  12.751   0.919  0.00  0.00    +0.000 C 
ATOM     14  C   UNL     1      -2.827  12.263  -0.519  0.00  0.00    +0.005 C 
ATOM     15  C   UNL     1      -2.979  10.741  -0.525  0.00  0.00    +0.006 C 
ATOM     16  C   UNL     1      -3.169  10.253  -1.962  0.00  0.00    +0.009 C 
ENDBRANCH   7  10
ENDBRANCH   1   2
BRANCH   1  17
ATOM     17  S   UNL     1       1.672   3.458   0.004  0.00  0.00    -0.075 S 
BRANCH  17  19
ATOM     18  N   UNL     1       2.052   0.693  -0.014  0.00  0.00    -0.187 N 
ATOM     19  C   UNL     1       1.210   1.758  -0.000  0.00  0.00    +0.214 A 
ATOM     20  N   UNL     1      -0.015   1.280   0.009  0.00  0.00    -0.101 NA
ATOM     21  N   UNL     1       0.002  -0.004   0.002  0.00  0.00    -0.022 NA
ATOM     22  N   UNL     1       1.216  -0.437  -0.012  0.00  0.00    -0.038 NA
BRANCH  18  28
ATOM     23  C   UNL     1       6.239   2.817  -1.481  0.00  0.00    +0.044 C 
ATOM     24  C   UNL     1       5.508   1.734  -0.731  0.00  0.00    -0.048 A 
ATOM     25  C   UNL     1       6.220   0.760  -0.056  0.00  0.00    +0.006 A 
ATOM     26  C   UNL     1       5.553  -0.236   0.633  0.00  0.00    -0.048 A 
ATOM     27  C   UNL     1       4.172  -0.261   0.649  0.00  0.00    +0.031 A 
ATOM     28  C   UNL     1       3.454   0.716  -0.028  0.00  0.00    +0.070 A 
ATOM     29  C   UNL     1       4.127   1.712  -0.723  0.00  0.00    +0.031 A 
ATOM     30  C   UNL     1       6.333  -1.296   1.367  0.00  0.00    +0.044 C 
ENDBRANCH  18  28
ENDBRANCH  17  19
ENDBRANCH   1  17
TORSDOF 5
