REMARK  Name = ZINC20915785
REMARK  6 active torsions:
REMARK  status: ('A' for Active; 'I' for Inactive)
REMARK    1  A    between atoms: C_8  and  C_24
REMARK    2  A    between atoms: C_9  and  C_10
REMARK    3  A    between atoms: C_10  and  N_11
REMARK    4  A    between atoms: N_11  and  C_12
REMARK    5  A    between atoms: C_12  and  C_13
REMARK    6  A    between atoms: C_13  and  N_18
REMARK                            x       y       z     vdW  Elec       q    Type
REMARK                         _______ _______ _______ _____ _____    ______ ____
ROOT
ATOM      1  C   UNL     1       0.052   1.117  -0.261  0.00  0.00    +0.005 A 
ATOM      2  C   UNL     1       1.242   1.866  -0.231  0.00  0.00    +0.018 A 
ATOM      3  C   UNL     1       2.438   1.245  -0.199  0.00  0.00    +0.093 A 
ATOM      4  N   UNL     1       2.514  -0.120  -0.194  0.00  0.00    -0.302 N 
ATOM      5  C   UNL     1       1.370  -0.879  -0.222  0.00  0.00    +0.139 A 
ATOM      6  C   UNL     1       0.111  -0.240  -0.257  0.00  0.00    +0.047 A 
ATOM      7  N   UNL     1       1.716  -2.155  -0.211  0.00  0.00    -0.223 NA
ATOM      8  C   UNL     1       3.058  -2.245  -0.175  0.00  0.00    +0.149 A 
ATOM      9  C   UNL     1       3.570  -0.979  -0.164  0.00  0.00    +0.069 A 
ENDROOT
BRANCH   8  10
ATOM     10  C   UNL     1       3.842  -3.496  -0.152  0.00  0.00    +0.267 C 
ATOM     11  O   UNL     1       5.056  -3.452  -0.120  0.00  0.00    -0.268 OA
ATOM     12  N   UNL     1       3.211  -4.687  -0.166  0.00  0.00    -0.296 N 
ATOM     13  C   UNL     1       1.754  -4.884  -0.211  0.00  0.00    +0.108 C 
ATOM     14  C   UNL     1       1.497  -6.405  -0.185  0.00  0.00    +0.020 C 
ATOM     15  C   UNL     1       2.800  -6.968   0.443  0.00  0.00    +0.020 C 
ATOM     16  C   UNL     1       3.866  -6.007  -0.146  0.00  0.00    +0.108 C 
ENDBRANCH   8  10
BRANCH   9  17
ATOM     17  C   UNL     1       5.029  -0.603  -0.128  0.00  0.00    +0.137 C 
BRANCH  17  18
ATOM     18  N   UNL     1       5.468  -0.477   1.268  0.00  0.00    -0.312 NA
ATOM     19  H   UNL     1       4.896   0.187   1.768  0.00  0.00    +0.122 HD
BRANCH  18  20
ATOM     20  C   UNL     1       6.888  -0.111   1.343  0.00  0.00    +0.069 C 
BRANCH  20  21
ATOM     21  C   UNL     1       7.307   0.010   2.810  0.00  0.00    -0.053 C 
ATOM     22  C   UNL     1       6.605   1.220   3.462  0.00  0.00    -0.011 C 
ATOM     23  C   UNL     1       7.672   1.808   4.418  0.00  0.00    -0.001 C 
ATOM     24  C   UNL     1       8.984   1.637   3.612  0.00  0.00    -0.001 C 
ATOM     25  C   UNL     1       8.820   0.276   2.906  0.00  0.00    -0.011 C 
BRANCH  21  26
ATOM     26  N   UNL     1       6.966  -1.222   3.534  0.00  0.00    +0.384 N 
ATOM     27  C   UNL     1       7.310  -1.065   4.952  0.00  0.00    -0.078 C 
ATOM     28  C   UNL     1       6.882  -2.314   5.726  0.00  0.00    -0.019 C 
ATOM     29  C   UNL     1       7.608  -3.535   5.154  0.00  0.00    -0.004 C 
ATOM     30  C   UNL     1       7.301  -3.646   3.658  0.00  0.00    -0.019 C 
ATOM     31  C   UNL     1       7.713  -2.347   2.961  0.00  0.00    -0.078 C 
ATOM     32  H   UNL     1       5.976  -1.398   3.447  0.00  0.00    -0.081 HD
ENDBRANCH  21  26
ENDBRANCH  20  21
ENDBRANCH  18  20
ENDBRANCH  17  18
ENDBRANCH   9  17
TORSDOF 6
