REMARK  Name = ZINC53073907
REMARK  5 active torsions:
REMARK  status: ('A' for Active; 'I' for Inactive)
REMARK    1  A    between atoms: C_1  and  C_2
REMARK    2  A    between atoms: C_5  and  C_7
REMARK    3  A    between atoms: N_9  and  C_10
REMARK    4  A    between atoms: C_10  and  C_16
REMARK    5  A    between atoms: C_16  and  O_17
REMARK                            x       y       z     vdW  Elec       q    Type
REMARK                         _______ _______ _______ _____ _____    ______ ____
ROOT
ATOM      1  C   UNL     1       2.686  -2.276   0.882  0.00  0.00    +0.280 C 
ATOM      2  O   UNL     1       3.374  -2.364   1.882  0.00  0.00    -0.267 OA
ATOM      3  N   UNL     1       2.872  -3.133  -0.142  0.00  0.00    -0.301 N 
ATOM      4  H   UNL     1       2.277  -3.110  -0.907  0.00  0.00    +0.150 HD
ENDROOT
BRANCH   1   9
ATOM      5  C   UNL     1      -1.046   0.546  -0.902  0.00  0.00    +0.086 C 
ATOM      6  C   UNL     1       0.020   0.003   0.015  0.00  0.00    +0.103 A 
ATOM      7  C   UNL     1       0.317   0.478   1.244  0.00  0.00    +0.045 A 
ATOM      8  C   UNL     1       1.363  -0.310   1.750  0.00  0.00    +0.055 A 
ATOM      9  C   UNL     1       1.655  -1.238   0.791  0.00  0.00    +0.189 A 
ATOM     10  O   UNL     1       0.825  -1.034  -0.253  0.00  0.00    -0.455 OA
ENDBRANCH   1   9
BRANCH   3  11
ATOM     11  C   UNL     1       3.973  -4.099  -0.098  0.00  0.00    +0.058 C 
ATOM     12  C   UNL     1       3.989  -4.912  -1.394  0.00  0.00    +0.028 C 
ATOM     13  C   UNL     1       4.183  -3.971  -2.584  0.00  0.00    +0.002 C 
ATOM     14  C   UNL     1       5.511  -3.225  -2.434  0.00  0.00    +0.000 C 
ATOM     15  C   UNL     1       5.494  -2.412  -1.138  0.00  0.00    +0.002 C 
ATOM     16  C   UNL     1       5.300  -3.353   0.052  0.00  0.00    +0.028 C 
BRANCH  11  17
ATOM     17  C   UNL     1       3.779  -5.040   1.093  0.00  0.00    +0.181 C 
BRANCH  17  18
ATOM     18  O   UNL     1       2.505  -5.679   0.991  0.00  0.00    -0.393 OA
ATOM     19  H   UNL     1       2.314  -6.292   1.715  0.00  0.00    +0.209 HD
ENDBRANCH  17  18
ENDBRANCH  11  17
ENDBRANCH   3  11
TORSDOF 4
