REMARK  Name = ZINC21722888
REMARK  8 active torsions:
REMARK  status: ('A' for Active; 'I' for Inactive)
REMARK    1  A    between atoms: C_1  and  C_2
REMARK    2  A    between atoms: C_2  and  C_3
REMARK    3  A    between atoms: C_3  and  N_4
REMARK    4  A    between atoms: C_17  and  C_19
REMARK    5  A    between atoms: C_22  and  O_25
REMARK    6  A    between atoms: O_25  and  C_26
REMARK    7  A    between atoms: C_30  and  C_32
REMARK    8  A    between atoms: C_30  and  C_33
REMARK                            x       y       z     vdW  Elec       q    Type
REMARK                         _______ _______ _______ _____ _____    ______ ____
ROOT
ATOM      1  N   UNL     1       3.691  -1.361   1.641  0.00  0.00    -0.299 N 
ATOM      2  C   UNL     1       3.440  -0.066   1.367  0.00  0.00    +0.307 C 
ATOM      3  O   UNL     1       3.820   0.801   2.131  0.00  0.00    -0.252 OA
ATOM      4  N   UNL     1       2.769   0.269   0.247  0.00  0.00    -0.242 N 
ATOM      5  C   UNL     1       2.340  -0.736  -0.621  0.00  0.00    +0.060 A 
ATOM      6  C   UNL     1       3.241  -1.496  -1.349  0.00  0.00    +0.025 A 
ATOM      7  C   UNL     1       2.768  -2.406  -2.278  0.00  0.00    +0.002 A 
ATOM      8  C   UNL     1       1.408  -2.560  -2.478  0.00  0.00    +0.002 A 
ATOM      9  C   UNL     1       0.505  -1.818  -1.737  0.00  0.00    +0.025 A 
ATOM     10  C   UNL     1       0.976  -0.919  -0.796  0.00  0.00    +0.053 A 
ATOM     11  N   UNL     1       0.125  -0.175   0.013  0.00  0.00    -0.316 N 
ATOM     12  C   UNL     1       0.011   1.177  -0.022  0.00  0.00    +0.017 C 
ATOM     13  C   UNL     1       1.043   2.036  -0.035  0.00  0.00    +0.037 C 
ATOM     14  C   UNL     1       2.507   1.664  -0.035  0.00  0.00    +0.148 C 
ATOM     15  C   UNL     1       0.808   3.432  -0.037  0.00  0.00    +0.163 C 
ATOM     16  O   UNL     1       1.761   4.186  -0.066  0.00  0.00    -0.292 OA
ATOM     17  C   UNL     1      -0.573   4.015  -0.004  0.00  0.00    +0.086 C 
ATOM     18  C   UNL     1      -1.510   3.019   0.690  0.00  0.00    -0.023 C 
ATOM     19  C   UNL     1      -1.418   1.692  -0.062  0.00  0.00    +0.058 C 
ATOM     20  C   UNL     1      -1.075   2.824   2.143  0.00  0.00    +0.011 C 
ATOM     21  C   UNL     1      -2.947   3.542   0.644  0.00  0.00    +0.011 C 
ATOM     22  H   UNL     1       3.349  -2.146   0.950  0.00  0.00    +0.150 HD
ATOM     23  H   UNL     1      -0.519  -0.682   0.746  0.00  0.00    +0.152 HD
ENDROOT
BRANCH  14  24
ATOM     24  C   UNL     1       3.084   1.996  -1.387  0.00  0.00    -0.022 A 
ATOM     25  C   UNL     1       4.045   2.983  -1.503  0.00  0.00    +0.009 A 
ATOM     26  C   UNL     1       4.580   3.285  -2.741  0.00  0.00    +0.046 A 
ATOM     27  C   UNL     1       4.144   2.604  -3.868  0.00  0.00    +0.120 A 
ATOM     28  C   UNL     1       3.176   1.618  -3.749  0.00  0.00    +0.046 A 
ATOM     29  C   UNL     1       2.648   1.316  -2.509  0.00  0.00    +0.009 A 
BRANCH  27  30
ATOM     30  O   UNL     1       4.666   2.902  -5.087  0.00  0.00    -0.495 OA
ATOM     31  C   UNL     1       5.659   3.929  -5.135  0.00  0.00    +0.277 C 
ENDBRANCH  27  30
ENDBRANCH  14  24
BRANCH   1  32
ATOM     32  C   UNL     1       4.421  -1.725   2.858  0.00  0.00    +0.105 C 
BRANCH  32  34
ATOM     33  C   UNL     1       5.332  -3.626   4.200  0.00  0.00    +0.005 C 
ATOM     34  C   UNL     1       4.570  -3.246   2.928  0.00  0.00    +0.015 C 
ENDBRANCH  32  34
ENDBRANCH   1  32
TORSDOF 4
