REMARK  Name = ZINC06805589
REMARK  8 active torsions:
REMARK  status: ('A' for Active; 'I' for Inactive)
REMARK    1  A    between atoms: C_1  and  C_2
REMARK    2  A    between atoms: C_5  and  N_8
REMARK    3  A    between atoms: C_9  and  C_11
REMARK    4  A    between atoms: C_11  and  C_12
REMARK    5  A    between atoms: C_12  and  C_13
REMARK    6  A    between atoms: N_22  and  C_23
REMARK    7  A    between atoms: C_23  and  C_24
REMARK    8  A    between atoms: C_24  and  C_25
REMARK                            x       y       z     vdW  Elec       q    Type
REMARK                         _______ _______ _______ _____ _____    ______ ____
ROOT
ATOM      1  C   UNL     1       1.198   7.343  -8.220  0.00  0.00    +0.156 A 
ATOM      2  N   UNL     1       2.437   7.551  -8.591  0.00  0.00    -0.132 NA
ATOM      3  N   UNL     1       3.249   7.021  -7.745  0.00  0.00    -0.128 NA
ATOM      4  C   UNL     1       2.554   6.440  -6.779  0.00  0.00    +0.178 A 
ATOM      5  N   UNL     1       1.227   6.638  -7.069  0.00  0.00    -0.195 N 
ATOM      6  N   UNL     1       0.242   6.129  -6.221  0.00  0.00    -0.148 NA
ATOM      7  C   UNL     1       0.573   5.467  -5.137  0.00  0.00    +0.140 A 
ATOM      8  C   UNL     1       1.926   5.246  -4.811  0.00  0.00    +0.049 A 
ATOM      9  C   UNL     1       2.909   5.725  -5.620  0.00  0.00    +0.053 A 
ATOM     10  N   UNL     1      -0.423   4.973  -4.302  0.00  0.00    -0.327 N 
ATOM     11  H   UNL     1      -1.357   5.122  -4.521  0.00  0.00    +0.148 HD
ENDROOT
BRANCH   1  12
ATOM     12  C   UNL     1      -0.038   7.808  -8.946  0.00  0.00    +0.087 C 
BRANCH  12  13
ATOM     13  C   UNL     1      -0.476   6.736  -9.946  0.00  0.00    +0.104 C 
BRANCH  13  15
ATOM     14  N   UNL     1      -2.281   6.413 -11.606  0.00  0.00    -0.285 N 
ATOM     15  C   UNL     1      -1.712   7.200 -10.672  0.00  0.00    +0.218 C 
ATOM     16  O   UNL     1      -2.195   8.283 -10.416  0.00  0.00    -0.275 OA
ATOM     17  H   UNL     1      -1.858   5.577 -11.859  0.00  0.00    +0.155 HD
BRANCH  14  22
ATOM     18  C   UNL     1      -7.149   7.984 -14.060  0.00  0.00    +0.044 C 
ATOM     19  C   UNL     1      -5.856   7.567 -13.408  0.00  0.00    -0.050 A 
ATOM     20  C   UNL     1      -4.918   8.522 -13.061  0.00  0.00    +0.005 A 
ATOM     21  C   UNL     1      -3.732   8.143 -12.464  0.00  0.00    +0.023 A 
ATOM     22  C   UNL     1      -3.481   6.800 -12.211  0.00  0.00    +0.033 A 
ATOM     23  C   UNL     1      -4.423   5.843 -12.566  0.00  0.00    +0.023 A 
ATOM     24  C   UNL     1      -5.609   6.229 -13.158  0.00  0.00    +0.005 A 
ENDBRANCH  14  22
ENDBRANCH  13  15
ENDBRANCH  12  13
ENDBRANCH   1  12
BRANCH  10  25
ATOM     25  C   UNL     1      -0.064   4.228  -3.094  0.00  0.00    +0.107 C 
BRANCH  25  26
ATOM     26  C   UNL     1      -1.337   3.800  -2.360  0.00  0.00    +0.049 C 
BRANCH  26  27
ATOM     27  C   UNL     1      -0.967   3.034  -1.117  0.00  0.00    -0.072 C 
ATOM     28  C   UNL     1      -0.898   3.685  -0.000  0.00  0.00    -0.028 C 
ATOM     29  C   UNL     1      -0.533   3.062   1.315  0.00  0.00    +0.027 C 
ATOM     30  C   UNL     1      -0.670   1.541   1.238  0.00  0.00    +0.004 C 
ATOM     31  C   UNL     1       0.055   1.051  -0.022  0.00  0.00    +0.005 C 
ATOM     32  C   UNL     1      -0.701   1.563  -1.250  0.00  0.00    +0.030 C 
ENDBRANCH  26  27
ENDBRANCH  25  26
ENDBRANCH  10  25
TORSDOF 7
