REMARK  Name = ZINC50988168
REMARK  5 active torsions:
REMARK  status: ('A' for Active; 'I' for Inactive)
REMARK    1  A    between atoms: C_1  and  C_2
REMARK    2  A    between atoms: C_2  and  C_3
REMARK    3  A    between atoms: C_5  and  C_11
REMARK    4  A    between atoms: N_7  and  C_8
REMARK    5  A    between atoms: C_8  and  C_9
REMARK                            x       y       z     vdW  Elec       q    Type
REMARK                         _______ _______ _______ _____ _____    ______ ____
ROOT
ATOM      1  C   UNL     1       0.707  -0.490  -1.238  0.00  0.00    +0.076 C 
ATOM      2  N   UNL     1       0.103  -0.727  -2.348  0.00  0.00    -0.363 N 
ATOM      3  C   UNL     1       1.102  -1.182  -3.327  0.00  0.00    +0.172 C 
ATOM      4  C   UNL     1       2.406  -1.158  -2.553  0.00  0.00    +0.101 C 
ATOM      5  N   UNL     1       2.054  -0.717  -1.296  0.00  0.00    -0.279 N 
ATOM      6  N   UNL     1       3.584  -1.475  -2.978  0.00  0.00    -0.388 N 
ATOM      7  H   UNL     1       3.706  -1.771  -3.894  0.00  0.00    +0.157 HD
ATOM      8  H   UNL     1       4.347  -1.417  -2.382  0.00  0.00    +0.157 HD
ATOM      9  H   UNL     1      -0.848  -0.625  -2.511  0.00  0.00    +0.162 HD
ENDROOT
BRANCH   3  10
ATOM     10  C   UNL     1       0.789  -2.581  -3.792  0.00  0.00    -0.014 A 
ATOM     11  C   UNL     1       0.304  -3.513  -2.894  0.00  0.00    +0.010 A 
ATOM     12  C   UNL     1       0.013  -4.799  -3.313  0.00  0.00    +0.050 A 
ATOM     13  C   UNL     1       0.210  -5.149  -4.638  0.00  0.00    +0.162 A 
ATOM     14  C   UNL     1       0.697  -4.213  -5.540  0.00  0.00    +0.162 A 
ATOM     15  C   UNL     1       0.982  -2.926  -5.118  0.00  0.00    +0.055 A 
ATOM     16  O   UNL     1       0.886  -4.569  -6.844  0.00  0.00    -0.488 OA
ATOM     17  C   UNL     1       1.936  -5.507  -7.090  0.00  0.00    +0.232 C 
ATOM     18  C   UNL     1       1.444  -6.931  -6.890  0.00  0.00    +0.082 C 
ATOM     19  C   UNL     1       1.050  -7.211  -5.448  0.00  0.00    +0.232 C 
ATOM     20  O   UNL     1      -0.073  -6.414  -5.066  0.00  0.00    -0.488 OA
ENDBRANCH   3  10
BRANCH   1  22
ATOM     21  C   UNL     1      -0.019   1.526   0.010  0.00  0.00    +0.011 C 
ATOM     22  C   UNL     1       0.002  -0.004   0.002  0.00  0.00    +0.066 C 
ENDBRANCH   1  22
BRANCH   5  23
ATOM     23  C   UNL     1       2.986  -0.523  -0.182  0.00  0.00    +0.110 C 
ATOM     24  C   UNL     1       3.098  -1.820   0.621  0.00  0.00    +0.025 C 
ENDBRANCH   5  23
TORSDOF 3
