REMARK  Name = ZINC02399681
REMARK  4 active torsions:
REMARK  status: ('A' for Active; 'I' for Inactive)
REMARK    1  A    between atoms: C_4  and  S_7
REMARK    2  A    between atoms: S_7  and  C_8
REMARK    3  A    between atoms: C_11  and  C_13
REMARK    4  A    between atoms: C_23  and  C_25
REMARK                            x       y       z     vdW  Elec       q    Type
REMARK                         _______ _______ _______ _____ _____    ______ ____
ROOT
ATOM      1  C   UNL     1      -7.156  -1.520   1.113  0.00  0.00    +0.063 C 
ATOM      2  C   UNL     1      -5.784  -1.746   1.044  0.00  0.00    +0.084 C 
ATOM      3  C   UNL     1      -4.804  -0.634   1.131  0.00  0.00    +0.153 C 
ATOM      4  N   UNL     1      -5.037   0.568   0.665  0.00  0.00    -0.283 NA
ATOM      5  N   UNL     1      -3.596  -0.998   1.764  0.00  0.00    -0.152 N 
ATOM      6  C   UNL     1      -3.261  -2.336   1.773  0.00  0.00    +0.181 C 
ATOM      7  N   UNL     1      -3.978  -3.338   1.334  0.00  0.00    -0.152 NA
ATOM      8  C   UNL     1      -5.227  -3.105   0.881  0.00  0.00    +0.273 C 
ATOM      9  O   UNL     1      -5.878  -3.992   0.350  0.00  0.00    -0.268 OA
ATOM     10  S   UNL     1      -1.661  -2.317   2.538  0.00  0.00    -0.033 S 
ATOM     11  C   UNL     1      -1.566  -0.559   2.844  0.00  0.00    +0.131 C 
ATOM     12  N   UNL     1      -2.700  -0.128   2.348  0.00  0.00    -0.164 NA
ATOM     13  H   UNL     1      -4.272   1.353   0.759  0.00  0.00    +0.188 HD
ENDROOT
BRANCH  11  14
ATOM     14  C   UNL     1      -0.481   0.214   3.488  0.00  0.00    +0.027 A 
ATOM     15  C   UNL     1       0.668  -0.430   3.960  0.00  0.00    +0.013 A 
ATOM     16  C   UNL     1       1.654   0.338   4.554  0.00  0.00    +0.020 A 
ATOM     17  C   UNL     1       1.474   1.706   4.661  0.00  0.00    +0.111 A 
ATOM     18  N   UNL     1       0.380   2.286   4.207  0.00  0.00    -0.263 NA
ATOM     19  C   UNL     1      -0.586   1.597   3.634  0.00  0.00    +0.121 A 
ENDBRANCH  11  14
BRANCH   1  23
ATOM     20  C   UNL     1      -8.748  -4.532   2.115  0.00  0.00    +0.167 A 
ATOM     21  C   UNL     1      -9.863  -3.769   1.830  0.00  0.00    +0.057 A 
ATOM     22  C   UNL     1      -9.410  -2.521   1.417  0.00  0.00    +0.050 A 
ATOM     23  C   UNL     1      -8.020  -2.565   1.454  0.00  0.00    +0.130 A 
ATOM     24  O   UNL     1      -7.651  -3.793   1.883  0.00  0.00    -0.449 OA
BRANCH  20  25
ATOM     25  S   UNL     1      -8.762  -6.198   2.687  0.00  0.00    -0.052 S 
BRANCH  25  29
ATOM     26  C   UNL     1      -9.114  -5.495   7.148  0.00  0.00    +0.000 A 
ATOM     27  C   UNL     1      -9.187  -6.781   6.644  0.00  0.00    +0.001 A 
ATOM     28  C   UNL     1      -9.081  -6.999   5.285  0.00  0.00    +0.015 A 
ATOM     29  C   UNL     1      -8.899  -5.925   4.422  0.00  0.00    +0.016 A 
ATOM     30  C   UNL     1      -8.821  -4.634   4.932  0.00  0.00    +0.015 A 
ATOM     31  C   UNL     1      -8.934  -4.423   6.292  0.00  0.00    +0.001 A 
ENDBRANCH  25  29
ENDBRANCH  20  25
ENDBRANCH   1  23
TORSDOF 4
