REMARK  Name = ZINC21614444
REMARK  14 active torsions:
REMARK  status: ('A' for Active; 'I' for Inactive)
REMARK    1  A    between atoms: C_1  and  C_2
REMARK    2  A    between atoms: C_2  and  C_3
REMARK    3  A    between atoms: C_3  and  C_5
REMARK    4  A    between atoms: C_3  and  C_6
REMARK    5  A    between atoms: C_11  and  N_12
REMARK    6  A    between atoms: C_13  and  C_15
REMARK    7  A    between atoms: C_15  and  C_17
REMARK    8  A    between atoms: C_15  and  O_18
REMARK    9  A    between atoms: O_18  and  C_19
REMARK   10  A    between atoms: C_19  and  C_21
REMARK   11  A    between atoms: C_24  and  S_27
REMARK   12  A    between atoms: S_27  and  N_30
REMARK   13  A    between atoms: N_30  and  C_31
REMARK   14  A    between atoms: N_30  and  C_32
REMARK                            x       y       z     vdW  Elec       q    Type
REMARK                         _______ _______ _______ _____ _____    ______ ____
ROOT
ATOM      1  C   UNL     1       8.020   2.721   3.666  0.00  0.00    +0.340 C 
ATOM      2  O   UNL     1       8.994   2.207   4.178  0.00  0.00    -0.245 OA
ENDROOT
BRANCH   1   3
ATOM      3  C   UNL     1       7.219   1.967   2.680  0.00  0.00    +0.059 A 
ATOM      4  C   UNL     1       7.578   0.663   2.335  0.00  0.00    +0.017 A 
ATOM      5  C   UNL     1       6.825  -0.036   1.414  0.00  0.00    +0.029 A 
ATOM      6  C   UNL     1       5.716   0.553   0.832  0.00  0.00    +0.109 A 
ATOM      7  C   UNL     1       5.358   1.847   1.165  0.00  0.00    +0.029 A 
ATOM      8  C   UNL     1       6.099   2.555   2.089  0.00  0.00    +0.017 A 
BRANCH   6   9
ATOM      9  S   UNL     1       4.761  -0.346  -0.343  0.00  0.00    +0.074 S 
ATOM     10  O   UNL     1       5.657  -1.226  -1.008  0.00  0.00    -0.150 OA
ATOM     11  O   UNL     1       3.972   0.608  -1.041  0.00  0.00    -0.150 OA
BRANCH   9  12
ATOM     12  N   UNL     1       3.707  -1.299   0.509  0.00  0.00    -0.206 N 
ATOM     13  C   UNL     1       4.120  -2.633   0.952  0.00  0.00    +0.157 C 
BRANCH  12  14
ATOM     14  C   UNL     1       2.425  -0.830   0.804  0.00  0.00    +0.051 A 
ATOM     15  C   UNL     1       1.383  -1.728   0.996  0.00  0.00    +0.025 A 
ATOM     16  C   UNL     1       0.116  -1.262   1.288  0.00  0.00    +0.002 A 
ATOM     17  C   UNL     1      -0.115   0.098   1.389  0.00  0.00    +0.000 A 
ATOM     18  C   UNL     1       0.920   0.995   1.199  0.00  0.00    +0.002 A 
ATOM     19  C   UNL     1       2.189   0.535   0.907  0.00  0.00    +0.025 A 
ENDBRANCH  12  14
ENDBRANCH   9  12
ENDBRANCH   6   9
ENDBRANCH   1   3
BRANCH   1  20
ATOM     20  O   UNL     1       7.671   3.980   3.996  0.00  0.00    -0.449 OA
BRANCH  20  21
ATOM     21  C   UNL     1       8.504   4.660   4.971  0.00  0.00    +0.259 C 
ATOM     22  C   UNL     1       9.626   5.409   4.250  0.00  0.00    +0.062 C 
BRANCH  21  24
ATOM     23  N   UNL     1       8.231   6.391   6.717  0.00  0.00    -0.282 N 
ATOM     24  C   UNL     1       7.666   5.641   5.751  0.00  0.00    +0.258 C 
ATOM     25  O   UNL     1       6.483   5.755   5.508  0.00  0.00    -0.271 OA
ATOM     26  H   UNL     1       9.284   6.233   6.991  0.00  0.00    +0.155 HD
BRANCH  23  32
ATOM     27  C   UNL     1       8.095   8.518   7.853  0.00  0.00    -0.023 A 
ATOM     28  C   UNL     1       7.348   9.484   8.500  0.00  0.00    +0.006 A 
ATOM     29  C   UNL     1       5.987   9.309   8.668  0.00  0.00    +0.000 A 
ATOM     30  C   UNL     1       5.369   8.168   8.190  0.00  0.00    +0.002 A 
ATOM     31  C   UNL     1       6.109   7.202   7.538  0.00  0.00    +0.023 A 
ATOM     32  C   UNL     1       7.477   7.371   7.372  0.00  0.00    +0.037 A 
BRANCH  27  33
ATOM     33  C   UNL     1       9.579   8.709   7.670  0.00  0.00    +0.017 C 
ATOM     34  C   UNL     1       9.838  10.037   6.957  0.00  0.00    +0.012 C 
BRANCH  33  36
ATOM     35  C   UNL     1      11.781   8.791   8.848  0.00  0.00    +0.004 C 
ATOM     36  C   UNL     1      10.264   8.722   9.038  0.00  0.00    +0.004 C 
ENDBRANCH  33  36
ENDBRANCH  27  33
ENDBRANCH  23  32
ENDBRANCH  21  24
ENDBRANCH  20  21
ENDBRANCH   1  20
TORSDOF 10
