REMARK  Name = ZINC35674383
REMARK  12 active torsions:
REMARK  status: ('A' for Active; 'I' for Inactive)
REMARK    1  A    between atoms: C_1  and  C_2
REMARK    2  A    between atoms: C_2  and  C_3
REMARK    3  A    between atoms: C_3  and  C_5
REMARK    4  A    between atoms: C_3  and  N_28
REMARK    5  A    between atoms: C_9  and  O_26
REMARK    6  A    between atoms: C_10  and  O_24
REMARK    7  A    between atoms: N_15  and  C_16
REMARK    8  A    between atoms: C_16  and  C_17
REMARK    9  A    between atoms: C_21  and  C_23
REMARK   10  A    between atoms: O_24  and  C_25
REMARK   11  A    between atoms: O_26  and  C_27
REMARK   12  A    between atoms: C_29  and  C_31
REMARK                            x       y       z     vdW  Elec       q    Type
REMARK                         _______ _______ _______ _____ _____    ______ ____
ROOT
ATOM      1  C   UNL     1       0.376  -1.016   2.405  0.00  0.00    -0.016 C 
ATOM      2  C   UNL     1      -1.038  -1.189   2.894  0.00  0.00    -0.052 A 
ATOM      3  C   UNL     1      -2.040  -0.436   2.299  0.00  0.00    +0.051 A 
ATOM      4  C   UNL     1      -3.353  -0.565   2.715  0.00  0.00    +0.162 A 
ATOM      5  C   UNL     1      -3.669  -1.456   3.736  0.00  0.00    +0.162 A 
ATOM      6  C   UNL     1      -2.667  -2.204   4.327  0.00  0.00    +0.053 A 
ATOM      7  C   UNL     1      -1.352  -2.070   3.907  0.00  0.00    -0.044 A 
ATOM      8  C   UNL     1      -0.290  -2.900   4.584  0.00  0.00    +0.017 C 
ATOM      9  C   UNL     1       0.980  -2.910   3.733  0.00  0.00    -0.073 C 
ATOM     10  N   UNL     1       1.330  -1.521   3.397  0.00  0.00    +0.388 N 
ATOM     11  H   UNL     1       1.286  -0.951   4.228  0.00  0.00    -0.080 HD
ENDROOT
BRANCH   5  12
ATOM     12  O   UNL     1      -4.957  -1.591   4.151  0.00  0.00    -0.491 OA
ATOM     13  C   UNL     1      -5.206  -2.525   5.203  0.00  0.00    +0.277 C 
ENDBRANCH   5  12
BRANCH   4  14
ATOM     14  O   UNL     1      -4.331   0.175   2.127  0.00  0.00    -0.491 OA
ATOM     15  C   UNL     1      -3.934   1.052   1.071  0.00  0.00    +0.277 C 
ENDBRANCH   4  14
BRANCH   1  16
ATOM     16  C   UNL     1       0.646   0.469   2.156  0.00  0.00    +0.063 C 
BRANCH  16  17
ATOM     17  N   UNL     1      -0.161   0.929   1.024  0.00  0.00    -0.313 N 
ATOM     18  C   UNL     1       0.115   0.495  -0.222  0.00  0.00    +0.216 C 
ATOM     19  O   UNL     1       0.972  -0.347  -0.394  0.00  0.00    -0.276 OA
ATOM     20  H   UNL     1      -0.895   1.546   1.170  0.00  0.00    +0.149 HD
BRANCH  18  21
ATOM     21  C   UNL     1      -0.639   1.054  -1.400  0.00  0.00    +0.075 C 
ATOM     22  C   UNL     1      -1.815   0.124  -1.765  0.00  0.00    +0.013 C 
ATOM     23  C   UNL     1      -1.870   0.171  -3.312  0.00  0.00    +0.001 C 
ATOM     24  C   UNL     1      -0.373   0.211  -3.707  0.00  0.00    +0.001 C 
ATOM     25  C   UNL     1       0.277   1.110  -2.635  0.00  0.00    +0.013 C 
ENDBRANCH  18  21
ENDBRANCH  16  17
BRANCH  16  27
ATOM     26  C   UNL     1       0.724   2.723   3.231  0.00  0.00    +0.005 C 
ATOM     27  C   UNL     1       0.276   1.271   3.405  0.00  0.00    +0.017 C 
ENDBRANCH  16  27
ENDBRANCH   1  16
BRANCH  10  28
ATOM     28  C   UNL     1       2.688  -1.478   2.840  0.00  0.00    -0.042 C 
BRANCH  28  29
ATOM     29  C   UNL     1       3.682  -1.852   3.909  0.00  0.00    -0.064 A 
ATOM     30  C   UNL     1       4.140  -0.893   4.793  0.00  0.00    +0.002 A 
ATOM     31  C   UNL     1       5.051  -1.236   5.774  0.00  0.00    +0.000 A 
ATOM     32  C   UNL     1       5.505  -2.539   5.872  0.00  0.00    +0.003 A 
ATOM     33  C   UNL     1       5.045  -3.498   4.989  0.00  0.00    -0.050 A 
ATOM     34  C   UNL     1       4.131  -3.156   4.010  0.00  0.00    +0.005 A 
ATOM     35  C   UNL     1       5.540  -4.918   5.095  0.00  0.00    +0.044 C 
ENDBRANCH  28  29
ENDBRANCH  10  28
TORSDOF 8
