REMARK  Name = ZINC02977504
REMARK  5 active torsions:
REMARK  status: ('A' for Active; 'I' for Inactive)
REMARK    1  A    between atoms: C_2  and  C_3
REMARK    2  A    between atoms: C_3  and  S_4
REMARK    3  A    between atoms: S_4  and  C_5
REMARK    4  A    between atoms: C_18  and  C_21
REMARK    5  A    between atoms: C_24  and  O_28
REMARK                            x       y       z     vdW  Elec       q    Type
REMARK                         _______ _______ _______ _____ _____    ______ ____
ROOT
ATOM      1  C   UNL     1       0.214   0.949   2.734  0.00  0.00    +0.213 A 
ATOM      2  N   UNL     1      -0.073   1.155   4.017  0.00  0.00    -0.184 NA
ATOM      3  C   UNL     1       0.691   0.607   4.946  0.00  0.00    +0.248 A 
ATOM      4  C   UNL     1       1.790  -0.185   4.542  0.00  0.00    +0.156 A 
ATOM      5  N   UNL     1       2.022  -0.348   3.249  0.00  0.00    -0.141 NA
ATOM      6  N   UNL     1       1.250   0.201   2.376  0.00  0.00    -0.122 NA
ATOM      7  C   UNL     1       2.652  -0.815   5.565  0.00  0.00    +0.028 A 
ATOM      8  C   UNL     1       4.037  -0.739   5.497  0.00  0.00    +0.012 A 
ATOM      9  C   UNL     1       4.806  -1.355   6.465  0.00  0.00    +0.001 A 
ATOM     10  C   UNL     1       4.204  -2.047   7.502  0.00  0.00    +0.002 A 
ATOM     11  C   UNL     1       2.826  -2.126   7.585  0.00  0.00    +0.024 A 
ATOM     12  C   UNL     1       2.043  -1.508   6.627  0.00  0.00    +0.039 A 
ATOM     13  N   UNL     1       0.647  -1.545   6.695  0.00  0.00    -0.305 N 
ATOM     14  C   UNL     1      -0.073  -0.312   6.996  0.00  0.00    +0.294 C 
ATOM     15  O   UNL     1       0.442   0.794   6.264  0.00  0.00    -0.449 OA
ATOM     16  H   UNL     1       0.166  -2.374   6.544  0.00  0.00    +0.150 HD
ENDROOT
BRANCH  14  17
ATOM     17  C   UNL     1       0.044  -0.023   8.471  0.00  0.00    +0.012 A 
ATOM     18  C   UNL     1      -0.022  -1.059   9.385  0.00  0.00    +0.012 A 
ATOM     19  C   UNL     1       0.090  -0.797  10.736  0.00  0.00    +0.047 A 
ATOM     20  C   UNL     1       0.258   0.507  11.178  0.00  0.00    +0.131 A 
ATOM     21  C   UNL     1       0.319   1.546  10.259  0.00  0.00    +0.060 A 
ATOM     22  C   UNL     1       0.211   1.278   8.907  0.00  0.00    +0.027 A 
ATOM     23 BR   UNL     1       0.549   3.325  10.856  0.00  0.00    -0.047 Br
BRANCH  20  24
ATOM     24  O   UNL     1       0.363   0.768  12.508  0.00  0.00    -0.506 OA
ATOM     25  H   UNL     1      -0.483   0.939  12.943  0.00  0.00    +0.292 HD
ENDBRANCH  20  24
ENDBRANCH  14  17
BRANCH   1  26
ATOM     26  S   UNL     1      -0.801   1.676   1.491  0.00  0.00    -0.080 S 
BRANCH  26  27
ATOM     27  C   UNL     1       0.040   1.073   0.006  0.00  0.00    +0.104 C 
BRANCH  27  29
ATOM     28  C   UNL     1      -0.070   2.416  -2.030  0.00  0.00    +0.005 C 
ATOM     29  C   UNL     1      -0.674   1.585  -1.218  0.00  0.00    -0.023 C 
ENDBRANCH  27  29
ENDBRANCH  26  27
ENDBRANCH   1  26
TORSDOF 5
