REMARK  Name = ZINC11185380
REMARK  9 active torsions:
REMARK  status: ('A' for Active; 'I' for Inactive)
REMARK    1  A    between atoms: C_1  and  C_2
REMARK    2  A    between atoms: C_5  and  C_37
REMARK    3  A    between atoms: C_6  and  N_8
REMARK    4  A    between atoms: C_14  and  C_19
REMARK    5  A    between atoms: C_19  and  O_21
REMARK    6  A    between atoms: O_21  and  C_22
REMARK    7  A    between atoms: C_22  and  C_24
REMARK    8  A    between atoms: C_22  and  C_25
REMARK    9  A    between atoms: N_27  and  C_28
REMARK                            x       y       z     vdW  Elec       q    Type
REMARK                         _______ _______ _______ _____ _____    ______ ____
ROOT
ATOM      1  N   UNL     1       5.101  -8.959   2.373  0.00  0.00    -0.202 N 
ATOM      2  C   UNL     1       3.985  -8.775   1.647  0.00  0.00    +0.258 C 
ATOM      3  O   UNL     1       3.207  -9.645   1.309  0.00  0.00    -0.269 OA
ATOM      4  C   UNL     1       3.863  -7.335   1.327  0.00  0.00    +0.050 A 
ATOM      5  C   UNL     1       2.939  -6.578   0.624  0.00  0.00    +0.014 A 
ATOM      6  C   UNL     1       3.116  -5.210   0.503  0.00  0.00    +0.016 A 
ATOM      7  C   UNL     1       4.221  -4.589   1.086  0.00  0.00    +0.060 A 
ATOM      8  C   UNL     1       5.161  -5.347   1.792  0.00  0.00    +0.028 A 
ATOM      9  C   UNL     1       4.982  -6.714   1.918  0.00  0.00    +0.051 A 
ATOM     10  C   UNL     1       5.744  -7.795   2.577  0.00  0.00    +0.258 C 
ATOM     11  O   UNL     1       6.779  -7.656   3.197  0.00  0.00    -0.269 OA
ENDROOT
BRANCH   1  17
ATOM     12  C   UNL     1       7.730 -13.065   1.727  0.00  0.00    +0.044 C 
ATOM     13  C   UNL     1       6.813 -12.210   2.563  0.00  0.00    -0.049 A 
ATOM     14  C   UNL     1       6.401 -12.651   3.808  0.00  0.00    +0.004 A 
ATOM     15  C   UNL     1       5.559 -11.869   4.577  0.00  0.00    +0.005 A 
ATOM     16  C   UNL     1       5.131 -10.643   4.107  0.00  0.00    -0.029 A 
ATOM     17  C   UNL     1       5.538 -10.201   2.856  0.00  0.00    +0.048 A 
ATOM     18  C   UNL     1       6.384 -10.988   2.085  0.00  0.00    +0.027 A 
ATOM     19  C   UNL     1       4.219  -9.789   4.949  0.00  0.00    +0.045 C 
ENDBRANCH   1  17
BRANCH   7  20
ATOM     20  C   UNL     1       4.402  -3.128   0.952  0.00  0.00    +0.340 C 
ATOM     21  O   UNL     1       5.363  -2.586   1.459  0.00  0.00    -0.245 OA
BRANCH  20  22
ATOM     22  O   UNL     1       3.501  -2.397   0.267  0.00  0.00    -0.449 OA
BRANCH  22  23
ATOM     23  C   UNL     1       3.742  -0.969   0.176  0.00  0.00    +0.259 C 
ATOM     24  C   UNL     1       4.582  -0.671  -1.068  0.00  0.00    +0.062 C 
BRANCH  23  25
ATOM     25  C   UNL     1       2.426  -0.242   0.079  0.00  0.00    +0.258 C 
ATOM     26  O   UNL     1       1.386  -0.866   0.086  0.00  0.00    -0.271 OA
ATOM     27  N   UNL     1       2.404   1.103  -0.015  0.00  0.00    -0.280 N 
ATOM     28  H   UNL     1       3.234   1.597  -0.101  0.00  0.00    +0.155 HD
BRANCH  27  29
ATOM     29  C   UNL     1       1.181   1.787   0.011  0.00  0.00    +0.072 A 
ATOM     30  C   UNL     1       0.077   1.213   0.627  0.00  0.00    +0.029 A 
ATOM     31  C   UNL     1      -1.130   1.885   0.647  0.00  0.00    +0.043 A 
ATOM     32  C   UNL     1      -1.238   3.137   0.065  0.00  0.00    +0.161 A 
ATOM     33  C   UNL     1      -0.138   3.714  -0.551  0.00  0.00    +0.195 A 
ATOM     34  C   UNL     1       1.072   3.041  -0.579  0.00  0.00    +0.182 A 
ATOM     35  F   UNL     1       2.145   3.602  -1.178  0.00  0.00    -0.200 F 
ATOM     36  F   UNL     1      -0.246   4.932  -1.124  0.00  0.00    -0.199 F 
ATOM     37  F   UNL     1      -2.418   3.794   0.091  0.00  0.00    -0.202 F 
ENDBRANCH  27  29
ENDBRANCH  23  25
ENDBRANCH  22  23
ENDBRANCH  20  22
ENDBRANCH   7  20
TORSDOF 6
