REMARK  Name = ZINC50288926
REMARK  7 active torsions:
REMARK  status: ('A' for Active; 'I' for Inactive)
REMARK    1  A    between atoms: C_1  and  C_2
REMARK    2  A    between atoms: C_3  and  C_17
REMARK    3  A    between atoms: C_4  and  C_16
REMARK    4  A    between atoms: N_5  and  C_9
REMARK    5  A    between atoms: C_9  and  C_10
REMARK    6  A    between atoms: C_17  and  C_19
REMARK    7  A    between atoms: C_17  and  C_20
REMARK                            x       y       z     vdW  Elec       q    Type
REMARK                         _______ _______ _______ _____ _____    ______ ____
ROOT
ATOM      1  C   UNL     1      -2.608   2.658  -1.210  0.00  0.00    +0.066 C 
ATOM      2  C   UNL     1      -1.290   2.064  -0.786  0.00  0.00    +0.049 A 
ATOM      3  C   UNL     1      -1.262   0.910   0.003  0.00  0.00    +0.007 A 
ATOM      4  C   UNL     1      -0.061   0.391   0.373  0.00  0.00    +0.026 A 
ATOM      5  N   UNL     1       1.081   1.007  -0.032  0.00  0.00    -0.292 N 
ATOM      6  C   UNL     1       1.016   2.117  -0.790  0.00  0.00    +0.349 A 
ATOM      7  O   UNL     1       2.048   2.661  -1.148  0.00  0.00    -0.244 OA
ATOM      8  N   UNL     1      -0.160   2.628  -1.162  0.00  0.00    -0.198 NA
ATOM      9  C   UNL     1       0.004  -0.852   1.224  0.00  0.00    +0.064 C 
ENDROOT
BRANCH   3  10
ATOM     10  C   UNL     1      -2.546   0.250   0.437  0.00  0.00    +0.132 C 
ATOM     11  C   UNL     1      -3.421   1.269   1.170  0.00  0.00    +0.024 C 
BRANCH  10  12
ATOM     12  C   UNL     1      -3.281  -0.264  -0.774  0.00  0.00    +0.363 C 
ATOM     13  O   UNL     1      -4.499  -0.233  -0.807  0.00  0.00    -0.246 OA
ATOM     14  O   UNL     1      -2.657  -0.710  -1.722  0.00  0.00    -0.246 OA
ENDBRANCH  10  12
ENDBRANCH   3  10
BRANCH   5  15
ATOM     15  C   UNL     1       2.384   0.462   0.358  0.00  0.00    +0.164 C 
BRANCH  15  16
ATOM     16  C   UNL     1       2.871  -0.486  -0.708  0.00  0.00    +0.010 A 
ATOM     17  C   UNL     1       2.624  -1.815  -0.764  0.00  0.00    +0.110 A 
ATOM     18  N   UNL     1       3.234  -2.300  -1.867  0.00  0.00    -0.284 N 
ATOM     19  H   UNL     1       3.228  -3.224  -2.162  0.00  0.00    +0.188 HD
ATOM     20  N   UNL     1       3.876  -1.233  -2.509  0.00  0.00    -0.182 NA
ATOM     21  C   UNL     1       3.653  -0.145  -1.817  0.00  0.00    +0.139 A 
ENDBRANCH  15  16
ENDBRANCH   5  15
TORSDOF 4
