REMARK  Name = ZINC16711907
REMARK  3 active torsions:
REMARK  status: ('A' for Active; 'I' for Inactive)
REMARK    1  A    between atoms: C_3  and  C_6
REMARK    2  A    between atoms: C_7  and  C_8
REMARK    3  A    between atoms: N_24  and  C_27
REMARK                            x       y       z     vdW  Elec       q    Type
REMARK                         _______ _______ _______ _____ _____    ______ ____
ROOT
ATOM      1  C   UNL     1       5.711  -0.586  -0.056  0.00  0.00    +0.065 C 
ATOM      2  C   UNL     1       6.148  -1.232  -1.320  0.00  0.00    +0.032 A 
ATOM      3  C   UNL     1       7.067  -2.199  -1.497  0.00  0.00    +0.088 A 
ATOM      4  N   UNL     1       7.274  -2.569  -2.807  0.00  0.00    -0.311 N 
ATOM      5  H   UNL     1       7.934  -3.247  -3.021  0.00  0.00    +0.170 HD
ATOM      6  C   UNL     1       6.561  -1.991  -3.791  0.00  0.00    +0.289 A 
ATOM      7  O   UNL     1       6.614  -2.205  -4.989  0.00  0.00    -0.260 OA
ATOM      8  S   UNL     1       5.577  -0.903  -2.968  0.00  0.00    -0.030 S 
ATOM      9  S   UNL     1       7.907  -2.935  -0.119  0.00  0.00    -0.093 S 
ATOM     10  C   UNL     1       7.611  -1.766   1.246  0.00  0.00    +0.152 C 
ATOM     11  C   UNL     1       6.171  -1.244   1.189  0.00  0.00    +0.110 C 
ATOM     12  C   UNL     1       5.367  -2.369   1.763  0.00  0.00    +0.232 C 
ATOM     13  O   UNL     1       4.207  -2.630   1.530  0.00  0.00    -0.274 OA
ATOM     14  N   UNL     1       6.202  -3.035   2.595  0.00  0.00    -0.209 N 
ATOM     15  C   UNL     1       7.490  -2.637   2.509  0.00  0.00    +0.240 C 
ATOM     16  O   UNL     1       8.384  -2.919   3.276  0.00  0.00    -0.274 OA
ENDROOT
BRANCH  14  17
ATOM     17  C   UNL     1       5.768  -4.040   3.471  0.00  0.00    +0.044 A 
ATOM     18  C   UNL     1       4.427  -4.397   3.510  0.00  0.00    +0.025 A 
ATOM     19  C   UNL     1       4.002  -5.387   4.375  0.00  0.00    +0.017 A 
ATOM     20  C   UNL     1       4.912  -6.022   5.202  0.00  0.00    +0.018 A 
ATOM     21  C   UNL     1       6.249  -5.668   5.165  0.00  0.00    +0.017 A 
ATOM     22  C   UNL     1       6.680  -4.683   4.298  0.00  0.00    +0.025 A 
ATOM     23 BR   UNL     1       4.326  -7.376   6.384  0.00  0.00    -0.050 Br
ENDBRANCH  14  17
BRANCH   1  25
ATOM     24  C   UNL     1       3.567   0.618  -0.029  0.00  0.00    +0.042 C 
ATOM     25  C   UNL     1       4.204  -0.549  -0.041  0.00  0.00    -0.014 C 
BRANCH  24  28
ATOM     26  C   UNL     1      -0.016   1.344   0.009  0.00  0.00    +0.042 A 
ATOM     27  C   UNL     1       1.324   1.775  -0.001  0.00  0.00    +0.049 A 
ATOM     28  C   UNL     1       2.097   0.654  -0.015  0.00  0.00    +0.127 A 
ATOM     29  O   UNL     1       1.280  -0.418  -0.012  0.00  0.00    -0.464 OA
ATOM     30  C   UNL     1       0.002  -0.004   0.002  0.00  0.00    +0.195 A 
ENDBRANCH  24  28
ENDBRANCH   1  25
TORSDOF 3
