REMARK  Name = ZINC01640537
REMARK  10 active torsions:
REMARK  status: ('A' for Active; 'I' for Inactive)
REMARK    1  A    between atoms: C_1  and  C_2
REMARK    2  A    between atoms: C_2  and  C_3
REMARK    3  A    between atoms: C_2  and  C_4
REMARK    4  A    between atoms: C_4  and  N_5
REMARK    5  A    between atoms: N_7  and  C_30
REMARK    6  A    between atoms: C_15  and  C_16
REMARK    7  A    between atoms: C_15  and  N_74
REMARK    8  A    between atoms: C_16  and  C_17
REMARK    9  A    between atoms: C_16  and  C_18
REMARK   10  A    between atoms: C_16  and  C_25
REMARK                            x       y       z     vdW  Elec       q    Type
REMARK                         _______ _______ _______ _____ _____    ______ ____
ROOT
ATOM      1  N   UNL     1       3.393   4.605   1.085  0.00  0.00    -0.284 N 
ATOM      2  C   UNL     1       2.727   3.396   0.582  0.00  0.00    +0.217 C 
ATOM      3  N   UNL     1       2.146   3.761  -0.731  0.00  0.00    -0.300 N 
ATOM      4  C   UNL     1       1.931   5.218  -0.609  0.00  0.00    +0.109 C 
ATOM      5  C   UNL     1       2.939   5.684   0.413  0.00  0.00    +0.240 C 
ATOM      6  O   UNL     1       3.282   6.832   0.599  0.00  0.00    -0.273 OA
ATOM      7  C   UNL     1       0.512   5.500  -0.125  0.00  0.00    +0.017 C 
ATOM      8  C   UNL     1       0.295   7.014  -0.046  0.00  0.00    -0.076 C 
ATOM      9  C   UNL     1       1.909   7.401  -1.814  0.00  0.00    -0.076 C 
ATOM     10  C   UNL     1       2.180   5.900  -1.951  0.00  0.00    +0.017 C 
ATOM     11  N   UNL     1       0.507   7.598  -1.388  0.00  0.00    +0.380 N 
ATOM     12  H   UNL     1      -0.113   7.126  -2.058  0.00  0.00    -0.082 HD
ENDROOT
BRANCH   3  13
ATOM     13  C   UNL     1       0.939   3.094  -0.948  0.00  0.00    +0.032 A 
ATOM     14  C   UNL     1       0.165   3.397  -2.061  0.00  0.00    +0.023 A 
ATOM     15  C   UNL     1      -1.029   2.736  -2.271  0.00  0.00    +0.002 A 
ATOM     16  C   UNL     1      -1.457   1.775  -1.373  0.00  0.00    +0.000 A 
ATOM     17  C   UNL     1      -0.686   1.466  -0.267  0.00  0.00    +0.002 A 
ATOM     18  C   UNL     1       0.509   2.124  -0.050  0.00  0.00    +0.023 A 
ENDBRANCH   3  13
BRANCH   1  19
ATOM     19  C   UNL     1       4.396   4.634   2.153  0.00  0.00    +0.112 C 
BRANCH  19  21
ATOM     20  C   UNL     1       2.831   3.589   3.796  0.00  0.00    +0.009 C 
ATOM     21  C   UNL     1       3.699   4.814   3.503  0.00  0.00    +0.000 C 
ATOM     22  C   UNL     1       4.750   4.970   4.603  0.00  0.00    +0.009 C 
ENDBRANCH  19  21
ENDBRANCH   1  19
BRANCH  11  23
ATOM     23  C   UNL     1       0.183   9.039  -1.368  0.00  0.00    -0.063 C 
BRANCH  23  24
ATOM     24  C   UNL     1      -1.048   9.268  -0.489  0.00  0.00    +0.029 C 
ATOM     25  C   UNL     1      -0.641   9.203   0.984  0.00  0.00    +0.019 C 
BRANCH  24  26
ATOM     26  C   UNL     1      -2.075   8.203  -0.775  0.00  0.00    -0.038 A 
ATOM     27  C   UNL     1      -1.814   7.229  -1.720  0.00  0.00    +0.007 A 
ATOM     28  C   UNL     1      -2.753   6.248  -1.980  0.00  0.00    +0.038 A 
ATOM     29  C   UNL     1      -3.960   6.249  -1.300  0.00  0.00    +0.123 A 
ATOM     30  C   UNL     1      -4.221   7.228  -0.357  0.00  0.00    +0.038 A 
ATOM     31  C   UNL     1      -3.279   8.204  -0.096  0.00  0.00    +0.007 A 
ATOM     32  F   UNL     1      -4.880   5.294  -1.557  0.00  0.00    -0.205 F 
ENDBRANCH  24  26
BRANCH  24  33
ATOM     33  C   UNL     1      -1.643  10.645  -0.793  0.00  0.00    +0.259 C 
ATOM     34  O   UNL     1      -0.667  11.681  -0.545  0.00  0.00    -0.348 OA
ATOM     35  C   UNL     1      -1.451  12.877  -0.346  0.00  0.00    +0.191 C 
ATOM     36  C   UNL     1      -2.840  12.375   0.097  0.00  0.00    +0.191 C 
ATOM     37  O   UNL     1      -2.727  10.936   0.114  0.00  0.00    -0.348 OA
ENDBRANCH  24  33
ENDBRANCH  23  24
ENDBRANCH  11  23
TORSDOF 7
