REMARK  Name = ZINC36065783
REMARK  9 active torsions:
REMARK  status: ('A' for Active; 'I' for Inactive)
REMARK    1  A    between atoms: C_5  and  C_7
REMARK    2  A    between atoms: C_7  and  N_8
REMARK    3  A    between atoms: N_8  and  C_9
REMARK    4  A    between atoms: N_8  and  C_19
REMARK    5  A    between atoms: C_9  and  C_10
REMARK    6  A    between atoms: C_19  and  C_20
REMARK    7  A    between atoms: C_22  and  C_25
REMARK    8  A    between atoms: N_27  and  C_28
REMARK    9  A    between atoms: C_28  and  C_29
REMARK                            x       y       z     vdW  Elec       q    Type
REMARK                         _______ _______ _______ _____ _____    ______ ____
ROOT
ATOM      1  N   UNL     1       1.612  -2.661   1.311  0.00  0.00    +0.391 N 
ATOM      2  H   UNL     1       2.420  -2.124   1.587  0.00  0.00    -0.080 HD
ENDROOT
BRANCH   1   3
ATOM      3  C   UNL     1       1.194  -2.259  -0.039  0.00  0.00    -0.039 C 
BRANCH   3   8
ATOM      4  C   UNL     1      -0.494   1.117  -0.130  0.00  0.00    +0.000 A 
ATOM      5  C   UNL     1       0.594   1.971  -0.143  0.00  0.00    +0.003 A 
ATOM      6  C   UNL     1       1.876   1.457  -0.122  0.00  0.00    +0.038 A 
ATOM      7  C   UNL     1       2.072   0.087  -0.088  0.00  0.00    +0.125 A 
ATOM      8  C   UNL     1       0.982  -0.767  -0.075  0.00  0.00    -0.029 A 
ATOM      9  C   UNL     1      -0.300  -0.251  -0.096  0.00  0.00    +0.004 A 
ATOM     10  F   UNL     1       3.325  -0.417  -0.068  0.00  0.00    -0.205 F 
ENDBRANCH   3   8
ENDBRANCH   1   3
BRANCH   1  11
ATOM     11  C   UNL     1       0.515  -2.415   2.257  0.00  0.00    -0.042 C 
BRANCH  11  12
ATOM     12  C   UNL     1       0.990  -2.692   3.660  0.00  0.00    -0.060 A 
ATOM     13  C   UNL     1       0.758  -3.927   4.236  0.00  0.00    +0.005 A 
ATOM     14  C   UNL     1       1.192  -4.186   5.523  0.00  0.00    +0.050 A 
ATOM     15  C   UNL     1       1.862  -3.206   6.238  0.00  0.00    +0.166 A 
ATOM     16  C   UNL     1       2.096  -1.962   5.658  0.00  0.00    +0.166 A 
ATOM     17  C   UNL     1       1.663  -1.712   4.366  0.00  0.00    +0.051 A 
ATOM     18  O   UNL     1       2.765  -1.181   6.556  0.00  0.00    -0.453 OA
ATOM     19  C   UNL     1       2.579  -1.818   7.833  0.00  0.00    +0.466 C 
ATOM     20  O   UNL     1       2.384  -3.205   7.499  0.00  0.00    -0.453 OA
ENDBRANCH  11  12
ENDBRANCH   1  11
BRANCH   1  21
ATOM     21  C   UNL     1       1.949  -4.091   1.313  0.00  0.00    +0.020 C 
BRANCH  21  22
ATOM     22  C   UNL     1       3.153  -4.324   0.437  0.00  0.00    +0.179 A 
ATOM     23  N   UNL     1       4.389  -4.294   0.834  0.00  0.00    -0.210 NA
ATOM     24  C   UNL     1       5.192  -4.551  -0.234  0.00  0.00    +0.163 A 
ATOM     25  C   UNL     1       4.379  -4.740  -1.309  0.00  0.00    +0.230 A 
ATOM     26  O   UNL     1       3.116  -4.601  -0.874  0.00  0.00    -0.449 OA
BRANCH  24  27
ATOM     27  C   UNL     1       6.665  -4.613  -0.229  0.00  0.00    +0.266 C 
ATOM     28  O   UNL     1       7.267  -4.853  -1.258  0.00  0.00    -0.268 OA
ATOM     29  N   UNL     1       7.344  -4.402   0.916  0.00  0.00    -0.306 N 
ATOM     30  H   UNL     1       6.863  -4.211   1.737  0.00  0.00    +0.149 HD
BRANCH  29  31
ATOM     31  C   UNL     1       8.807  -4.464   0.922  0.00  0.00    +0.140 C 
BRANCH  31  32
ATOM     32  C   UNL     1       9.316  -4.195   2.314  0.00  0.00    -0.030 A 
ATOM     33  C   UNL     1       9.594  -2.899   2.710  0.00  0.00    +0.008 A 
ATOM     34  C   UNL     1      10.060  -2.651   3.987  0.00  0.00    +0.038 A 
ATOM     35  C   UNL     1      10.249  -3.701   4.871  0.00  0.00    +0.123 A 
ATOM     36  C   UNL     1       9.971  -4.998   4.473  0.00  0.00    +0.038 A 
ATOM     37  C   UNL     1       9.500  -5.243   3.197  0.00  0.00    +0.008 A 
ATOM     38  F   UNL     1      10.705  -3.460   6.119  0.00  0.00    -0.205 F 
ENDBRANCH  31  32
ENDBRANCH  29  31
ENDBRANCH  24  27
ENDBRANCH  21  22
ENDBRANCH   1  21
TORSDOF 9
