REMARK  Name = ZINC39934630
REMARK  7 active torsions:
REMARK  status: ('A' for Active; 'I' for Inactive)
REMARK    1  A    between atoms: C_1  and  C_2
REMARK    2  A    between atoms: C_2  and  C_3
REMARK    3  A    between atoms: C_8  and  C_12
REMARK    4  A    between atoms: N_16  and  C_20
REMARK    5  A    between atoms: C_20  and  C_21
REMARK    6  A    between atoms: N_23  and  C_24
REMARK    7  A    between atoms: C_27  and  C_31
REMARK                            x       y       z     vdW  Elec       q    Type
REMARK                         _______ _______ _______ _____ _____    ______ ____
ROOT
ATOM      1  C   UNL     1      -4.535  -1.415  -2.677  0.00  0.00    +0.026 C 
ATOM      2  C   UNL     1      -5.075  -1.422  -3.946  0.00  0.00    +0.080 C 
ATOM      3  C   UNL     1      -4.463  -1.019  -5.238  0.00  0.00    +0.261 C 
ATOM      4  O   UNL     1      -3.321  -0.607  -5.305  0.00  0.00    -0.269 OA
ATOM      5  N   UNL     1      -5.227  -1.134  -6.311  0.00  0.00    -0.219 N 
ATOM      6  C   UNL     1      -6.492  -1.592  -6.231  0.00  0.00    +0.286 C 
ATOM      7  O   UNL     1      -7.296  -1.746  -7.130  0.00  0.00    -0.262 OA
ATOM      8  S   UNL     1      -6.702  -1.925  -4.490  0.00  0.00    -0.026 S 
ENDROOT
BRANCH   1  14
ATOM      9  C   UNL     1      -0.590   0.406  -0.317  0.00  0.00    -0.024 A 
ATOM     10  C   UNL     1      -1.010   0.063   0.923  0.00  0.00    +0.005 A 
ATOM     11  C   UNL     1      -2.227  -0.592   1.137  0.00  0.00    +0.001 A 
ATOM     12  C   UNL     1      -3.050  -0.918   0.108  0.00  0.00    +0.010 A 
ATOM     13  C   UNL     1      -2.680  -0.593  -1.215  0.00  0.00    +0.003 A 
ATOM     14  C   UNL     1      -3.303  -0.795  -2.445  0.00  0.00    -0.018 C 
ATOM     15  C   UNL     1      -2.367  -0.204  -3.476  0.00  0.00    +0.149 C 
ATOM     16  N   UNL     1      -1.220   0.320  -2.729  0.00  0.00    -0.380 N 
ATOM     17  C   UNL     1      -1.400   0.104  -1.446  0.00  0.00    +0.046 A 
ATOM     18  H   UNL     1      -0.449   0.760  -3.121  0.00  0.00    +0.160 HD
BRANCH   9  20
ATOM     19  C   UNL     1       0.495   2.623  -0.552  0.00  0.00    +0.009 C 
ATOM     20  C   UNL     1       0.729   1.112  -0.500  0.00  0.00    +0.034 C 
ENDBRANCH   9  20
ENDBRANCH   1  14
BRANCH   5  21
ATOM     21  C   UNL     1      -4.685  -0.755  -7.618  0.00  0.00    +0.213 C 
BRANCH  21  22
ATOM     22  C   UNL     1      -4.031  -1.952  -8.258  0.00  0.00    +0.235 C 
ATOM     23  O   UNL     1      -4.019  -3.018  -7.679  0.00  0.00    -0.274 OA
ATOM     24  N   UNL     1      -3.460  -1.839  -9.474  0.00  0.00    -0.284 N 
ATOM     25  H   UNL     1      -3.402  -0.971  -9.903  0.00  0.00    +0.155 HD
BRANCH  24  26
ATOM     26  C   UNL     1      -2.952  -2.973 -10.116  0.00  0.00    +0.035 A 
ATOM     27  C   UNL     1      -1.829  -2.869 -10.928  0.00  0.00    +0.023 A 
ATOM     28  C   UNL     1      -1.329  -3.990 -11.560  0.00  0.00    +0.006 A 
ATOM     29  C   UNL     1      -1.944  -5.216 -11.387  0.00  0.00    -0.032 A 
ATOM     30  C   UNL     1      -3.062  -5.324 -10.579  0.00  0.00    +0.046 A 
ATOM     31  C   UNL     1      -3.564  -4.207  -9.938  0.00  0.00    +0.043 A 
ATOM     32 CL   UNL     1      -3.831  -6.866 -10.364  0.00  0.00    -0.083 Cl
ATOM     33  C   UNL     1      -1.396  -6.437 -12.079  0.00  0.00    +0.045 C 
ENDBRANCH  24  26
ENDBRANCH  21  22
ENDBRANCH   5  21
TORSDOF 5
