REMARK  Name = ZINC03544751
REMARK  6 active torsions:
REMARK  status: ('A' for Active; 'I' for Inactive)
REMARK    1  A    between atoms: C_1  and  C_2
REMARK    2  A    between atoms: C_7  and  N_8
REMARK    3  A    between atoms: C_18  and  S_19
REMARK    4  A    between atoms: S_19  and  C_20
REMARK    5  A    between atoms: C_20  and  C_22
REMARK    6  A    between atoms: C_20  and  C_23
REMARK                            x       y       z     vdW  Elec       q    Type
REMARK                         _______ _______ _______ _____ _____    ______ ____
ROOT
ATOM      1  N   UNL     1       3.599   1.095  -1.807  0.00  0.00    -0.255 N 
ATOM      2  C   UNL     1       4.111   0.487  -2.902  0.00  0.00    +0.267 A 
ATOM      3  O   UNL     1       5.268   0.662  -3.237  0.00  0.00    -0.267 OA
ATOM      4  C   UNL     1       3.217  -0.385  -3.676  0.00  0.00    +0.065 A 
ATOM      5  C   UNL     1       3.649  -1.050  -4.823  0.00  0.00    +0.015 A 
ATOM      6  C   UNL     1       2.776  -1.851  -5.506  0.00  0.00    +0.001 A 
ATOM      7  C   UNL     1       1.466  -2.007  -5.071  0.00  0.00    +0.002 A 
ATOM      8  C   UNL     1       1.017  -1.367  -3.950  0.00  0.00    +0.028 A 
ATOM      9  C   UNL     1       1.885  -0.542  -3.230  0.00  0.00    +0.079 A 
ATOM     10  N   UNL     1       1.482   0.112  -2.115  0.00  0.00    -0.223 NA
ATOM     11  C   UNL     1       2.298   0.885  -1.441  0.00  0.00    +0.177 A 
ENDROOT
BRANCH   1  18
ATOM     12  C   UNL     1       3.667   3.861  -2.474  0.00  0.00    +0.046 C 
ATOM     13  C   UNL     1       4.471   3.297  -1.330  0.00  0.00    -0.026 A 
ATOM     14  C   UNL     1       5.270   4.129  -0.571  0.00  0.00    +0.005 A 
ATOM     15  C   UNL     1       6.008   3.613   0.478  0.00  0.00    +0.000 A 
ATOM     16  C   UNL     1       5.949   2.262   0.770  0.00  0.00    +0.002 A 
ATOM     17  C   UNL     1       5.147   1.426   0.018  0.00  0.00    +0.026 A 
ATOM     18  C   UNL     1       4.409   1.941  -1.039  0.00  0.00    +0.055 A 
ENDBRANCH   1  18
BRANCH  11  19
ATOM     19  S   UNL     1       1.688   1.697  -0.001  0.00  0.00    -0.075 S 
BRANCH  19  20
ATOM     20  C   UNL     1      -0.017   1.091   0.004  0.00  0.00    +0.137 C 
ATOM     21  C   UNL     1      -0.750   1.620  -1.231  0.00  0.00    +0.029 C 
BRANCH  20  22
ATOM     22  C   UNL     1      -0.718   1.572   1.248  0.00  0.00    +0.233 C 
ATOM     23  O   UNL     1      -0.289   2.531   1.853  0.00  0.00    -0.274 OA
ATOM     24  N   UNL     1      -1.822   0.936   1.688  0.00  0.00    -0.270 N 
ATOM     25  C   UNL     1      -2.373  -0.291   1.107  0.00  0.00    +0.118 C 
ATOM     26  C   UNL     1      -3.615  -0.616   1.952  0.00  0.00    +0.056 C 
ATOM     27  C   UNL     1      -3.679   0.495   2.977  0.00  0.00    -0.024 A 
ATOM     28  C   UNL     1      -2.612   1.354   2.763  0.00  0.00    +0.040 A 
ATOM     29  C   UNL     1      -2.461   2.466   3.593  0.00  0.00    +0.024 A 
ATOM     30  C   UNL     1      -3.362   2.702   4.611  0.00  0.00    +0.002 A 
ATOM     31  C   UNL     1      -4.422   1.839   4.815  0.00  0.00    +0.000 A 
ATOM     32  C   UNL     1      -4.580   0.736   3.996  0.00  0.00    +0.005 A 
ENDBRANCH  20  22
ENDBRANCH  19  20
ENDBRANCH  11  19
TORSDOF 4
