REMARK  Name = ZINC14473975
REMARK  3 active torsions:
REMARK  status: ('A' for Active; 'I' for Inactive)
REMARK    1  A    between atoms: C_4  and  O_27
REMARK    2  A    between atoms: C_5  and  C_7
REMARK    3  A    between atoms: C_17  and  N_24
REMARK                            x       y       z     vdW  Elec       q    Type
REMARK                         _______ _______ _______ _____ _____    ______ ____
ROOT
ATOM      1  C   UNL     1       3.495   2.078   0.554  0.00  0.00    +0.108 C 
ATOM      2  C   UNL     1       3.616   3.325  -0.326  0.00  0.00    +0.029 C 
ATOM      3  C   UNL     1       4.699   4.246   0.306  0.00  0.00    +0.033 C 
ATOM      4  C   UNL     1       3.946   4.977   1.401  0.00  0.00    -0.030 C 
ATOM      5  C   UNL     1       2.658   4.958   1.165  0.00  0.00    -0.023 C 
ATOM      6  C   UNL     1       2.366   4.207  -0.114  0.00  0.00    +0.051 C 
ATOM      7  C   UNL     1       1.125   3.377   0.029  0.00  0.00    +0.014 A 
ATOM      8  C   UNL     1      -0.099   4.033   0.054  0.00  0.00    +0.132 A 
ATOM      9  C   UNL     1      -1.275   3.325   0.189  0.00  0.00    +0.036 A 
ATOM     10  C   UNL     1      -1.244   1.946   0.295  0.00  0.00    +0.042 A 
ATOM     11  C   UNL     1      -0.034   1.284   0.275  0.00  0.00    +0.145 A 
ATOM     12  C   UNL     1       1.158   1.998   0.138  0.00  0.00    +0.069 A 
ATOM     13  N   UNL     1       2.354   1.278   0.109  0.00  0.00    -0.334 N 
ATOM     14  F   UNL     1      -0.002  -0.062   0.384  0.00  0.00    -0.204 F 
ATOM     15  H   UNL     1       2.276   0.428   0.647  0.00  0.00    +0.147 HD
ENDROOT
BRANCH   1  20
ATOM     16  C   UNL     1       6.819   0.492   1.383  0.00  0.00    +0.001 A 
ATOM     17  C   UNL     1       7.072  -0.243   0.239  0.00  0.00    +0.004 A 
ATOM     18  C   UNL     1       6.168  -0.228  -0.806  0.00  0.00    +0.046 A 
ATOM     19  C   UNL     1       5.004   0.520  -0.704  0.00  0.00    +0.122 A 
ATOM     20  C   UNL     1       4.756   1.260   0.442  0.00  0.00    +0.014 A 
ATOM     21  C   UNL     1       5.663   1.243   1.484  0.00  0.00    +0.009 A 
BRANCH  19  22
ATOM     22  O   UNL     1       4.111   0.531  -1.728  0.00  0.00    -0.506 OA
ATOM     23  H   UNL     1       4.269   1.226  -2.381  0.00  0.00    +0.292 HD
ENDBRANCH  19  22
ENDBRANCH   1  20
BRANCH   8  24
ATOM     24  N   UNL     1      -0.141   5.508  -0.065  0.00  0.00    +0.057 N 
ATOM     25  O   UNL     1      -1.211   6.090  -0.044  0.00  0.00    -0.126 OA
ATOM     26  O   UNL     1       0.893   6.139  -0.184  0.00  0.00    -0.126 OA
ENDBRANCH   8  24
TORSDOF 3
