REMARK  Name = ZINC39964657
REMARK  8 active torsions:
REMARK  status: ('A' for Active; 'I' for Inactive)
REMARK    1  A    between atoms: C_1  and  C_2
REMARK    2  A    between atoms: C_5  and  N_9
REMARK    3  A    between atoms: C_7  and  C_8
REMARK    4  A    between atoms: C_19  and  C_23
REMARK    5  A    between atoms: C_19  and  C_37
REMARK    6  A    between atoms: C_24  and  C_36
REMARK    7  A    between atoms: N_27  and  C_30
REMARK    8  A    between atoms: C_28  and  O_29
REMARK                            x       y       z     vdW  Elec       q    Type
REMARK                         _______ _______ _______ _____ _____    ______ ____
ROOT
ATOM      1  N   UNL     1       0.344  -4.546   0.289  0.00  0.00    -0.234 N 
ATOM      2  C   UNL     1       0.175  -5.159  -1.001  0.00  0.00    +0.183 C 
ATOM      3  C   UNL     1      -0.817  -6.348  -0.822  0.00  0.00    +0.144 C 
ATOM      4  C   UNL     1      -0.137  -7.290   0.120  0.00  0.00    +0.248 C 
ATOM      5  O   UNL     1      -0.139  -8.619  -0.072  0.00  0.00    -0.273 OA
ATOM      6  N   UNL     1       0.465  -6.729   1.153  0.00  0.00    -0.127 NA
ATOM      7  C   UNL     1       0.527  -5.415   1.326  0.00  0.00    +0.334 C 
ATOM      8  O   UNL     1       0.726  -4.978   2.444  0.00  0.00    -0.250 OA
ATOM      9  C   UNL     1      -0.923  -6.751  -2.298  0.00  0.00    +0.187 C 
ATOM     10  C   UNL     1      -0.916  -5.382  -2.986  0.00  0.00    +0.235 C 
ATOM     11  O   UNL     1      -1.360  -5.147  -4.089  0.00  0.00    -0.274 OA
ATOM     12  N   UNL     1      -0.342  -4.471  -2.153  0.00  0.00    -0.295 N 
ATOM     13  H   UNL     1      -0.288  -3.517  -2.316  0.00  0.00    +0.151 HD
ENDROOT
BRANCH   1  18
ATOM     14  C   UNL     1       0.276   1.080   1.012  0.00  0.00    +0.044 C 
ATOM     15  C   UNL     1       0.294  -0.414   0.820  0.00  0.00    -0.047 A 
ATOM     16  C   UNL     1       1.311  -1.004   0.091  0.00  0.00    +0.005 A 
ATOM     17  C   UNL     1       1.331  -2.373  -0.086  0.00  0.00    +0.024 A 
ATOM     18  C   UNL     1       0.327  -3.158   0.467  0.00  0.00    +0.040 A 
ATOM     19  C   UNL     1      -0.693  -2.563   1.198  0.00  0.00    +0.027 A 
ATOM     20  C   UNL     1      -0.703  -1.193   1.377  0.00  0.00    -0.046 A 
ATOM     21  C   UNL     1      -1.806  -0.547   2.174  0.00  0.00    +0.044 C 
ENDBRANCH   1  18
BRANCH   9  22
ATOM     22  C   UNL     1       0.266  -7.575  -2.721  0.00  0.00    +0.061 A 
ATOM     23  C   UNL     1       1.459  -7.083  -3.258  0.00  0.00    +0.069 A 
ATOM     24  N   UNL     1       2.252  -8.096  -3.501  0.00  0.00    -0.168 NA
ATOM     25  N   UNL     1       1.592  -9.273  -3.127  0.00  0.00    -0.200 N 
ATOM     26  C   UNL     1       0.369  -8.928  -2.642  0.00  0.00    +0.220 A 
ATOM     27  C   UNL     1       1.779  -5.633  -3.514  0.00  0.00    +0.068 C 
BRANCH  25  28
ATOM     28  C   UNL     1       2.104 -10.574  -3.228  0.00  0.00    +0.069 A 
ATOM     29  C   UNL     1       1.780 -11.526  -2.270  0.00  0.00    +0.028 A 
ATOM     30  C   UNL     1       2.285 -12.807  -2.373  0.00  0.00    +0.002 A 
ATOM     31  C   UNL     1       3.113 -13.143  -3.428  0.00  0.00    +0.000 A 
ATOM     32  C   UNL     1       3.437 -12.198  -4.384  0.00  0.00    +0.002 A 
ATOM     33  C   UNL     1       2.931 -10.916  -4.290  0.00  0.00    +0.028 A 
ENDBRANCH  25  28
BRANCH  26  35
ATOM     34  H   UNL     1      -1.139 -10.163  -2.856  0.00  0.00    +0.294 HD
ATOM     35  O   UNL     1      -0.576  -9.780  -2.169  0.00  0.00    -0.492 OA
ENDBRANCH  26  35
ENDBRANCH   9  22
BRANCH   9  36
ATOM     36  C   UNL     1      -2.231  -7.496  -2.571  0.00  0.00    +0.409 C 
ATOM     37  F   UNL     1      -3.305  -6.607  -2.466  0.00  0.00    -0.169 F 
ATOM     38  F   UNL     1      -2.199  -8.037  -3.861  0.00  0.00    -0.169 F 
ATOM     39  F   UNL     1      -2.385  -8.526  -1.637  0.00  0.00    -0.169 F 
ENDBRANCH   9  36
TORSDOF 5
