REMARK  Name = ZINC33821680
REMARK  6 active torsions:
REMARK  status: ('A' for Active; 'I' for Inactive)
REMARK    1  A    between atoms: C_4  and  C_7
REMARK    2  A    between atoms: C_7  and  O_8
REMARK    3  A    between atoms: O_8  and  C_9
REMARK    4  A    between atoms: C_9  and  C_11
REMARK    5  A    between atoms: C_16  and  C_33
REMARK    6  A    between atoms: N_24  and  C_27
REMARK                            x       y       z     vdW  Elec       q    Type
REMARK                         _______ _______ _______ _____ _____    ______ ____
ROOT
ATOM      1  C   UNL     1       4.576   3.756  -1.054  0.00  0.00    +0.132 C 
ATOM      2  C   UNL     1       4.642   3.034  -2.412  0.00  0.00    +0.036 C 
ATOM      3  C   UNL     1       3.307   2.249  -2.472  0.00  0.00    +0.018 C 
ATOM      4  C   UNL     1       3.115   1.848  -0.989  0.00  0.00    +0.086 C 
ATOM      5  N   UNL     1       3.573   3.037  -0.186  0.00  0.00    -0.278 NA
ATOM      6  C   UNL     1       2.400   3.960  -0.001  0.00  0.00    +0.117 C 
ATOM      7  C   UNL     1       2.485   4.846  -1.219  0.00  0.00    +0.113 C 
ATOM      8  C   UNL     1       4.039   5.136  -1.169  0.00  0.00    +0.121 C 
ATOM      9  C   UNL     1       4.125   6.151  -2.218  0.00  0.00    +0.232 C 
ATOM     10  O   UNL     1       5.023   6.315  -3.016  0.00  0.00    -0.274 OA
ATOM     11  N   UNL     1       2.966   6.877  -2.102  0.00  0.00    -0.210 N 
ATOM     12  C   UNL     1       2.028   6.249  -1.325  0.00  0.00    +0.232 C 
ATOM     13  O   UNL     1       1.035   6.739  -0.831  0.00  0.00    -0.274 OA
ENDROOT
BRANCH   6  14
ATOM     14  C   UNL     1       1.106   3.186   0.008  0.00  0.00    +0.035 A 
ATOM     15  C   UNL     1       0.703   2.554   1.182  0.00  0.00    +0.023 A 
ATOM     16  C   UNL     1      -0.466   1.847   1.208  0.00  0.00    +0.012 A 
ATOM     17  C   UNL     1      -1.228   1.780   0.027  0.00  0.00    -0.002 A 
ATOM     18  C   UNL     1      -2.444   1.078  -0.021  0.00  0.00    +0.010 A 
ATOM     19  C   UNL     1      -3.155   1.042  -1.181  0.00  0.00    +0.001 A 
ATOM     20  C   UNL     1      -2.695   1.696  -2.322  0.00  0.00    +0.002 A 
ATOM     21  C   UNL     1      -1.525   2.390  -2.310  0.00  0.00    +0.026 A 
ATOM     22  C   UNL     1      -0.762   2.451  -1.131  0.00  0.00    +0.047 A 
ATOM     23  N   UNL     1       0.392   3.126  -1.089  0.00  0.00    -0.357 N 
ATOM     24  H   UNL     1       0.738   3.636  -2.000  0.00  0.00    +0.166 HD
ENDBRANCH   6  14
BRANCH  11  25
ATOM     25  C   UNL     1       2.765   8.124  -2.711  0.00  0.00    +0.044 A 
ATOM     26  C   UNL     1       3.771   8.693  -3.479  0.00  0.00    +0.024 A 
ATOM     27  C   UNL     1       3.567   9.919  -4.082  0.00  0.00    +0.002 A 
ATOM     28  C   UNL     1       2.367  10.584  -3.912  0.00  0.00    +0.000 A 
ATOM     29  C   UNL     1       1.365  10.022  -3.143  0.00  0.00    +0.002 A 
ATOM     30  C   UNL     1       1.560   8.793  -2.542  0.00  0.00    +0.024 A 
ENDBRANCH  11  25
BRANCH   1  31
ATOM     31  C   UNL     1       5.929   3.767  -0.392  0.00  0.00    +0.329 C 
ATOM     32  O   UNL     1       6.620   4.757  -0.443  0.00  0.00    -0.249 OA
BRANCH  31  33
ATOM     33  O   UNL     1       6.368   2.676   0.255  0.00  0.00    -0.459 OA
BRANCH  33  34
ATOM     34  C   UNL     1       7.681   2.757   0.870  0.00  0.00    +0.267 C 
BRANCH  34  38
ATOM     35  C   UNL     1       8.592  -0.952   2.783  0.00  0.00    +0.000 A 
ATOM     36  C   UNL     1       8.943  -0.752   1.461  0.00  0.00    +0.000 A 
ATOM     37  C   UNL     1       8.648   0.449   0.842  0.00  0.00    +0.007 A 
ATOM     38  C   UNL     1       8.003   1.449   1.544  0.00  0.00    -0.010 A 
ATOM     39  C   UNL     1       7.657   1.251   2.868  0.00  0.00    +0.007 A 
ATOM     40  C   UNL     1       7.947   0.049   3.486  0.00  0.00    +0.000 A 
ENDBRANCH  34  38
ENDBRANCH  33  34
ENDBRANCH  31  33
ENDBRANCH   1  31
TORSDOF 6
