REMARK  Name = ZINC32860156
REMARK  10 active torsions:
REMARK  status: ('A' for Active; 'I' for Inactive)
REMARK    1  A    between atoms: C_1  and  C_2
REMARK    2  A    between atoms: C_15  and  C_17
REMARK    3  A    between atoms: C_17  and  N_18
REMARK    4  A    between atoms: N_18  and  C_19
REMARK    5  A    between atoms: N_18  and  C_20
REMARK    6  A    between atoms: C_20  and  C_22
REMARK    7  A    between atoms: C_20  and  C_23
REMARK    8  A    between atoms: N_25  and  C_26
REMARK    9  A    between atoms: C_31  and  O_32
REMARK   10  A    between atoms: O_32  and  C_33
REMARK                            x       y       z     vdW  Elec       q    Type
REMARK                         _______ _______ _______ _____ _____    ______ ____
ROOT
ATOM      1  N   UNL     1      -0.038   4.726  -3.307  0.00  0.00    +0.391 N 
ATOM      2  C   UNL     1       1.201   5.372  -3.761  0.00  0.00    -0.094 C 
ATOM      3  H   UNL     1      -0.743   5.518  -3.011  0.00  0.00    -0.080 HD
ENDROOT
BRANCH   1   4
ATOM      4  C   UNL     1      -0.657   3.954  -4.393  0.00  0.00    +0.017 C 
ATOM      5  C   UNL     1       0.163   2.689  -4.650  0.00  0.00    -0.004 C 
BRANCH   4   6
ATOM      6  C   UNL     1      -2.061   3.572  -4.001  0.00  0.00    +0.203 C 
ATOM      7  O   UNL     1      -2.502   3.907  -2.921  0.00  0.00    -0.277 OA
ATOM      8  N   UNL     1      -2.828   2.859  -4.849  0.00  0.00    -0.284 N 
ATOM      9  H   UNL     1      -2.460   2.627  -5.859  0.00  0.00    +0.155 HD
BRANCH   8  10
ATOM     10  C   UNL     1      -4.093   2.413  -4.444  0.00  0.00    +0.076 A 
ATOM     11  C   UNL     1      -4.855   3.179  -3.574  0.00  0.00    +0.027 A 
ATOM     12  C   UNL     1      -6.105   2.740  -3.181  0.00  0.00    +0.002 A 
ATOM     13  C   UNL     1      -6.594   1.532  -3.643  0.00  0.00    +0.004 A 
ATOM     14  C   UNL     1      -5.838   0.760  -4.506  0.00  0.00    +0.048 A 
ATOM     15  C   UNL     1      -4.587   1.196  -4.910  0.00  0.00    +0.148 A 
BRANCH  15  16
ATOM     16  O   UNL     1      -3.842   0.439  -5.759  0.00  0.00    -0.432 OA
BRANCH  16  17
ATOM     17  C   UNL     1      -4.412  -0.797  -6.195  0.00  0.00    +0.541 C 
ATOM     18  F   UNL     1      -4.664  -1.612  -5.087  0.00  0.00    -0.166 F 
ATOM     19  F   UNL     1      -5.612  -0.544  -6.870  0.00  0.00    -0.166 F 
ENDBRANCH  16  17
ENDBRANCH  15  16
ENDBRANCH   8  10
ENDBRANCH   4   6
ENDBRANCH   1   4
BRANCH   1  20
ATOM     20  C   UNL     1       0.209   3.879  -2.133  0.00  0.00    +0.020 C 
BRANCH  20  34
ATOM     21  C   UNL     1       0.088   5.162   2.315  0.00  0.00    +0.029 C 
ATOM     22  C   UNL     1       1.280   5.006   1.369  0.00  0.00    +0.087 C 
ATOM     23  C   UNL     1       2.438   4.344   2.116  0.00  0.00    +0.118 C 
ATOM     24  C   UNL     1       3.457   3.823   1.137  0.00  0.00    +0.219 C 
ATOM     25  O   UNL     1       4.500   4.421   0.976  0.00  0.00    -0.275 OA
ATOM     26  N   UNL     1       3.216   2.694   0.436  0.00  0.00    -0.284 N 
ATOM     27  C   UNL     1       1.979   2.047   0.536  0.00  0.00    +0.055 A 
ATOM     28  C   UNL     1       1.908   0.681   0.758  0.00  0.00    +0.025 A 
ATOM     29  C   UNL     1       0.676   0.058   0.824  0.00  0.00    +0.002 A 
ATOM     30  C   UNL     1      -0.486   0.792   0.663  0.00  0.00    +0.002 A 
ATOM     31  C   UNL     1      -0.423   2.156   0.447  0.00  0.00    +0.025 A 
ATOM     32  C   UNL     1       0.807   2.790   0.394  0.00  0.00    +0.058 A 
ATOM     33  N   UNL     1       0.888   4.179   0.226  0.00  0.00    -0.268 N 
ATOM     34  C   UNL     1       0.611   4.743  -0.966  0.00  0.00    +0.204 C 
ATOM     35  O   UNL     1       0.684   5.947  -1.099  0.00  0.00    -0.277 OA
ATOM     36  H   UNL     1       3.994   2.277  -0.220  0.00  0.00    +0.155 HD
ENDBRANCH  20  34
ENDBRANCH   1  20
TORSDOF 7
