REMARK  Name = ZINC13468075
REMARK  8 active torsions:
REMARK  status: ('A' for Active; 'I' for Inactive)
REMARK    1  A    between atoms: C_1  and  C_2
REMARK    2  A    between atoms: C_5  and  C_8
REMARK    3  A    between atoms: C_11  and  C_36
REMARK    4  A    between atoms: C_14  and  C_29
REMARK    5  A    between atoms: C_19  and  C_22
REMARK    6  A    between atoms: C_25  and  C_28
REMARK    7  A    between atoms: C_32  and  C_35
REMARK    8  A    between atoms: C_39  and  C_42
REMARK                            x       y       z     vdW  Elec       q    Type
REMARK                         _______ _______ _______ _____ _____    ______ ____
ROOT
ATOM      1  C   UNL     1      -0.154  -4.364  -0.353  0.00  0.00    +0.093 C 
ATOM      2  C   UNL     1      -1.512  -4.730   0.270  0.00  0.00    +0.067 C 
ATOM      3  C   UNL     1      -1.492  -4.290   1.743  0.00  0.00    -0.028 C 
ATOM      4  N   UNL     1      -0.348  -4.910   2.419  0.00  0.00    +0.389 N 
ATOM      5  C   UNL     1      -0.493  -6.370   2.465  0.00  0.00    -0.028 C 
ATOM      6  C   UNL     1      -0.456  -6.930   1.034  0.00  0.00    +0.067 C 
ATOM      7  C   UNL     1      -1.591  -6.254   0.272  0.00  0.00    +0.141 C 
ATOM      8  O   UNL     1      -2.473  -6.868  -0.279  0.00  0.00    -0.297 OA
ATOM      9  C   UNL     1       0.853  -6.462   0.375  0.00  0.00    +0.093 C 
ATOM     10  N   UNL     1       0.920  -4.997   0.421  0.00  0.00    -0.301 NA
ATOM     11  H   UNL     1       0.498  -4.677   1.921  0.00  0.00    -0.084 HD
ATOM     12  H   UNL     1       1.825  -4.666   0.121  0.00  0.00    +0.123 HD
ATOM     13  H   UNL     1      -0.286  -4.554   3.361  0.00  0.00    -0.084 HD
ENDROOT
BRANCH   1  18
ATOM     14  C   UNL     1       0.522   1.374  -0.260  0.00  0.00    +0.044 C 
ATOM     15  C   UNL     1       0.346  -0.122  -0.284  0.00  0.00    -0.050 A 
ATOM     16  C   UNL     1      -0.711  -0.682  -0.978  0.00  0.00    +0.003 A 
ATOM     17  C   UNL     1      -0.872  -2.055  -1.000  0.00  0.00    +0.005 A 
ATOM     18  C   UNL     1       0.022  -2.868  -0.329  0.00  0.00    -0.030 A 
ATOM     19  C   UNL     1       1.079  -2.307   0.364  0.00  0.00    +0.005 A 
ATOM     20  C   UNL     1       1.244  -0.935   0.382  0.00  0.00    +0.003 A 
ENDBRANCH   1  18
BRANCH   9  21
ATOM     21  C   UNL     1       2.027  -7.044   1.119  0.00  0.00    -0.030 A 
ATOM     22  C   UNL     1       2.450  -6.468   2.302  0.00  0.00    +0.005 A 
ATOM     23  C   UNL     1       3.527  -7.002   2.984  0.00  0.00    +0.003 A 
ATOM     24  C   UNL     1       4.181  -8.113   2.483  0.00  0.00    -0.050 A 
ATOM     25  C   UNL     1       3.756  -8.690   1.301  0.00  0.00    +0.003 A 
ATOM     26  C   UNL     1       2.677  -8.158   0.621  0.00  0.00    +0.005 A 
ATOM     27  C   UNL     1       5.355  -8.695   3.227  0.00  0.00    +0.044 C 
ENDBRANCH   9  21
BRANCH   5  28
ATOM     28  C   UNL     1      -1.808  -6.724   3.110  0.00  0.00    -0.061 A 
ATOM     29  C   UNL     1      -2.528  -7.814   2.659  0.00  0.00    +0.002 A 
ATOM     30  C   UNL     1      -3.734  -8.139   3.251  0.00  0.00    +0.003 A 
ATOM     31  C   UNL     1      -4.220  -7.374   4.295  0.00  0.00    -0.050 A 
ATOM     32  C   UNL     1      -3.500  -6.284   4.747  0.00  0.00    +0.003 A 
ATOM     33  C   UNL     1      -2.292  -5.962   4.157  0.00  0.00    +0.002 A 
ATOM     34  C   UNL     1      -5.536  -7.727   4.939  0.00  0.00    +0.044 C 
ENDBRANCH   5  28
BRANCH   3  35
ATOM     35  C   UNL     1      -1.369  -2.790   1.818  0.00  0.00    -0.061 A 
ATOM     36  C   UNL     1      -2.307  -1.988   1.197  0.00  0.00    +0.002 A 
ATOM     37  C   UNL     1      -2.194  -0.612   1.266  0.00  0.00    +0.003 A 
ATOM     38  C   UNL     1      -1.143  -0.038   1.956  0.00  0.00    -0.050 A 
ATOM     39  C   UNL     1      -0.205  -0.841   2.578  0.00  0.00    +0.003 A 
ATOM     40  C   UNL     1      -0.320  -2.217   2.513  0.00  0.00    +0.002 A 
ATOM     41  C   UNL     1      -1.019   1.462   2.030  0.00  0.00    +0.044 C 
ENDBRANCH   3  35
TORSDOF 4
