REMARK  Name = ZINC12210411
REMARK  8 active torsions:
REMARK  status: ('A' for Active; 'I' for Inactive)
REMARK    1  A    between atoms: C_1  and  C_2
REMARK    2  A    between atoms: C_6  and  C_23
REMARK    3  A    between atoms: C_7  and  C_20
REMARK    4  A    between atoms: N_8  and  C_9
REMARK    5  A    between atoms: C_9  and  C_10
REMARK    6  A    between atoms: C_20  and  O_21
REMARK    7  A    between atoms: O_21  and  C_22
REMARK    8  A    between atoms: C_30  and  N_77
REMARK                            x       y       z     vdW  Elec       q    Type
REMARK                         _______ _______ _______ _____ _____    ______ ____
ROOT
ATOM      1  C   UNL     1      -9.702   2.172   7.310  0.00  0.00    +0.063 C 
ATOM      2  C   UNL     1      -8.675   3.022   6.607  0.00  0.00    +0.020 A 
ATOM      3  C   UNL     1      -9.048   3.750   5.535  0.00  0.00    +0.072 A 
ATOM      4  C   UNL     1      -8.087   4.551   4.870  0.00  0.00    +0.194 A 
ATOM      5  O   UNL     1      -8.391   5.222   3.897  0.00  0.00    -0.287 OA
ATOM      6  C   UNL     1      -6.711   4.547   5.390  0.00  0.00    +0.105 A 
ATOM      7  C   UNL     1      -6.431   3.762   6.490  0.00  0.00    +0.061 A 
ATOM      8  N   UNL     1      -7.400   3.034   7.069  0.00  0.00    -0.341 N 
ENDROOT
BRANCH   6   9
ATOM      9  C   UNL     1      -5.659   5.354   4.750  0.00  0.00    +0.252 C 
ATOM     10  O   UNL     1      -5.461   6.497   5.118  0.00  0.00    -0.270 OA
ATOM     11  N   UNL     1      -4.915   4.828   3.757  0.00  0.00    -0.301 N 
ATOM     12  C   UNL     1      -3.859   5.617   3.105  0.00  0.00    +0.089 C 
ATOM     13  C   UNL     1      -4.065   5.545   1.588  0.00  0.00    -0.059 C 
ATOM     14  C   UNL     1      -5.293   3.462   1.773  0.00  0.00    -0.059 C 
ATOM     15  C   UNL     1      -5.138   3.448   3.298  0.00  0.00    +0.089 C 
ATOM     16  N   UNL     1      -4.111   4.124   1.181  0.00  0.00    +0.384 N 
ATOM     17  H   UNL     1      -3.262   3.654   1.519  0.00  0.00    -0.081 HD
BRANCH  16  18
ATOM     18  C   UNL     1      -4.160   4.022  -0.292  0.00  0.00    -0.064 C 
ATOM     19  C   UNL     1      -4.137   2.543  -0.694  0.00  0.00    -0.010 C 
ATOM     20  C   UNL     1      -3.919   2.457  -2.203  0.00  0.00    +0.034 C 
ATOM     21  C   UNL     1      -4.902   3.337  -2.930  0.00  0.00    -0.044 A 
ATOM     22  C   UNL     1      -5.098   3.105  -4.286  0.00  0.00    +0.004 A 
ATOM     23  C   UNL     1      -5.982   3.879  -5.009  0.00  0.00    +0.000 A 
ATOM     24  C   UNL     1      -6.678   4.894  -4.380  0.00  0.00    +0.000 A 
ATOM     25  C   UNL     1      -6.486   5.125  -3.034  0.00  0.00    +0.004 A 
ATOM     26  C   UNL     1      -5.599   4.345  -2.304  0.00  0.00    -0.046 A 
ATOM     27  C   UNL     1      -5.444   4.647  -0.836  0.00  0.00    +0.020 C 
ENDBRANCH  16  18
ENDBRANCH   6   9
BRANCH   8  28
ATOM     28  C   UNL     1      -7.066   2.218   8.240  0.00  0.00    +0.157 C 
BRANCH  28  29
ATOM     29  C   UNL     1      -6.602   0.857   7.787  0.00  0.00    -0.020 A 
ATOM     30  C   UNL     1      -7.410   0.081   7.013  0.00  0.00    +0.006 A 
ATOM     31  C   UNL     1      -6.995  -1.176   6.580  0.00  0.00    +0.001 A 
ATOM     32  C   UNL     1      -5.776  -1.671   6.929  0.00  0.00    +0.008 A 
ATOM     33  C   UNL     1      -4.917  -0.901   7.732  0.00  0.00    -0.018 A 
ATOM     34  C   UNL     1      -5.336   0.381   8.167  0.00  0.00    -0.013 A 
ATOM     35  C   UNL     1      -4.478   1.150   8.971  0.00  0.00    +0.009 A 
ATOM     36  C   UNL     1      -3.259   0.655   9.320  0.00  0.00    +0.001 A 
ATOM     37  C   UNL     1      -2.847  -0.606   8.892  0.00  0.00    +0.001 A 
ATOM     38  C   UNL     1      -3.651  -1.379   8.113  0.00  0.00    +0.008 A 
ENDBRANCH  28  29
ENDBRANCH   8  28
BRANCH   7  39
ATOM     39  C   UNL     1      -5.032   3.726   7.048  0.00  0.00    +0.213 C 
BRANCH  39  40
ATOM     40  O   UNL     1      -4.231   2.833   6.270  0.00  0.00    -0.377 OA
ATOM     41  C   UNL     1      -2.836   2.888   6.575  0.00  0.00    +0.194 C 
ENDBRANCH  39  40
ENDBRANCH   7  39
TORSDOF 6
