REMARK  Name = ZINC35938565
REMARK  8 active torsions:
REMARK  status: ('A' for Active; 'I' for Inactive)
REMARK    1  A    between atoms: C_1  and  C_2
REMARK    2  A    between atoms: C_2  and  C_3
REMARK    3  A    between atoms: C_3  and  C_5
REMARK    4  A    between atoms: C_3  and  C_11
REMARK    5  A    between atoms: C_20  and  C_22
REMARK    6  A    between atoms: C_22  and  C_23
REMARK    7  A    between atoms: C_23  and  N_24
REMARK    8  A    between atoms: C_32  and  C_34
REMARK                            x       y       z     vdW  Elec       q    Type
REMARK                         _______ _______ _______ _____ _____    ______ ____
ROOT
ATOM      1  C   UNL     1       2.022   0.011  -1.292  0.00  0.00    +0.223 C 
ATOM      2  O   UNL     1       2.922  -0.774  -1.501  0.00  0.00    -0.275 OA
ATOM      3  N   UNL     1       2.295   1.319  -1.117  0.00  0.00    -0.299 N 
ATOM      4  C   UNL     1       3.631   1.798  -1.071  0.00  0.00    +0.109 C 
ATOM      5  C   UNL     1       4.316   1.685   0.331  0.00  0.00    +0.038 C 
ATOM      6  C   UNL     1       3.228   2.013   1.406  0.00  0.00    +0.109 C 
ATOM      7  N   UNL     1       2.327   3.050   1.040  0.00  0.00    -0.300 N 
ATOM      8  C   UNL     1       1.029   2.637   0.448  0.00  0.00    +0.126 C 
ATOM      9  C   UNL     1       1.211   2.324  -0.970  0.00  0.00    +0.126 C 
ATOM     10  C   UNL     1       2.637   4.348   1.222  0.00  0.00    +0.214 C 
ATOM     11  O   UNL     1       3.705   4.655   1.708  0.00  0.00    -0.276 OA
ENDROOT
BRANCH   1  12
ATOM     12  C   UNL     1       0.597  -0.477  -1.229  0.00  0.00    +0.105 C 
BRANCH  12  13
ATOM     13  C   UNL     1       0.024  -0.537  -2.622  0.00  0.00    -0.036 A 
ATOM     14  C   UNL     1       0.609  -1.350  -3.575  0.00  0.00    +0.004 A 
ATOM     15  C   UNL     1       0.083  -1.405  -4.852  0.00  0.00    +0.000 A 
ATOM     16  C   UNL     1      -1.027  -0.648  -5.176  0.00  0.00    +0.000 A 
ATOM     17  C   UNL     1      -1.612   0.165  -4.223  0.00  0.00    +0.000 A 
ATOM     18  C   UNL     1      -1.089   0.216  -2.944  0.00  0.00    +0.004 A 
ENDBRANCH  12  13
BRANCH  12  20
ATOM     19  C   UNL     1       1.011  -1.788   0.858  0.00  0.00    +0.005 C 
ATOM     20  C   UNL     1       0.563  -1.873  -0.603  0.00  0.00    +0.014 C 
ENDBRANCH  12  20
ENDBRANCH   1  12
BRANCH  10  21
ATOM     21  C   UNL     1       1.656   5.420   0.822  0.00  0.00    +0.077 C 
BRANCH  21  22
ATOM     22  C   UNL     1       2.249   6.796   1.133  0.00  0.00    -0.068 C 
BRANCH  22  23
ATOM     23  N   UNL     1       1.293   7.841   0.742  0.00  0.00    +0.388 N 
ATOM     24  C   UNL     1       0.079   7.714   1.559  0.00  0.00    -0.072 C 
ATOM     25  C   UNL     1      -1.032   8.576   0.935  0.00  0.00    +0.024 C 
ATOM     26  C   UNL     1      -0.446   9.916   0.633  0.00  0.00    -0.010 A 
ATOM     27  C   UNL     1       0.879  10.236   0.621  0.00  0.00    -0.047 A 
ATOM     28  C   UNL     1       1.198  11.556   0.315  0.00  0.00    +0.010 A 
ATOM     29  C   UNL     1       0.213  12.445   0.047  0.00  0.00    +0.045 A 
ATOM     30  S   UNL     1      -1.252  11.436   0.217  0.00  0.00    -0.101 S 
ATOM     31  C   UNL     1       1.913   9.158   0.931  0.00  0.00    -0.006 C 
ATOM     32  H   UNL     1       1.052   7.724  -0.231  0.00  0.00    -0.080 HD
BRANCH  31  33
ATOM     33  C   UNL     1       3.088   9.301  -0.002  0.00  0.00    -0.057 A 
ATOM     34  C   UNL     1       3.005   8.825  -1.297  0.00  0.00    +0.002 A 
ATOM     35  C   UNL     1       4.082   8.957  -2.153  0.00  0.00    +0.000 A 
ATOM     36  C   UNL     1       5.243   9.565  -1.714  0.00  0.00    +0.000 A 
ATOM     37  C   UNL     1       5.327  10.042  -0.419  0.00  0.00    +0.000 A 
ATOM     38  C   UNL     1       4.247   9.914   0.435  0.00  0.00    +0.002 A 
ENDBRANCH  31  33
ENDBRANCH  22  23
ENDBRANCH  21  22
ENDBRANCH  10  21
TORSDOF 7
