REMARK  Name = ZINC55008963
REMARK  4 active torsions:
REMARK  status: ('A' for Active; 'I' for Inactive)
REMARK    1  A    between atoms: C_1  and  C_2
REMARK    2  A    between atoms: C_3  and  C_12
REMARK    3  A    between atoms: C_12  and  C_24
REMARK    4  A    between atoms: N_13  and  N_14
REMARK                            x       y       z     vdW  Elec       q    Type
REMARK                         _______ _______ _______ _____ _____    ______ ____
ROOT
ATOM      1  C   UNL     1      -2.561  -0.205  -0.038  0.00  0.00    +0.070 C 
ATOM      2  N   UNL     1      -3.607  -0.963   0.092  0.00  0.00    -0.185 NA
ATOM      3  C   UNL     1      -2.726   1.283  -0.211  0.00  0.00    +0.068 C 
ENDROOT
BRANCH   1   6
ATOM      4  C   UNL     1      -1.063  -0.304   2.424  0.00  0.00    +0.064 C 
ATOM      5  C   UNL     1      -0.489  -0.854   1.144  0.00  0.00    +0.031 A 
ATOM      6  C   UNL     1      -1.213  -0.799  -0.015  0.00  0.00    +0.081 A 
ATOM      7  C   UNL     1      -0.610  -1.349  -1.239  0.00  0.00    +0.263 A 
ATOM      8  O   UNL     1      -1.214  -1.323  -2.295  0.00  0.00    -0.267 OA
ATOM      9  N   UNL     1       0.628  -1.883  -1.167  0.00  0.00    -0.275 N 
ATOM     10  H   UNL     1       1.042  -2.250  -1.964  0.00  0.00    +0.173 HD
ATOM     11  C   UNL     1       1.290  -1.908   0.003  0.00  0.00    +0.327 A 
ATOM     12  O   UNL     1       2.403  -2.394   0.041  0.00  0.00    -0.247 OA
ATOM     13  N   UNL     1       0.759  -1.406   1.130  0.00  0.00    -0.311 N 
ATOM     14  H   UNL     1       1.272  -1.440   1.952  0.00  0.00    +0.170 HD
ENDBRANCH   1   6
BRANCH   2  15
ATOM     15  N   UNL     1      -4.889  -0.398   0.071  0.00  0.00    -0.220 N 
ATOM     16  C   UNL     1      -6.008  -1.210   0.210  0.00  0.00    +0.158 A 
ATOM     17  C   UNL     1      -7.280  -0.642   0.182  0.00  0.00    +0.084 A 
ATOM     18  C   UNL     1      -8.386  -1.462   0.321  0.00  0.00    +0.046 A 
ATOM     19  C   UNL     1      -8.184  -2.827   0.484  0.00  0.00    +0.079 A 
ATOM     20  C   UNL     1      -6.893  -3.323   0.502  0.00  0.00    +0.150 A 
ATOM     21  N   UNL     1      -5.856  -2.517   0.362  0.00  0.00    -0.216 NA
ATOM     22 CL   UNL     1      -6.632  -5.027   0.706  0.00  0.00    -0.060 Cl
ATOM     23 CL   UNL     1      -9.538  -3.899   0.663  0.00  0.00    -0.080 Cl
ATOM     24 CL   UNL     1      -7.474   1.071  -0.024  0.00  0.00    -0.080 Cl
ATOM     25  H   UNL     1      -4.995   0.560  -0.041  0.00  0.00    +0.176 HD
ENDBRANCH   2  15
TORSDOF 2
