REMARK  Name = ZINC64423450
REMARK  5 active torsions:
REMARK  status: ('A' for Active; 'I' for Inactive)
REMARK    1  A    between atoms: C_1  and  C_2
REMARK    2  A    between atoms: C_12  and  N_14
REMARK    3  A    between atoms: C_15  and  C_17
REMARK    4  A    between atoms: C_20  and  C_25
REMARK    5  A    between atoms: C_22  and  C_24
REMARK                            x       y       z     vdW  Elec       q    Type
REMARK                         _______ _______ _______ _____ _____    ______ ____
ROOT
ATOM      1  C   UNL     1       0.609  -0.549  -1.265  0.00  0.00    +0.044 C 
ATOM      2  C   UNL     1      -0.034  -0.022  -0.008  0.00  0.00    -0.036 A 
ATOM      3  C   UNL     1      -0.667   1.179  -0.004  0.00  0.00    +0.074 A 
ATOM      4  C   UNL     1      -1.265   1.662   1.178  0.00  0.00    +0.249 A 
ATOM      5  O   UNL     1      -1.829   2.743   1.159  0.00  0.00    -0.268 OA
ATOM      6  N   UNL     1      -1.230   0.962   2.325  0.00  0.00    -0.322 N 
ATOM      7  H   UNL     1      -1.652   1.324   3.119  0.00  0.00    +0.169 HD
ATOM      8  C   UNL     1      -0.603  -0.265   2.387  0.00  0.00    +0.051 A 
ATOM      9  C   UNL     1       0.005  -0.796   1.232  0.00  0.00    +0.002 A 
ATOM     10  C   UNL     1       0.640  -2.043   1.286  0.00  0.00    +0.012 A 
ATOM     11  C   UNL     1       0.662  -2.743   2.457  0.00  0.00    +0.024 A 
ATOM     12  C   UNL     1       0.056  -2.226   3.602  0.00  0.00    +0.035 A 
ATOM     13  C   UNL     1      -0.568  -0.989   3.571  0.00  0.00    +0.049 A 
ENDROOT
BRANCH  12  14
ATOM     14  N   UNL     1       0.088  -2.956   4.791  0.00  0.00    -0.285 N 
ATOM     15  C   UNL     1       0.192  -2.315   5.973  0.00  0.00    +0.228 C 
ATOM     16  O   UNL     1       0.176  -1.103   6.009  0.00  0.00    -0.275 OA
ATOM     17  H   UNL     1       0.034  -3.924   4.767  0.00  0.00    +0.155 HD
BRANCH  15  18
ATOM     18  C   UNL     1       0.329  -3.106   7.248  0.00  0.00    +0.141 C 
ATOM     19  C   UNL     1       1.630  -3.889   7.266  0.00  0.00    +0.030 C 
ATOM     20  C   UNL     1       2.189  -3.696   8.441  0.00  0.00    +0.092 C 
ATOM     21  O   UNL     1       1.467  -2.898   9.260  0.00  0.00    -0.493 OA
ATOM     22  C   UNL     1       0.511  -2.166   8.466  0.00  0.00    +0.186 C 
ATOM     23  C   UNL     1      -0.807  -1.988   9.222  0.00  0.00    +0.053 C 
ATOM     24  C   UNL     1       3.509  -4.306   8.837  0.00  0.00    +0.085 C 
ENDBRANCH  15  18
ENDBRANCH  12  14
TORSDOF 2
