REMARK  Name = ZINC23549845
REMARK  4 active torsions:
REMARK  status: ('A' for Active; 'I' for Inactive)
REMARK    1  A    between atoms: C_4  and  C_7
REMARK    2  A    between atoms: C_8  and  C_27
REMARK    3  A    between atoms: N_13  and  N_14
REMARK    4  A    between atoms: C_15  and  C_16
REMARK                            x       y       z     vdW  Elec       q    Type
REMARK                         _______ _______ _______ _____ _____    ______ ____
ROOT
ATOM      1  C   UNL     1       2.296   5.394   0.009  0.00  0.00    +0.102 A 
ATOM      2  C   UNL     1       1.048   6.048   0.024  0.00  0.00    +0.119 A 
ATOM      3  N   UNL     1      -0.061   5.317   0.030  0.00  0.00    -0.144 NA
ATOM      4  N   UNL     1       0.004   4.032   0.018  0.00  0.00    -0.111 NA
ATOM      5  C   UNL     1       1.169   3.394   0.009  0.00  0.00    +0.255 A 
ATOM      6  N   UNL     1       2.316   4.063   0.002  0.00  0.00    -0.210 NA
ATOM      7  N   UNL     1       1.188   2.011   0.002  0.00  0.00    -0.204 N 
ATOM      8  H   UNL     1       2.148   1.474  -0.011  0.00  0.00    +0.177 HD
ENDROOT
BRANCH   1  12
ATOM      9  C   UNL     1       5.918   7.619  -0.016  0.00  0.00    +0.000 A 
ATOM     10  C   UNL     1       5.852   6.417   0.667  0.00  0.00    +0.001 A 
ATOM     11  C   UNL     1       4.679   5.691   0.679  0.00  0.00    +0.010 A 
ATOM     12  C   UNL     1       3.559   6.169   0.000  0.00  0.00    +0.003 A 
ATOM     13  C   UNL     1       3.633   7.378  -0.691  0.00  0.00    +0.010 A 
ATOM     14  C   UNL     1       4.810   8.099  -0.691  0.00  0.00    +0.001 A 
ENDBRANCH   1  12
BRANCH   2  15
ATOM     15  C   UNL     1       0.975   7.528   0.032  0.00  0.00    +0.004 A 
ATOM     16  C   UNL     1       1.930   8.273   0.724  0.00  0.00    +0.010 A 
ATOM     17  C   UNL     1       1.859   9.651   0.724  0.00  0.00    +0.001 A 
ATOM     18  C   UNL     1       0.837  10.293   0.048  0.00  0.00    +0.000 A 
ATOM     19  C   UNL     1      -0.116   9.560  -0.635  0.00  0.00    +0.001 A 
ATOM     20  C   UNL     1      -0.053   8.182  -0.647  0.00  0.00    +0.010 A 
ENDBRANCH   2  15
BRANCH   7  21
ATOM     21  N   UNL     1      -0.015   1.294   0.009  0.00  0.00    -0.187 NA
ATOM     22  C   UNL     1       0.002  -0.004   0.002  0.00  0.00    +0.144 C 
BRANCH  22  23
ATOM     23  C   UNL     1      -1.264  -0.758   0.010  0.00  0.00    +0.071 A 
ATOM     24  C   UNL     1      -2.486  -0.079   0.031  0.00  0.00    +0.173 A 
ATOM     25  C   UNL     1      -3.671  -0.792   0.034  0.00  0.00    +0.197 A 
ATOM     26  C   UNL     1      -3.649  -2.179   0.026  0.00  0.00    +0.199 A 
ATOM     27  C   UNL     1      -2.440  -2.859   0.011  0.00  0.00    +0.197 A 
ATOM     28  C   UNL     1      -1.249  -2.157   0.002  0.00  0.00    +0.173 A 
ATOM     29  F   UNL     1      -0.072  -2.821  -0.012  0.00  0.00    -0.202 F 
ATOM     30  F   UNL     1      -2.427  -4.210   0.003  0.00  0.00    -0.199 F 
ATOM     31  F   UNL     1      -4.810  -2.870   0.033  0.00  0.00    -0.199 F 
ATOM     32  F   UNL     1      -4.853  -0.137   0.049  0.00  0.00    -0.199 F 
ATOM     33  F   UNL     1      -2.510   1.272   0.044  0.00  0.00    -0.202 F 
ENDBRANCH  22  23
ENDBRANCH   7  21
TORSDOF 4
