REMARK  Name = ZINC63696512
REMARK  6 active torsions:
REMARK  status: ('A' for Active; 'I' for Inactive)
REMARK    1  A    between atoms: C_1  and  C_2
REMARK    2  A    between atoms: C_7  and  N_12
REMARK    3  A    between atoms: C_16  and  C_19
REMARK    4  A    between atoms: N_21  and  C_22
REMARK    5  A    between atoms: C_22  and  C_23
REMARK    6  A    between atoms: C_23  and  C_24
REMARK                            x       y       z     vdW  Elec       q    Type
REMARK                         _______ _______ _______ _____ _____    ______ ____
ROOT
ATOM      1  N   UNL     1       1.282  -5.061   1.936  0.00  0.00    -0.265 NA
ATOM      2  C   UNL     1       2.486  -4.277   1.631  0.00  0.00    +0.088 C 
ATOM      3  C   UNL     1       3.718  -4.996   2.184  0.00  0.00    +0.016 C 
ATOM      4  C   UNL     1       3.818  -6.387   1.552  0.00  0.00    +0.015 C 
ATOM      5  C   UNL     1       2.532  -7.165   1.844  0.00  0.00    +0.089 C 
ATOM      6  C   UNL     1       1.334  -6.383   1.300  0.00  0.00    +0.100 C 
ENDROOT
BRANCH   1  13
ATOM      7  C   UNL     1      -0.018   1.503   0.010  0.00  0.00    +0.044 C 
ATOM      8  C   UNL     1       0.002  -0.004   0.002  0.00  0.00    -0.048 A 
ATOM      9  C   UNL     1       0.005  -0.672  -1.235  0.00  0.00    +0.005 A 
ATOM     10  C   UNL     1       0.022  -2.017  -1.335  0.00  0.00    +0.028 A 
ATOM     11  C   UNL     1       0.040  -2.834  -0.114  0.00  0.00    +0.061 A 
ATOM     12  N   UNL     1       0.057  -4.120   0.090  0.00  0.00    -0.351 N 
ATOM     13  C   UNL     1       0.067  -4.335   1.542  0.00  0.00    +0.252 C 
ATOM     14  N   UNL     1       0.053  -3.002   2.159  0.00  0.00    -0.351 N 
ATOM     15  C   UNL     1       0.037  -2.127   1.195  0.00  0.00    +0.061 A 
ATOM     16  C   UNL     1       0.022  -0.657   1.181  0.00  0.00    +0.030 A 
ATOM     17  H   UNL     1       0.062  -4.809  -0.593  0.00  0.00    +0.163 HD
ATOM     18  H   UNL     1       0.055  -2.810   3.109  0.00  0.00    +0.163 HD
ENDBRANCH   1  13
BRANCH   5  19
ATOM     19  C   UNL     1       2.598  -8.515   1.176  0.00  0.00    +0.217 C 
ATOM     20  O   UNL     1       1.767  -8.823   0.348  0.00  0.00    -0.275 OA
ATOM     21  N   UNL     1       3.582  -9.378   1.498  0.00  0.00    -0.315 N 
ATOM     22  H   UNL     1       4.247  -9.132   2.160  0.00  0.00    +0.149 HD
BRANCH  21  23
ATOM     23  C   UNL     1       3.646 -10.690   0.849  0.00  0.00    +0.108 C 
BRANCH  23  24
ATOM     24  C   UNL     1       4.847 -11.469   1.390  0.00  0.00    +0.049 C 
BRANCH  24  25
ATOM     25  C   UNL     1       4.913 -12.818   0.722  0.00  0.00    -0.072 C 
ATOM     26  C   UNL     1       5.680 -12.946  -0.313  0.00  0.00    -0.028 C 
ATOM     27  C   UNL     1       5.841 -14.221  -1.088  0.00  0.00    +0.027 C 
ATOM     28  C   UNL     1       5.336 -15.407  -0.262  0.00  0.00    +0.004 C 
ATOM     29  C   UNL     1       3.943 -15.063   0.280  0.00  0.00    +0.005 C 
ATOM     30  C   UNL     1       4.090 -13.931   1.302  0.00  0.00    +0.030 C 
ENDBRANCH  24  25
ENDBRANCH  23  24
ENDBRANCH  21  23
ENDBRANCH   5  19
TORSDOF 5
