REMARK  Name = ZINC13499242
REMARK  11 active torsions:
REMARK  status: ('A' for Active; 'I' for Inactive)
REMARK    1  A    between atoms: C_1  and  C_2
REMARK    2  A    between atoms: C_2  and  C_3
REMARK    3  A    between atoms: C_3  and  C_4
REMARK    4  A    between atoms: C_4  and  C_6
REMARK    5  A    between atoms: C_4  and  N_72
REMARK    6  A    between atoms: N_10  and  C_11
REMARK    7  A    between atoms: C_16  and  C_17
REMARK    8  A    between atoms: C_16  and  N_72
REMARK    9  A    between atoms: C_21  and  C_29
REMARK   10  A    between atoms: C_29  and  C_30
REMARK   11  A    between atoms: C_31  and  N_72
REMARK                            x       y       z     vdW  Elec       q    Type
REMARK                         _______ _______ _______ _____ _____    ______ ____
ROOT
ATOM      1  N   UNL     1      -2.812   0.707  -1.000  0.00  0.00    +0.391 N 
ATOM      2  H   UNL     1      -2.693   1.609  -1.475  0.00  0.00    -0.080 HD
ENDROOT
BRANCH   1   3
ATOM      3  C   UNL     1      -1.702  -0.189  -1.386  0.00  0.00    -0.067 C 
ATOM      4  C   UNL     1      -1.925  -1.615  -0.843  0.00  0.00    -0.015 C 
ATOM      5  C   UNL     1      -0.506  -2.098  -0.451  0.00  0.00    -0.002 C 
ATOM      6  C   UNL     1       0.142  -0.818   0.132  0.00  0.00    -0.002 C 
ATOM      7  C   UNL     1      -0.388   0.318  -0.767  0.00  0.00    -0.015 C 
ENDBRANCH   1   3
BRANCH   1   8
ATOM      8  C   UNL     1      -4.104   0.116  -1.408  0.00  0.00    +0.003 C 
BRANCH   8   9
ATOM      9  C   UNL     1      -3.930  -0.607  -2.719  0.00  0.00    +0.138 A 
ATOM     10  N   UNL     1      -3.246  -0.192  -3.757  0.00  0.00    -0.115 NA
ATOM     11  N   UNL     1      -3.338  -1.088  -4.678  0.00  0.00    -0.023 NA
ATOM     12  N   UNL     1      -4.063  -2.064  -4.255  0.00  0.00    -0.044 NA
ATOM     13  N   UNL     1      -4.443  -1.807  -3.049  0.00  0.00    -0.228 N 
BRANCH  13  14
ATOM     14  C   UNL     1      -5.278  -2.660  -2.199  0.00  0.00    +0.111 C 
ATOM     15  C   UNL     1      -4.612  -4.040  -2.020  0.00  0.00    +0.027 C 
ATOM     16  C   UNL     1      -5.800  -5.036  -2.022  0.00  0.00    +0.002 C 
ATOM     17  C   UNL     1      -6.750  -4.434  -3.087  0.00  0.00    +0.002 C 
ATOM     18  C   UNL     1      -6.636  -2.910  -2.877  0.00  0.00    +0.027 C 
ENDBRANCH  13  14
ENDBRANCH   8   9
BRANCH   8  19
ATOM     19  C   UNL     1      -5.125   1.243  -1.578  0.00  0.00    -0.008 C 
BRANCH  19  21
ATOM     20  C   UNL     1      -6.101   3.283  -0.518  0.00  0.00    +0.004 C 
ATOM     21  C   UNL     1      -5.014   2.214  -0.401  0.00  0.00    -0.005 C 
ENDBRANCH  19  21
ENDBRANCH   8  19
ENDBRANCH   1   8
BRANCH   1  22
ATOM     22  C   UNL     1      -2.797   0.928   0.462  0.00  0.00    -0.036 C 
BRANCH  22  23
ATOM     23  C   UNL     1      -3.168  -0.337   1.191  0.00  0.00    +0.001 A 
ATOM     24  C   UNL     1      -2.214  -1.046   1.842  0.00  0.00    +0.017 A 
ATOM     25  C   UNL     1      -2.607  -2.273   2.538  0.00  0.00    -0.001 A 
ATOM     26  C   UNL     1      -1.666  -3.049   3.223  0.00  0.00    +0.013 A 
ATOM     27  C   UNL     1      -2.064  -4.189   3.862  0.00  0.00    -0.047 A 
ATOM     28  C   UNL     1      -3.395  -4.583   3.838  0.00  0.00    +0.005 A 
ATOM     29  C   UNL     1      -4.339  -3.835   3.169  0.00  0.00    +0.026 A 
ATOM     30  C   UNL     1      -3.957  -2.670   2.511  0.00  0.00    +0.049 A 
ATOM     31  N   UNL     1      -4.880  -1.901   1.835  0.00  0.00    -0.322 N 
ATOM     32  H   UNL     1      -5.810  -2.176   1.817  0.00  0.00    +0.169 HD
ATOM     33  C   UNL     1      -4.510  -0.776   1.199  0.00  0.00    +0.251 A 
ATOM     34  O   UNL     1      -5.353  -0.120   0.612  0.00  0.00    -0.268 OA
BRANCH  27  35
ATOM     35  C   UNL     1      -1.051  -5.024   4.601  0.00  0.00    +0.032 C 
ATOM     36  C   UNL     1      -0.955  -4.547   6.051  0.00  0.00    +0.009 C 
ENDBRANCH  27  35
ENDBRANCH  22  23
ENDBRANCH   1  22
TORSDOF 9
