REMARK  Name = ZINC03355489
REMARK  8 active torsions:
REMARK  status: ('A' for Active; 'I' for Inactive)
REMARK    1  A    between atoms: C_1  and  C_2
REMARK    2  A    between atoms: C_2  and  N_3
REMARK    3  A    between atoms: C_4  and  C_30
REMARK    4  A    between atoms: C_7  and  S_8
REMARK    5  A    between atoms: S_8  and  C_9
REMARK    6  A    between atoms: C_9  and  C_10
REMARK    7  A    between atoms: C_13  and  C_25
REMARK    8  A    between atoms: C_16  and  C_18
REMARK                            x       y       z     vdW  Elec       q    Type
REMARK                         _______ _______ _______ _____ _____    ______ ____
ROOT
ATOM      1  C   UNL     1       5.998  -0.507  -0.120  0.00  0.00    +0.243 C 
ATOM      2  O   UNL     1       5.810  -0.087   1.003  0.00  0.00    -0.273 OA
ATOM      3  N   UNL     1       7.252  -0.762  -0.543  0.00  0.00    -0.207 N 
ATOM      4  C   UNL     1       8.496  -0.594   0.224  0.00  0.00    +0.187 C 
ATOM      5  C   UNL     1       9.594  -1.023  -0.724  0.00  0.00    +0.030 C 
ATOM      6  C   UNL     1       9.014  -1.381  -1.867  0.00  0.00    +0.050 C 
ATOM      7  N   UNL     1       7.634  -1.247  -1.801  0.00  0.00    -0.261 N 
ATOM      8  H   UNL     1       7.022  -1.457  -2.524  0.00  0.00    +0.170 HD
ENDROOT
BRANCH   6   9
ATOM      9  C   UNL     1       9.749  -1.865  -3.058  0.00  0.00    -0.003 A 
ATOM     10  C   UNL     1      11.138  -1.976  -3.026  0.00  0.00    +0.011 A 
ATOM     11  C   UNL     1      11.818  -2.429  -4.139  0.00  0.00    +0.020 A 
ATOM     12  C   UNL     1      11.122  -2.772  -5.285  0.00  0.00    +0.041 A 
ATOM     13  C   UNL     1       9.742  -2.664  -5.323  0.00  0.00    +0.020 A 
ATOM     14  C   UNL     1       9.053  -2.218  -4.214  0.00  0.00    +0.011 A 
ATOM     15 CL   UNL     1      11.983  -3.341  -6.682  0.00  0.00    -0.084 Cl
ENDBRANCH   6   9
BRANCH   4  16
ATOM     16  C   UNL     1       8.482  -1.474   1.447  0.00  0.00    +0.131 A 
ATOM     17  C   UNL     1       8.930  -1.132   2.668  0.00  0.00    +0.047 A 
ATOM     18  C   UNL     1       8.726  -2.251   3.508  0.00  0.00    +0.041 A 
ATOM     19  C   UNL     1       8.166  -3.210   2.750  0.00  0.00    +0.195 A 
ATOM     20  O   UNL     1       8.015  -2.732   1.504  0.00  0.00    -0.466 OA
ENDBRANCH   4  16
BRANCH   1  21
ATOM     21  C   UNL     1       4.829  -0.743  -1.041  0.00  0.00    +0.174 C 
BRANCH  21  22
ATOM     22  S   UNL     1       3.288  -0.309  -0.186  0.00  0.00    -0.077 S 
BRANCH  22  27
ATOM     23  N   UNL     1       0.689  -0.464  -1.208  0.00  0.00    -0.302 N 
ATOM     24  C   UNL     1       0.112  -0.840  -2.399  0.00  0.00    +0.165 A 
ATOM     25  N   UNL     1       1.085  -1.210  -3.199  0.00  0.00    -0.128 NA
ATOM     26  N   UNL     1       2.215  -1.092  -2.598  0.00  0.00    -0.122 NA
ATOM     27  C   UNL     1       2.033  -0.635  -1.379  0.00  0.00    +0.192 A 
BRANCH  24  28
ATOM     28  C   UNL     1      -1.331  -0.829  -2.718  0.00  0.00    +0.019 A 
ATOM     29  C   UNL     1      -2.211  -0.052  -1.962  0.00  0.00    +0.011 A 
ATOM     30  C   UNL     1      -3.557  -0.047  -2.265  0.00  0.00    +0.001 A 
ATOM     31  C   UNL     1      -4.035  -0.810  -3.316  0.00  0.00    +0.000 A 
ATOM     32  C   UNL     1      -3.169  -1.582  -4.069  0.00  0.00    +0.001 A 
ATOM     33  C   UNL     1      -1.820  -1.592  -3.780  0.00  0.00    +0.011 A 
ENDBRANCH  24  28
BRANCH  23  35
ATOM     34  C   UNL     1      -0.017   1.555  -0.021  0.00  0.00    +0.027 C 
ATOM     35  C   UNL     1       0.005   0.025  -0.008  0.00  0.00    +0.122 C 
ENDBRANCH  23  35
ENDBRANCH  22  27
ENDBRANCH  21  22
ENDBRANCH   1  21
TORSDOF 7
