REMARK  Name = ZINC02459586
REMARK  6 active torsions:
REMARK  status: ('A' for Active; 'I' for Inactive)
REMARK    1  A    between atoms: C_5  and  N_7
REMARK    2  A    between atoms: C_8  and  C_10
REMARK    3  A    between atoms: C_10  and  S_11
REMARK    4  A    between atoms: S_11  and  C_12
REMARK    5  A    between atoms: N_18  and  C_19
REMARK    6  A    between atoms: C_22  and  N_25
REMARK                            x       y       z     vdW  Elec       q    Type
REMARK                         _______ _______ _______ _____ _____    ______ ____
ROOT
ATOM      1  C   UNL     1       4.906   1.618   0.108  0.00  0.00    +0.177 A 
ATOM      2  N   UNL     1       4.171   0.503   0.075  0.00  0.00    -0.227 NA
ATOM      3  C   UNL     1       2.852   0.512   0.105  0.00  0.00    +0.064 A 
ATOM      4  C   UNL     1       2.206   1.837   0.178  0.00  0.00    +0.094 A 
ATOM      5  C   UNL     1       3.054   3.056   0.213  0.00  0.00    +0.273 A 
ATOM      6  O   UNL     1       2.566   4.165   0.273  0.00  0.00    -0.266 OA
ATOM      7  N   UNL     1       4.396   2.874   0.174  0.00  0.00    -0.255 N 
ATOM      8  S   UNL     1       0.508   1.579   0.205  0.00  0.00    -0.118 S 
ATOM      9  C   UNL     1       0.431  -0.245   0.127  0.00  0.00    +0.081 C 
ATOM     10  C   UNL     1       1.908  -0.653   0.076  0.00  0.00    +0.068 C 
ENDROOT
BRANCH   7  11
ATOM     11  C   UNL     1       5.255   3.980   0.204  0.00  0.00    +0.052 A 
ATOM     12  C   UNL     1       5.275   4.874  -0.858  0.00  0.00    +0.028 A 
ATOM     13  C   UNL     1       6.120   5.966  -0.824  0.00  0.00    +0.035 A 
ATOM     14  C   UNL     1       6.953   6.164   0.262  0.00  0.00    +0.126 A 
ATOM     15  C   UNL     1       6.939   5.273   1.319  0.00  0.00    +0.035 A 
ATOM     16  C   UNL     1       6.093   4.181   1.293  0.00  0.00    +0.028 A 
BRANCH  14  17
ATOM     17  N   UNL     1       7.861   7.332   0.293  0.00  0.00    +0.056 N 
ATOM     18  O   UNL     1       8.655   7.522   1.326  0.00  0.00    -0.126 OA
ATOM     19  O   UNL     1       7.876   8.182  -0.714  0.00  0.00    -0.126 OA
ENDBRANCH  14  17
ENDBRANCH   7  11
BRANCH   1  20
ATOM     20  S   UNL     1       6.609   1.452   0.062  0.00  0.00    -0.078 S 
BRANCH  20  21
ATOM     21  C   UNL     1       6.747  -0.351  -0.020  0.00  0.00    +0.173 C 
BRANCH  21  23
ATOM     22  N   UNL     1       8.547  -2.043  -0.135  0.00  0.00    -0.283 N 
ATOM     23  C   UNL     1       8.201  -0.743  -0.070  0.00  0.00    +0.228 C 
ATOM     24  O   UNL     1       9.060   0.113  -0.051  0.00  0.00    -0.275 OA
ATOM     25  H   UNL     1       7.862  -2.723  -0.235  0.00  0.00    +0.155 HD
BRANCH  22  30
ATOM     26  C   UNL     1      12.102  -2.055   0.809  0.00  0.00    +0.002 A 
ATOM     27  C   UNL     1      12.561  -3.146   0.094  0.00  0.00    +0.003 A 
ATOM     28  C   UNL     1      11.691  -3.873  -0.698  0.00  0.00    +0.040 A 
ATOM     29  C   UNL     1      10.359  -3.511  -0.776  0.00  0.00    +0.144 A 
ATOM     30  C   UNL     1       9.896  -2.414  -0.058  0.00  0.00    +0.069 A 
ATOM     31  C   UNL     1      10.774  -1.684   0.731  0.00  0.00    +0.026 A 
ATOM     32  F   UNL     1       9.509  -4.221  -1.550  0.00  0.00    -0.204 F 
ENDBRANCH  22  30
ENDBRANCH  21  23
ENDBRANCH  20  21
ENDBRANCH   1  20
TORSDOF 6
