REMARK  Name = ZINC08849602
REMARK  9 active torsions:
REMARK  status: ('A' for Active; 'I' for Inactive)
REMARK    1  A    between atoms: C_1  and  C_2
REMARK    2  A    between atoms: C_7  and  N_12
REMARK    3  A    between atoms: C_9  and  C_11
REMARK    4  A    between atoms: C_13  and  C_15
REMARK    5  A    between atoms: C_15  and  S_16
REMARK    6  A    between atoms: S_16  and  C_17
REMARK    7  A    between atoms: C_20  and  C_32
REMARK    8  A    between atoms: N_21  and  C_22
REMARK    9  A    between atoms: C_22  and  C_23
REMARK                            x       y       z     vdW  Elec       q    Type
REMARK                         _______ _______ _______ _____ _____    ______ ____
ROOT
ATOM      1  C   UNL     1      -4.618   0.457   0.207  0.00  0.00    +0.193 A 
ATOM      2  N   UNL     1      -3.924  -0.569  -0.236  0.00  0.00    -0.122 NA
ATOM      3  N   UNL     1      -2.682  -0.253  -0.331  0.00  0.00    -0.128 NA
ATOM      4  C   UNL     1      -2.505   0.989   0.055  0.00  0.00    +0.165 A 
ATOM      5  N   UNL     1      -3.739   1.483   0.407  0.00  0.00    -0.298 N 
ENDROOT
BRANCH   4   6
ATOM      6  C   UNL     1      -1.221   1.721   0.097  0.00  0.00    +0.019 A 
ATOM      7  C   UNL     1      -0.044   1.054   0.441  0.00  0.00    +0.011 A 
ATOM      8  C   UNL     1       1.151   1.741   0.472  0.00  0.00    +0.001 A 
ATOM      9  C   UNL     1       1.185   3.091   0.169  0.00  0.00    +0.000 A 
ATOM     10  C   UNL     1       0.021   3.760  -0.168  0.00  0.00    +0.001 A 
ATOM     11  C   UNL     1      -1.181   3.084  -0.203  0.00  0.00    +0.011 A 
ENDBRANCH   4   6
BRANCH   1  12
ATOM     12  S   UNL     1      -6.356   0.499   0.489  0.00  0.00    -0.077 S 
BRANCH  12  13
ATOM     13  C   UNL     1      -6.795  -1.189   0.004  0.00  0.00    +0.173 C 
BRANCH  13  15
ATOM     14  N   UNL     1      -8.836  -2.578  -0.136  0.00  0.00    -0.312 N 
ATOM     15  C   UNL     1      -8.279  -1.389   0.168  0.00  0.00    +0.224 C 
ATOM     16  O   UNL     1      -8.973  -0.481   0.573  0.00  0.00    -0.275 OA
ATOM     17  H   UNL     1      -8.282  -3.305  -0.460  0.00  0.00    +0.149 HD
BRANCH  14  23
ATOM     18  C   UNL     1     -12.730  -5.199  -1.690  0.00  0.00    +0.008 C 
ATOM     19  C   UNL     1     -12.258  -4.088  -0.750  0.00  0.00    -0.009 C 
ATOM     20  C   UNL     1     -12.563  -4.480   0.697  0.00  0.00    +0.003 C 
ATOM     21  C   UNL     1     -12.092  -3.369   1.637  0.00  0.00    +0.002 C 
ATOM     22  C   UNL     1     -10.585  -3.165   1.470  0.00  0.00    +0.022 C 
ATOM     23  C   UNL     1     -10.280  -2.773   0.024  0.00  0.00    +0.076 C 
ATOM     24  C   UNL     1     -10.751  -3.885  -0.916  0.00  0.00    +0.009 C 
ATOM     25  C   UNL     1     -10.446  -3.492  -2.364  0.00  0.00    +0.009 C 
ENDBRANCH  14  23
ENDBRANCH  13  15
ENDBRANCH  12  13
ENDBRANCH   1  12
BRANCH   5  26
ATOM     26  C   UNL     1      -4.048   2.829   0.896  0.00  0.00    +0.161 C 
BRANCH  26  27
ATOM     27  C   UNL     1      -3.784   2.898   2.378  0.00  0.00    -0.024 A 
ATOM     28  C   UNL     1      -4.759   2.494   3.272  0.00  0.00    +0.009 A 
ATOM     29  C   UNL     1      -4.520   2.551   4.632  0.00  0.00    +0.050 A 
ATOM     30  C   UNL     1      -3.306   3.022   5.104  0.00  0.00    +0.166 A 
ATOM     31  C   UNL     1      -2.326   3.434   4.204  0.00  0.00    +0.167 A 
ATOM     32  C   UNL     1      -2.570   3.370   2.842  0.00  0.00    +0.055 A 
ATOM     33  O   UNL     1      -1.235   3.853   4.909  0.00  0.00    -0.453 OA
ATOM     34  C   UNL     1      -1.401   3.311   6.233  0.00  0.00    +0.466 C 
ATOM     35  O   UNL     1      -2.829   3.183   6.373  0.00  0.00    -0.453 OA
ENDBRANCH  26  27
ENDBRANCH   5  26
TORSDOF 7
