REMARK  Name = ZINC19529499
REMARK  13 active torsions:
REMARK  status: ('A' for Active; 'I' for Inactive)
REMARK    1  A    between atoms: C_1  and  C_2
REMARK    2  A    between atoms: C_2  and  O_3
REMARK    3  A    between atoms: O_3  and  C_4
REMARK    4  A    between atoms: C_4  and  C_6
REMARK    5  A    between atoms: C_6  and  C_37
REMARK    6  A    between atoms: C_11  and  C_14
REMARK    7  A    between atoms: C_17  and  O_22
REMARK    8  A    between atoms: C_18  and  O_20
REMARK    9  A    between atoms: O_20  and  C_21
REMARK   10  A    between atoms: O_22  and  C_23
REMARK   11  A    between atoms: N_26  and  C_29
REMARK   12  A    between atoms: C_32  and  O_35
REMARK   13  A    between atoms: O_35  and  C_36
REMARK                            x       y       z     vdW  Elec       q    Type
REMARK                         _______ _______ _______ _____ _____    ______ ____
ROOT
ATOM      1  C   UNL     1      -2.846  -2.475  -0.020  0.00  0.00    +0.127 C 
ATOM      2  C   UNL     1      -2.851  -3.838   0.703  0.00  0.00    +0.120 C 
ATOM      3  C   UNL     1      -3.267  -3.513   2.163  0.00  0.00    +0.111 C 
ATOM      4  C   UNL     1      -3.458  -1.982   2.188  0.00  0.00    +0.098 C 
ATOM      5  N   UNL     1      -3.768  -1.623   0.774  0.00  0.00    -0.294 NA
ATOM      6  C   UNL     1      -4.607  -4.198   2.305  0.00  0.00    +0.232 C 
ATOM      7  O   UNL     1      -5.292  -4.196   3.306  0.00  0.00    -0.274 OA
ATOM      8  N   UNL     1      -4.920  -4.807   1.155  0.00  0.00    -0.210 N 
ATOM      9  C   UNL     1      -3.995  -4.676   0.176  0.00  0.00    +0.232 C 
ATOM     10  O   UNL     1      -4.064  -5.146  -0.939  0.00  0.00    -0.274 OA
ATOM     11  C   UNL     1      -3.361  -2.627  -1.453  0.00  0.00    +0.040 C 
ATOM     12  H   UNL     1      -3.590  -0.644   0.607  0.00  0.00    +0.124 HD
ENDROOT
BRANCH   4  13
ATOM     13  C   UNL     1      -4.617  -1.613   3.077  0.00  0.00    -0.026 A 
ATOM     14  C   UNL     1      -5.912  -1.726   2.604  0.00  0.00    +0.009 A 
ATOM     15  C   UNL     1      -6.979  -1.388   3.415  0.00  0.00    +0.050 A 
ATOM     16  C   UNL     1      -6.753  -0.935   4.705  0.00  0.00    +0.162 A 
ATOM     17  C   UNL     1      -5.450  -0.821   5.181  0.00  0.00    +0.162 A 
ATOM     18  C   UNL     1      -4.385  -1.166   4.364  0.00  0.00    +0.054 A 
BRANCH  17  19
ATOM     19  O   UNL     1      -5.223  -0.378   6.446  0.00  0.00    -0.491 OA
ATOM     20  C   UNL     1      -3.860  -0.286   6.867  0.00  0.00    +0.277 C 
ENDBRANCH  17  19
BRANCH  16  21
ATOM     21  O   UNL     1      -7.801  -0.602   5.504  0.00  0.00    -0.491 OA
ATOM     22  C   UNL     1      -9.111  -0.743   4.949  0.00  0.00    +0.277 C 
ENDBRANCH  16  21
ENDBRANCH   4  13
BRANCH   8  23
ATOM     23  C   UNL     1      -6.109  -5.531   0.978  0.00  0.00    +0.044 A 
ATOM     24  C   UNL     1      -7.079  -5.068   0.100  0.00  0.00    +0.027 A 
ATOM     25  C   UNL     1      -8.248  -5.781  -0.075  0.00  0.00    +0.047 A 
ATOM     26  C   UNL     1      -8.454  -6.959   0.628  0.00  0.00    +0.120 A 
ATOM     27  C   UNL     1      -7.485  -7.422   1.507  0.00  0.00    +0.047 A 
ATOM     28  C   UNL     1      -6.313  -6.713   1.677  0.00  0.00    +0.027 A 
BRANCH  26  29
ATOM     29  O   UNL     1      -9.606  -7.661   0.456  0.00  0.00    -0.495 OA
ATOM     30  C   UNL     1      -9.751  -8.865   1.212  0.00  0.00    +0.277 C 
ENDBRANCH  26  29
ENDBRANCH   8  23
BRANCH   1  31
ATOM     31  C   UNL     1      -1.458  -1.887  -0.022  0.00  0.00    +0.328 C 
ATOM     32  O   UNL     1      -0.494  -2.615   0.009  0.00  0.00    -0.249 OA
BRANCH  31  33
ATOM     33  O   UNL     1      -1.294  -0.555  -0.057  0.00  0.00    -0.464 OA
BRANCH  33  35
ATOM     34  C   UNL     1       0.037   1.462  -0.099  0.00  0.00    +0.048 C 
ATOM     35  C   UNL     1       0.050  -0.068  -0.056  0.00  0.00    +0.229 C 
ENDBRANCH  33  35
ENDBRANCH  31  33
ENDBRANCH   1  31
TORSDOF 8
