REMARK  Name = ZINC14161161
REMARK  10 active torsions:
REMARK  status: ('A' for Active; 'I' for Inactive)
REMARK    1  A    between atoms: C_1  and  C_2
REMARK    2  A    between atoms: C_4  and  C_37
REMARK    3  A    between atoms: C_6  and  N_8
REMARK    4  A    between atoms: N_8  and  C_9
REMARK    5  A    between atoms: C_9  and  N_11
REMARK    6  A    between atoms: N_13  and  C_14
REMARK    7  A    between atoms: C_16  and  C_21
REMARK    8  A    between atoms: C_18  and  C_20
REMARK    9  A    between atoms: C_25  and  C_28
REMARK   10  A    between atoms: C_25  and  N_31
REMARK                            x       y       z     vdW  Elec       q    Type
REMARK                         _______ _______ _______ _____ _____    ______ ____
ROOT
ATOM      1  N   UNL     1      -0.190  -3.156   4.794  0.00  0.00    -0.269 N 
ATOM      2  C   UNL     1      -0.167  -2.492   5.998  0.00  0.00    +0.192 C 
ATOM      3  N   UNL     1      -0.576  -1.244   6.069  0.00  0.00    -0.181 NA
ATOM      4  N   UNL     1       0.281  -3.131   7.122  0.00  0.00    -0.303 N 
ATOM      5  C   UNL     1      -0.621  -3.982   7.910  0.00  0.00    +0.107 C 
ATOM      6  C   UNL     1       0.024  -5.362   8.077  0.00  0.00    +0.016 C 
ATOM      7  C   UNL     1       1.421  -5.198   8.681  0.00  0.00    +0.015 C 
ATOM      8  C   UNL     1       2.293  -4.368   7.736  0.00  0.00    +0.016 C 
ATOM      9  C   UNL     1       1.675  -2.982   7.562  0.00  0.00    +0.107 C 
ATOM     10  H   UNL     1       0.027  -4.100   4.757  0.00  0.00    +0.156 HD
ENDROOT
BRANCH   3  11
ATOM     11  C   UNL     1      -0.661  -0.623   7.277  0.00  0.00    +0.253 A 
ATOM     12  N   UNL     1      -0.242  -1.261   8.367  0.00  0.00    -0.216 NA
ATOM     13  C   UNL     1      -0.311  -0.684   9.555  0.00  0.00    +0.044 A 
ATOM     14  C   UNL     1      -0.827   0.599   9.656  0.00  0.00    +0.046 A 
ATOM     15  C   UNL     1      -1.255   1.237   8.502  0.00  0.00    +0.044 A 
ATOM     16  N   UNL     1      -1.155   0.610   7.342  0.00  0.00    -0.216 NA
ATOM     17  C   UNL     1      -1.822   2.631   8.567  0.00  0.00    +0.066 C 
ATOM     18  C   UNL     1       0.165  -1.414  10.785  0.00  0.00    +0.066 C 
ENDBRANCH   3  11
BRANCH   7  19
ATOM     19  N   UNL     1       2.029  -6.521   8.873  0.00  0.00    +0.389 N 
ATOM     20  C   UNL     1       1.165  -7.334   9.737  0.00  0.00    -0.077 C 
ATOM     21  C   UNL     1       1.754  -8.740   9.875  0.00  0.00    -0.019 C 
ATOM     22  C   UNL     1       3.152  -8.644  10.493  0.00  0.00    -0.004 C 
ATOM     23  C   UNL     1       4.022  -7.733   9.623  0.00  0.00    -0.019 C 
ATOM     24  C   UNL     1       3.350  -6.365   9.495  0.00  0.00    -0.077 C 
ATOM     25  H   UNL     1       2.131  -6.976   7.979  0.00  0.00    -0.080 HD
ENDBRANCH   7  19
BRANCH   7  26
ATOM     26  C   UNL     1       1.313  -4.497  10.011  0.00  0.00    +0.200 C 
ATOM     27  O   UNL     1       0.266  -4.513  10.622  0.00  0.00    -0.278 OA
ATOM     28  N   UNL     1       2.381  -3.852  10.521  0.00  0.00    -0.330 N 
ATOM     29  H   UNL     1       3.196  -3.776  10.001  0.00  0.00    +0.145 HD
ATOM     30  H   UNL     1       2.334  -3.462  11.408  0.00  0.00    +0.145 HD
ENDBRANCH   7  26
BRANCH   1  31
ATOM     31  C   UNL     1      -0.514  -2.494   3.666  0.00  0.00    +0.141 C 
ATOM     32  S   UNL     1      -0.897  -0.826   3.732  0.00  0.00    -0.018 S 
BRANCH  31  33
ATOM     33  N   UNL     1      -0.536  -3.144   2.486  0.00  0.00    -0.297 N 
ATOM     34  H   UNL     1      -0.396  -4.103   2.458  0.00  0.00    +0.154 HD
BRANCH  33  40
ATOM     35  C   UNL     1       0.211   0.870  -0.252  0.00  0.00    +0.044 C 
ATOM     36  C   UNL     1      -0.413  -0.487  -0.053  0.00  0.00    -0.048 A 
ATOM     37  C   UNL     1      -1.209  -1.034  -1.042  0.00  0.00    +0.006 A 
ATOM     38  C   UNL     1      -1.782  -2.279  -0.864  0.00  0.00    -0.048 A 
ATOM     39  C   UNL     1      -1.561  -2.982   0.305  0.00  0.00    +0.026 A 
ATOM     40  C   UNL     1      -0.762  -2.436   1.301  0.00  0.00    +0.033 A 
ATOM     41  C   UNL     1      -0.183  -1.187   1.116  0.00  0.00    +0.026 A 
ATOM     42  C   UNL     1      -2.650  -2.871  -1.944  0.00  0.00    +0.044 C 
ENDBRANCH  33  40
ENDBRANCH  31  33
ENDBRANCH   1  31
TORSDOF 6
