REMARK  Name = ZINC20125513
REMARK  2 active torsions:
REMARK  status: ('A' for Active; 'I' for Inactive)
REMARK    1  A    between atoms: C_6  and  N_7
REMARK    2  A    between atoms: N_7  and  C_8
REMARK                            x       y       z     vdW  Elec       q    Type
REMARK                         _______ _______ _______ _____ _____    ______ ____
ROOT
ATOM      1  C   UNL     1       3.701   3.261   1.146  0.00  0.00    +0.026 A 
ATOM      2  C   UNL     1       4.838   3.820   1.704  0.00  0.00    +0.049 A 
ATOM      3  C   UNL     1       4.844   5.154   2.069  0.00  0.00    +0.142 A 
ATOM      4  C   UNL     1       3.705   5.935   1.876  0.00  0.00    +0.077 A 
ATOM      5  C   UNL     1       2.570   5.378   1.313  0.00  0.00    +0.050 A 
ATOM      6  C   UNL     1       2.566   4.037   0.952  0.00  0.00    +0.029 A 
ATOM      7  N   UNL     1       3.728   7.285   2.254  0.00  0.00    -0.280 N 
ATOM      8  C   UNL     1       4.917   7.878   2.494  0.00  0.00    +0.255 C 
ATOM      9  O   UNL     1       4.959   9.037   2.851  0.00  0.00    -0.272 OA
ATOM     10  C   UNL     1       6.193   7.094   2.317  0.00  0.00    +0.325 C 
ATOM     11  O   UNL     1       5.956   5.716   2.617  0.00  0.00    -0.481 OA
ATOM     12  H   UNL     1       2.786   7.845   2.351  0.00  0.00    +0.155 HD
ENDROOT
BRANCH   6  13
ATOM     13  N   UNL     1       1.419   3.468   0.387  0.00  0.00    -0.341 N 
ATOM     14  H   UNL     1       0.520   4.082   0.233  0.00  0.00    +0.146 HD
BRANCH  13  15
ATOM     15  C   UNL     1       1.417   2.055  -0.000  0.00  0.00    +0.070 C 
ATOM     16  C   UNL     1      -0.019   1.526   0.010  0.00  0.00    +0.022 C 
ATOM     17  C   UNL     1       0.002  -0.004   0.002  0.00  0.00    +0.002 C 
ATOM     18  C   UNL     1       1.056  -0.506   0.991  0.00  0.00    +0.000 C 
ATOM     19  C   UNL     1       2.192  -1.187   0.225  0.00  0.00    +0.000 C 
ATOM     20  C   UNL     1       3.077  -0.121  -0.425  0.00  0.00    +0.000 C 
ATOM     21  C   UNL     1       2.370   0.447  -1.657  0.00  0.00    +0.002 C 
ATOM     22  C   UNL     1       2.003   1.910  -1.406  0.00  0.00    +0.022 C 
ENDBRANCH  13  15
ENDBRANCH   6  13
TORSDOF 2
