REMARK  Name = ZINC19296079
REMARK  12 active torsions:
REMARK  status: ('A' for Active; 'I' for Inactive)
REMARK    1  A    between atoms: C_1  and  C_2
REMARK    2  A    between atoms: C_2  and  C_3
REMARK    3  A    between atoms: C_3  and  C_5
REMARK    4  A    between atoms: C_3  and  C_6
REMARK    5  A    between atoms: C_9  and  C_12
REMARK    6  A    between atoms: C_12  and  C_14
REMARK    7  A    between atoms: C_12  and  N_17
REMARK    8  A    between atoms: C_14  and  C_15
REMARK    9  A    between atoms: C_14  and  C_16
REMARK   10  A    between atoms: C_18  and  C_20
REMARK   11  A    between atoms: C_20  and  C_21
REMARK   12  A    between atoms: N_30  and  C_32
REMARK                            x       y       z     vdW  Elec       q    Type
REMARK                         _______ _______ _______ _____ _____    ______ ____
ROOT
ATOM      1  N   UNL     1      -0.020   1.094   2.454  0.00  0.00    -0.308 N 
ATOM      2  C   UNL     1       1.032   1.782   2.939  0.00  0.00    +0.219 C 
ATOM      3  O   UNL     1       1.392   2.804   2.393  0.00  0.00    -0.275 OA
ATOM      4  H   UNL     1      -0.347   0.168   2.949  0.00  0.00    +0.149 HD
ENDROOT
BRANCH   1   5
ATOM      5  C   UNL     1      -0.729   1.579   1.267  0.00  0.00    +0.106 C 
BRANCH   5   9
ATOM      6  C   UNL     1      -4.736   0.100   1.296  0.00  0.00    -0.045 A 
ATOM      7  C   UNL     1      -4.481   1.397   0.892  0.00  0.00    +0.004 A 
ATOM      8  C   UNL     1      -3.184   1.876   0.882  0.00  0.00    +0.006 A 
ATOM      9  C   UNL     1      -2.143   1.058   1.278  0.00  0.00    -0.027 A 
ATOM     10  C   UNL     1      -2.397  -0.241   1.677  0.00  0.00    +0.006 A 
ATOM     11  C   UNL     1      -3.695  -0.718   1.692  0.00  0.00    +0.004 A 
BRANCH   6  12
ATOM     12  C   UNL     1      -6.150  -0.421   1.307  0.00  0.00    +0.016 C 
ATOM     13  C   UNL     1      -6.255  -1.629   0.373  0.00  0.00    +0.012 C 
BRANCH  12  15
ATOM     14  C   UNL     1      -8.002  -1.253   2.764  0.00  0.00    +0.004 C 
ATOM     15  C   UNL     1      -6.529  -0.841   2.728  0.00  0.00    +0.004 C 
ENDBRANCH  12  15
ENDBRANCH   6  12
ENDBRANCH   5   9
BRANCH   5  16
ATOM     16  C   UNL     1      -0.013   1.086   0.008  0.00  0.00    +0.008 C 
ATOM     17  C   UNL     1       1.423   1.615  -0.003  0.00  0.00    +0.009 C 
ATOM     18  C   UNL     1      -0.753   1.593  -1.232  0.00  0.00    +0.009 C 
ENDBRANCH   5  16
ENDBRANCH   1   5
BRANCH   2  19
ATOM     19  C   UNL     1       1.761   1.283   4.160  0.00  0.00    +0.153 C 
BRANCH  19  20
ATOM     20  C   UNL     1       2.888   2.227   4.493  0.00  0.00    +0.078 A 
ATOM     21  C   UNL     1       3.746   1.962   5.648  0.00  0.00    +0.011 A 
ATOM     22  C   UNL     1       3.563   0.842   6.460  0.00  0.00    +0.010 A 
ATOM     23  C   UNL     1       4.396   0.634   7.525  0.00  0.00    +0.001 A 
ATOM     24  C   UNL     1       5.426   1.522   7.808  0.00  0.00    +0.001 A 
ATOM     25  C   UNL     1       5.634   2.633   7.020  0.00  0.00    +0.014 A 
ATOM     26  C   UNL     1       4.798   2.864   5.929  0.00  0.00    +0.050 A 
ATOM     27  C   UNL     1       4.967   4.029   5.052  0.00  0.00    +0.275 A 
ATOM     28  O   UNL     1       5.856   4.836   5.257  0.00  0.00    -0.266 OA
ATOM     29  N   UNL     1       4.120   4.188   4.013  0.00  0.00    -0.232 N 
ATOM     30  N   UNL     1       3.094   3.278   3.757  0.00  0.00    -0.172 NA
ATOM     31  C   UNL     1       4.281   5.348   3.133  0.00  0.00    +0.176 C 
ENDBRANCH  19  20
ENDBRANCH   2  19
TORSDOF 7
