REMARK  Name = ZINC12486244
REMARK  8 active torsions:
REMARK  status: ('A' for Active; 'I' for Inactive)
REMARK    1  A    between atoms: C_1  and  O_2
REMARK    2  A    between atoms: O_2  and  C_3
REMARK    3  A    between atoms: C_6  and  C_9
REMARK    4  A    between atoms: C_17  and  C_20
REMARK    5  A    between atoms: C_23  and  O_28
REMARK    6  A    between atoms: C_24  and  O_26
REMARK    7  A    between atoms: O_26  and  C_27
REMARK    8  A    between atoms: O_28  and  C_29
REMARK                            x       y       z     vdW  Elec       q    Type
REMARK                         _______ _______ _______ _____ _____    ______ ____
ROOT
ATOM      1  C   UNL     1       3.894   3.308   0.836  0.00  0.00    +0.146 C 
ATOM      2  N   UNL     1       3.767   2.336  -0.013  0.00  0.00    -0.230 NA
ATOM      3  C   UNL     1       2.631   1.598  -0.196  0.00  0.00    +0.075 A 
ATOM      4  C   UNL     1       2.791   0.222  -0.396  0.00  0.00    +0.029 A 
ATOM      5  C   UNL     1       1.693  -0.592  -0.596  0.00  0.00    +0.017 A 
ATOM      6  C   UNL     1       0.421  -0.051  -0.601  0.00  0.00    +0.019 A 
ATOM      7  C   UNL     1       0.245   1.307  -0.402  0.00  0.00    +0.027 A 
ATOM      8  C   UNL     1       1.343   2.143  -0.195  0.00  0.00    +0.029 A 
ATOM      9  C   UNL     1       1.073   3.583   0.021  0.00  0.00    +0.098 C 
ATOM     10  N   UNL     1       1.728   4.306   0.869  0.00  0.00    -0.180 NA
ATOM     11  N   UNL     1       2.818   3.776   1.572  0.00  0.00    -0.220 N 
ATOM     12 BR   UNL     1      -1.080  -1.167  -0.879  0.00  0.00    -0.050 Br
ATOM     13  H   UNL     1       2.819   3.737   2.542  0.00  0.00    +0.176 HD
ENDROOT
BRANCH   1  17
ATOM     14  C   UNL     1       7.704   5.101   1.373  0.00  0.00    +0.120 A 
ATOM     15  C   UNL     1       6.614   5.559   2.103  0.00  0.00    +0.046 A 
ATOM     16  C   UNL     1       5.376   4.980   1.932  0.00  0.00    +0.015 A 
ATOM     17  C   UNL     1       5.217   3.931   1.022  0.00  0.00    +0.017 A 
ATOM     18  C   UNL     1       6.318   3.470   0.293  0.00  0.00    +0.015 A 
ATOM     19  C   UNL     1       7.551   4.058   0.467  0.00  0.00    +0.046 A 
BRANCH  14  21
ATOM     20  C   UNL     1      10.000   5.155   0.762  0.00  0.00    +0.277 C 
ATOM     21  O   UNL     1       8.923   5.674   1.545  0.00  0.00    -0.495 OA
ENDBRANCH  14  21
ENDBRANCH   1  17
BRANCH   9  22
ATOM     22  C   UNL     1       0.003   4.226  -0.772  0.00  0.00    +0.006 A 
ATOM     23  C   UNL     1      -0.384   3.679  -1.997  0.00  0.00    +0.014 A 
ATOM     24  C   UNL     1      -1.386   4.277  -2.733  0.00  0.00    +0.050 A 
ATOM     25  C   UNL     1      -2.004   5.426  -2.264  0.00  0.00    +0.162 A 
ATOM     26  C   UNL     1      -1.619   5.980  -1.045  0.00  0.00    +0.162 A 
ATOM     27  C   UNL     1      -0.619   5.383  -0.300  0.00  0.00    +0.059 A 
BRANCH  26  28
ATOM     28  O   UNL     1      -2.227   7.107  -0.587  0.00  0.00    -0.491 OA
ATOM     29  C   UNL     1      -1.782   7.620   0.670  0.00  0.00    +0.277 C 
ENDBRANCH  26  28
BRANCH  25  30
ATOM     30  O   UNL     1      -2.988   6.014  -2.995  0.00  0.00    -0.491 OA
ATOM     31  C   UNL     1      -3.334   5.394  -4.235  0.00  0.00    +0.277 C 
ENDBRANCH  25  30
ENDBRANCH   9  22
TORSDOF 5
