REMARK  Name = ZINC12879976
REMARK  11 active torsions:
REMARK  status: ('A' for Active; 'I' for Inactive)
REMARK    1  A    between atoms: C_1  and  C_2
REMARK    2  A    between atoms: C_2  and  C_3
REMARK    3  A    between atoms: C_3  and  O_4
REMARK    4  A    between atoms: O_4  and  C_5
REMARK    5  A    between atoms: C_9  and  C_14
REMARK    6  A    between atoms: C_10  and  O_11
REMARK    7  A    between atoms: O_11  and  C_12
REMARK    8  A    between atoms: C_12  and  C_13
REMARK    9  A    between atoms: N_20  and  C_35
REMARK   10  A    between atoms: C_23  and  C_34
REMARK   11  A    between atoms: C_38  and  C_41
REMARK                            x       y       z     vdW  Elec       q    Type
REMARK                         _______ _______ _______ _____ _____    ______ ____
ROOT
ATOM      1  C   UNL     1      -1.284  -0.772  -0.033  0.00  0.00    +0.072 C 
ATOM      2  C   UNL     1      -1.364  -1.665  -1.280  0.00  0.00    +0.123 C 
ATOM      3  N   UNL     1      -2.335  -2.725  -1.008  0.00  0.00    -0.265 N 
ATOM      4  C   UNL     1      -3.526  -2.973  -1.553  0.00  0.00    +0.317 C 
ATOM      5  O   UNL     1      -3.914  -2.485  -2.596  0.00  0.00    -0.252 OA
ATOM      6  N   UNL     1      -4.246  -3.829  -0.809  0.00  0.00    -0.192 N 
ATOM      7  C   UNL     1      -3.534  -4.296   0.240  0.00  0.00    +0.257 C 
ATOM      8  O   UNL     1      -3.924  -5.029   1.123  0.00  0.00    -0.272 OA
ATOM      9  C   UNL     1      -2.150  -3.712   0.081  0.00  0.00    +0.153 C 
ATOM     10  C   UNL     1      -1.746  -2.905   1.291  0.00  0.00    +0.054 A 
ATOM     11  C   UNL     1      -1.351  -1.614   1.215  0.00  0.00    -0.008 A 
ATOM     12  C   UNL     1      -1.009  -1.206   2.567  0.00  0.00    +0.004 A 
ATOM     13  C   UNL     1      -0.535  -0.003   3.097  0.00  0.00    +0.010 A 
ATOM     14  C   UNL     1      -0.314   0.033   4.452  0.00  0.00    +0.001 A 
ATOM     15  C   UNL     1      -0.547  -1.064   5.265  0.00  0.00    +0.002 A 
ATOM     16  C   UNL     1      -1.016  -2.267   4.766  0.00  0.00    +0.026 A 
ATOM     17  C   UNL     1      -1.248  -2.333   3.393  0.00  0.00    +0.047 A 
ATOM     18  N   UNL     1      -1.697  -3.339   2.588  0.00  0.00    -0.356 N 
ATOM     19  H   UNL     1      -1.944  -4.227   2.890  0.00  0.00    +0.166 HD
ATOM     20  C   UNL     1      -1.113  -4.783  -0.263  0.00  0.00    +0.048 C 
ENDROOT
BRANCH   6  21
ATOM     21  C   UNL     1      -5.572  -4.191  -1.085  0.00  0.00    +0.045 A 
ATOM     22  C   UNL     1      -6.267  -3.559  -2.107  0.00  0.00    +0.024 A 
ATOM     23  C   UNL     1      -7.571  -3.922  -2.380  0.00  0.00    +0.005 A 
ATOM     24  C   UNL     1      -8.188  -4.906  -1.630  0.00  0.00    -0.050 A 
ATOM     25  C   UNL     1      -7.500  -5.534  -0.609  0.00  0.00    +0.005 A 
ATOM     26  C   UNL     1      -6.194  -5.179  -0.334  0.00  0.00    +0.024 A 
ATOM     27  C   UNL     1      -9.614  -5.295  -1.927  0.00  0.00    +0.044 C 
ENDBRANCH   6  21
BRANCH   1  32
ATOM     28  C   UNL     1       1.201   2.083  -0.084  0.00  0.00    +0.162 A 
ATOM     29  C   UNL     1       2.404   1.396  -0.080  0.00  0.00    +0.049 A 
ATOM     30  C   UNL     1       2.410   0.013  -0.061  0.00  0.00    +0.004 A 
ATOM     31  C   UNL     1       1.217  -0.686  -0.045  0.00  0.00    +0.008 A 
ATOM     32  C   UNL     1       0.013  -0.006  -0.050  0.00  0.00    +0.007 A 
ATOM     33  C   UNL     1       0.000   1.379  -0.069  0.00  0.00    +0.166 A 
BRANCH  28  34
ATOM     34  O   UNL     1       1.193   3.443  -0.104  0.00  0.00    -0.488 OA
BRANCH  34  35
ATOM     35  C   UNL     1       2.462   4.099  -0.119  0.00  0.00    +0.229 C 
BRANCH  35  37
ATOM     36  C   UNL     1       3.613   6.316  -0.155  0.00  0.00    +0.007 C 
ATOM     37  C   UNL     1       2.253   5.614  -0.140  0.00  0.00    +0.038 C 
ENDBRANCH  35  37
ENDBRANCH  34  35
ENDBRANCH  28  34
BRANCH  33  38
ATOM     38  O   UNL     1      -1.183   2.050  -0.080  0.00  0.00    -0.488 OA
BRANCH  38  39
ATOM     39  C   UNL     1      -1.748   2.387   1.189  0.00  0.00    +0.226 C 
ATOM     40  C   UNL     1      -3.068   3.132   0.977  0.00  0.00    +0.048 C 
ENDBRANCH  38  39
ENDBRANCH  33  38
ENDBRANCH   1  32
TORSDOF 7
