REMARK  Name = ZINC09103655
REMARK  12 active torsions:
REMARK  status: ('A' for Active; 'I' for Inactive)
REMARK    1  A    between atoms: C_1  and  C_2
REMARK    2  A    between atoms: C_5  and  N_11
REMARK    3  A    between atoms: C_6  and  N_8
REMARK    4  A    between atoms: C_12  and  C_14
REMARK    5  A    between atoms: C_14  and  S_15
REMARK    6  A    between atoms: S_15  and  C_16
REMARK    7  A    between atoms: C_19  and  C_28
REMARK    8  A    between atoms: N_20  and  C_21
REMARK    9  A    between atoms: C_28  and  C_30
REMARK   10  A    between atoms: C_28  and  N_55
REMARK   11  A    between atoms: C_31  and  N_55
REMARK   12  A    between atoms: C_32  and  N_55
REMARK                            x       y       z     vdW  Elec       q    Type
REMARK                         _______ _______ _______ _____ _____    ______ ____
ROOT
ATOM      1  C   UNL     1      -6.246   1.723  -0.551  0.00  0.00    +0.197 A 
ATOM      2  N   UNL     1      -6.252   3.035  -0.506  0.00  0.00    -0.122 NA
ATOM      3  N   UNL     1      -7.456   3.472  -0.617  0.00  0.00    -0.135 NA
ATOM      4  C   UNL     1      -8.285   2.474  -0.739  0.00  0.00    +0.125 A 
ATOM      5  N   UNL     1      -7.545   1.323  -0.706  0.00  0.00    -0.275 N 
ENDROOT
BRANCH   5   6
ATOM      6  C   UNL     1      -8.020   0.006  -0.807  0.00  0.00    +0.050 A 
ATOM      7  C   UNL     1      -8.618  -0.428  -1.982  0.00  0.00    +0.028 A 
ATOM      8  C   UNL     1      -9.080  -1.726  -2.082  0.00  0.00    +0.022 A 
ATOM      9  C   UNL     1      -8.957  -2.590  -1.008  0.00  0.00    +0.041 A 
ATOM     10  C   UNL     1      -8.366  -2.157   0.167  0.00  0.00    +0.022 A 
ATOM     11  C   UNL     1      -7.897  -0.862   0.269  0.00  0.00    +0.028 A 
ATOM     12 CL   UNL     1      -9.545  -4.218  -1.133  0.00  0.00    -0.084 Cl
ENDBRANCH   5   6
BRANCH   4  13
ATOM     13  C   UNL     1      -9.781   2.571  -0.892  0.00  0.00    -0.003 C 
ATOM     14  C   UNL     1     -10.121   3.023  -2.313  0.00  0.00    -0.005 C 
BRANCH  13  17
ATOM     15  C   UNL     1      -9.840   4.901  -0.239  0.00  0.00    -0.096 C 
ATOM     16  C   UNL     1     -11.778   3.495   0.119  0.00  0.00    -0.096 C 
ATOM     17  N   UNL     1     -10.301   3.538   0.098  0.00  0.00    +0.382 N 
ATOM     18  H   UNL     1      -9.947   3.286   1.028  0.00  0.00    -0.082 HD
ENDBRANCH  13  17
ENDBRANCH   4  13
BRANCH   1  19
ATOM     19  S   UNL     1      -4.833   0.677  -0.439  0.00  0.00    -0.076 S 
BRANCH  19  20
ATOM     20  C   UNL     1      -3.533   1.923  -0.260  0.00  0.00    +0.173 C 
BRANCH  20  22
ATOM     21  N   UNL     1      -1.073   1.974  -0.001  0.00  0.00    -0.283 N 
ATOM     22  C   UNL     1      -2.195   1.240  -0.144  0.00  0.00    +0.228 C 
ATOM     23  O   UNL     1      -2.127   0.029  -0.179  0.00  0.00    -0.275 OA
ATOM     24  H   UNL     1      -1.134   2.936   0.109  0.00  0.00    +0.155 HD
BRANCH  21  29
ATOM     25  C   UNL     1       4.006  -0.553  -0.059  0.00  0.00    +0.044 C 
ATOM     26  C   UNL     1       2.656   0.117  -0.042  0.00  0.00    -0.048 A 
ATOM     27  C   UNL     1       1.582  -0.479  -0.676  0.00  0.00    +0.005 A 
ATOM     28  C   UNL     1       0.344   0.133  -0.662  0.00  0.00    +0.026 A 
ATOM     29  C   UNL     1       0.178   1.349  -0.011  0.00  0.00    +0.064 A 
ATOM     30  C   UNL     1       1.259   1.944   0.625  0.00  0.00    +0.148 A 
ATOM     31  C   UNL     1       2.495   1.327   0.608  0.00  0.00    +0.038 A 
BRANCH  30  32
ATOM     32  N   UNL     1       1.088   3.240   1.319  0.00  0.00    +0.058 N 
ATOM     33  O   UNL     1       2.054   3.810   1.793  0.00  0.00    -0.126 OA
ATOM     34  O   UNL     1      -0.020   3.737   1.417  0.00  0.00    -0.126 OA
ENDBRANCH  30  32
ENDBRANCH  21  29
ENDBRANCH  20  22
ENDBRANCH  19  20
ENDBRANCH   1  19
TORSDOF 8
