REMARK  Name = ZINC07602231
REMARK  7 active torsions:
REMARK  status: ('A' for Active; 'I' for Inactive)
REMARK    1  A    between atoms: C_1  and  C_2
REMARK    2  A    between atoms: C_2  and  C_4
REMARK    3  A    between atoms: C_2  and  O_17
REMARK    4  A    between atoms: N_6  and  C_7
REMARK    5  A    between atoms: O_17  and  C_18
REMARK    6  A    between atoms: C_18  and  C_20
REMARK    7  A    between atoms: C_21  and  C_22
REMARK                            x       y       z     vdW  Elec       q    Type
REMARK                         _______ _______ _______ _____ _____    ______ ____
ROOT
ATOM      1  C   UNL     1      -6.612   2.574   1.558  0.00  0.00    +0.062 C 
ATOM      2  C   UNL     1      -6.120   2.120   0.183  0.00  0.00    +0.259 C 
ENDROOT
BRANCH   2   3
ATOM      3  C   UNL     1      -7.218   1.365  -0.520  0.00  0.00    +0.258 C 
ATOM      4  O   UNL     1      -7.079   0.186  -0.771  0.00  0.00    -0.271 OA
ATOM      5  N   UNL     1      -8.355   1.999  -0.870  0.00  0.00    -0.282 N 
ATOM      6  H   UNL     1      -8.498   2.920  -0.602  0.00  0.00    +0.155 HD
BRANCH   5   7
ATOM      7  C   UNL     1      -9.328   1.329  -1.619  0.00  0.00    +0.034 A 
ATOM      8  C   UNL     1      -8.937   0.380  -2.571  0.00  0.00    +0.024 A 
ATOM      9  C   UNL     1      -9.861  -0.290  -3.310  0.00  0.00    +0.010 A 
ATOM     10  C   UNL     1     -11.229  -0.024  -3.128  0.00  0.00    -0.018 A 
ATOM     11  C   UNL     1     -12.206  -0.698  -3.881  0.00  0.00    +0.008 A 
ATOM     12  C   UNL     1     -13.523  -0.417  -3.682  0.00  0.00    +0.001 A 
ATOM     13  C   UNL     1     -13.920   0.530  -2.740  0.00  0.00    +0.001 A 
ATOM     14  C   UNL     1     -13.003   1.201  -1.992  0.00  0.00    +0.008 A 
ATOM     15  C   UNL     1     -11.633   0.939  -2.170  0.00  0.00    -0.016 A 
ATOM     16  C   UNL     1     -10.659   1.613  -1.415  0.00  0.00    +0.031 A 
ENDBRANCH   5   7
ENDBRANCH   2   3
BRANCH   2  17
ATOM     17  O   UNL     1      -4.983   1.268   0.342  0.00  0.00    -0.449 OA
BRANCH  17  18
ATOM     18  C   UNL     1      -3.771   1.861   0.353  0.00  0.00    +0.333 C 
ATOM     19  O   UNL     1      -3.683   3.068   0.232  0.00  0.00    -0.246 OA
BRANCH  18  20
ATOM     20  C   UNL     1      -2.600   1.077   0.508  0.00  0.00    +0.092 C 
ATOM     21  C   UNL     1      -1.386   1.670   0.519  0.00  0.00    +0.015 C 
BRANCH  21  22
ATOM     22  C   UNL     1      -0.172   0.857   0.679  0.00  0.00    -0.021 A 
ATOM     23  C   UNL     1      -0.271  -0.532   0.819  0.00  0.00    +0.012 A 
ATOM     24  C   UNL     1       0.869  -1.292   0.963  0.00  0.00    +0.050 A 
ATOM     25  C   UNL     1       2.118  -0.685   0.970  0.00  0.00    +0.166 A 
ATOM     26  C   UNL     1       2.224   0.700   0.830  0.00  0.00    +0.167 A 
ATOM     27  C   UNL     1       1.087   1.469   0.685  0.00  0.00    +0.057 A 
ATOM     28  O   UNL     1       3.546   1.041   0.868  0.00  0.00    -0.453 OA
ATOM     29  C   UNL     1       4.265  -0.182   0.621  0.00  0.00    +0.466 C 
ATOM     30  O   UNL     1       3.372  -1.207   1.095  0.00  0.00    -0.453 OA
ENDBRANCH  21  22
ENDBRANCH  18  20
ENDBRANCH  17  18
ENDBRANCH   2  17
TORSDOF 6
