REMARK  Name = ZINC16269518
REMARK  8 active torsions:
REMARK  status: ('A' for Active; 'I' for Inactive)
REMARK    1  A    between atoms: C_1  and  C_2
REMARK    2  A    between atoms: C_6  and  C_9
REMARK    3  A    between atoms: C_7  and  O_8
REMARK    4  A    between atoms: N_10  and  C_11
REMARK    5  A    between atoms: C_11  and  C_12
REMARK    6  A    between atoms: C_12  and  N_13
REMARK    7  A    between atoms: N_13  and  C_14
REMARK    8  A    between atoms: C_17  and  N_20
REMARK                            x       y       z     vdW  Elec       q    Type
REMARK                         _______ _______ _______ _____ _____    ______ ____
ROOT
ATOM      1  C   UNL     1       3.889  -5.743   0.951  0.00  0.00    +0.090 C 
ATOM      2  N   UNL     1       3.543  -5.009  -0.058  0.00  0.00    -0.388 N 
ATOM      3  H   UNL     1       4.211  -4.920  -0.927  0.00  0.00    +0.159 HD
ENDROOT
BRANCH   1   9
ATOM      4  C   UNL     1       8.161  -6.913  -1.363  0.00  0.00    +0.047 C 
ATOM      5  C   UNL     1       7.239  -7.027  -0.177  0.00  0.00    -0.007 A 
ATOM      6  C   UNL     1       7.600  -7.808   0.904  0.00  0.00    +0.021 A 
ATOM      7  C   UNL     1       6.760  -7.920   2.000  0.00  0.00    +0.014 A 
ATOM      8  C   UNL     1       5.553  -7.252   2.021  0.00  0.00    +0.027 A 
ATOM      9  C   UNL     1       5.177  -6.459   0.935  0.00  0.00    +0.033 A 
ATOM     10  C   UNL     1       6.028  -6.353  -0.174  0.00  0.00    +0.128 A 
ATOM     11  I   UNL     1       7.324  -9.108   3.630  0.00  0.00    -0.044 I 
BRANCH  10  12
ATOM     12  O   UNL     1       5.670  -5.590  -1.237  0.00  0.00    -0.506 OA
ATOM     13  H   UNL     1       4.709  -5.056  -1.232  0.00  0.00    +0.292 HD
ENDBRANCH  10  12
ENDBRANCH   1   9
BRANCH   2  14
ATOM     14  C   UNL     1       2.263  -4.298  -0.042  0.00  0.00    +0.131 C 
BRANCH  14  15
ATOM     15  C   UNL     1       2.518  -2.789  -0.037  0.00  0.00    +0.122 C 
BRANCH  15  16
ATOM     16  N   UNL     1       1.238  -2.077  -0.021  0.00  0.00    -0.342 N 
ATOM     17  H   UNL     1       0.294  -2.643  -0.014  0.00  0.00    +0.146 HD
BRANCH  16  18
ATOM     18  C   UNL     1       1.215  -0.681  -0.013  0.00  0.00    +0.027 A 
ATOM     19  C   UNL     1       0.002  -0.004   0.002  0.00  0.00    +0.025 A 
ATOM     20  C   UNL     1      -0.017   1.377   0.010  0.00  0.00    +0.034 A 
ATOM     21  C   UNL     1       1.171   2.086   0.002  0.00  0.00    +0.126 A 
ATOM     22  C   UNL     1       2.380   1.416  -0.013  0.00  0.00    +0.034 A 
ATOM     23  C   UNL     1       2.406   0.035  -0.021  0.00  0.00    +0.025 A 
BRANCH  21  24
ATOM     24  N   UNL     1       1.147   3.566   0.010  0.00  0.00    +0.056 N 
ATOM     25  O   UNL     1       0.082   4.158   0.023  0.00  0.00    -0.126 OA
ATOM     26  O   UNL     1       2.191   4.192   0.003  0.00  0.00    -0.126 OA
ENDBRANCH  21  24
ENDBRANCH  16  18
ENDBRANCH  15  16
ENDBRANCH  14  15
ENDBRANCH   2  14
TORSDOF 7
