REMARK  Name = ZINC63351468
REMARK  10 active torsions:
REMARK  status: ('A' for Active; 'I' for Inactive)
REMARK    1  A    between atoms: C_1  and  C_2
REMARK    2  A    between atoms: C_2  and  C_3
REMARK    3  A    between atoms: C_2  and  O_4
REMARK    4  A    between atoms: O_4  and  C_5
REMARK    5  A    between atoms: C_5  and  C_6
REMARK    6  A    between atoms: C_6  and  C_7
REMARK    7  A    between atoms: C_7  and  N_8
REMARK    8  A    between atoms: C_9  and  C_11
REMARK    9  A    between atoms: C_14  and  N_17
REMARK   10  A    between atoms: C_20  and  C_36
REMARK                            x       y       z     vdW  Elec       q    Type
REMARK                         _______ _______ _______ _____ _____    ______ ____
ROOT
ATOM      1  N   UNL     1       8.350  -3.847  -8.339  0.00  0.00    -0.192 N 
ATOM      2  C   UNL     1       9.672  -4.028  -8.542  0.00  0.00    +0.253 C 
ATOM      3  O   UNL     1      10.570  -3.804  -7.759  0.00  0.00    -0.272 OA
ATOM      4  C   UNL     1       9.798  -4.567  -9.949  0.00  0.00    +0.137 C 
ATOM      5  C   UNL     1      10.662  -3.642 -10.806  0.00  0.00    +0.139 C 
ATOM      6  C   UNL     1       9.747  -2.988 -11.831  0.00  0.00    -0.034 C 
ATOM      7  C   UNL     1       9.899  -1.674 -11.680  0.00  0.00    -0.001 A 
ATOM      8  C   UNL     1       9.334  -0.534 -12.419  0.00  0.00    +0.010 A 
ATOM      9  C   UNL     1       9.698   0.701 -11.984  0.00  0.00    +0.001 A 
ATOM     10  C   UNL     1      10.557   0.913 -10.902  0.00  0.00    +0.002 A 
ATOM     11  C   UNL     1      11.127  -0.077 -10.168  0.00  0.00    +0.026 A 
ATOM     12  C   UNL     1      10.822  -1.421 -10.533  0.00  0.00    +0.043 A 
ATOM     13  N   UNL     1      11.245  -2.554 -10.018  0.00  0.00    -0.375 N 
ATOM     14  C   UNL     1       8.828  -3.760 -12.745  0.00  0.00    +0.052 C 
ATOM     15  C   UNL     1       8.018  -4.726 -11.858  0.00  0.00    +0.115 C 
ATOM     16  N   UNL     1       8.416  -4.500 -10.465  0.00  0.00    -0.268 N 
ATOM     17  C   UNL     1       7.636  -4.158  -9.430  0.00  0.00    +0.316 C 
ATOM     18  O   UNL     1       6.422  -4.130  -9.476  0.00  0.00    -0.252 OA
ATOM     19  C   UNL     1      10.326  -6.003  -9.950  0.00  0.00    +0.044 C 
ATOM     20  H   UNL     1      11.832  -2.659  -9.253  0.00  0.00    +0.160 HD
ENDROOT
BRANCH   1  24
ATOM     21  C   UNL     1       6.691  -2.505  -4.758  0.00  0.00    +0.037 A 
ATOM     22  C   UNL     1       5.881  -2.682  -5.882  0.00  0.00    +0.015 A 
ATOM     23  C   UNL     1       6.432  -3.125  -7.064  0.00  0.00    +0.025 A 
ATOM     24  C   UNL     1       7.794  -3.397  -7.138  0.00  0.00    +0.045 A 
ATOM     25  C   UNL     1       8.603  -3.223  -6.021  0.00  0.00    +0.025 A 
ATOM     26  C   UNL     1       8.060  -2.775  -4.838  0.00  0.00    +0.015 A 
BRANCH  21  28
ATOM     27  N   UNL     1       4.783  -1.770  -3.414  0.00  0.00    -0.311 N 
ATOM     28  C   UNL     1       6.104  -2.030  -3.490  0.00  0.00    +0.244 C 
ATOM     29  O   UNL     1       6.811  -1.872  -2.514  0.00  0.00    -0.270 OA
ATOM     30  H   UNL     1       4.219  -1.896  -4.193  0.00  0.00    +0.149 HD
BRANCH  27  31
ATOM     31  C   UNL     1       4.200  -1.298  -2.156  0.00  0.00    +0.107 C 
BRANCH  31  32
ATOM     32  C   UNL     1       2.697  -1.082  -2.339  0.00  0.00    +0.047 C 
BRANCH  32  33
ATOM     33  C   UNL     1       2.088  -0.589  -1.025  0.00  0.00    +0.161 C 
BRANCH  33  34
ATOM     34  O   UNL     1       0.684  -0.387  -1.197  0.00  0.00    -0.377 OA
BRANCH  34  36
ATOM     35  C   UNL     1       0.022   1.606  -0.001  0.00  0.00    +0.037 C 
ATOM     36  C   UNL     1       0.016   0.076  -0.022  0.00  0.00    +0.112 C 
ATOM     37  C   UNL     1      -1.429  -0.428  -0.025  0.00  0.00    +0.037 C 
ENDBRANCH  34  36
ENDBRANCH  33  34
ENDBRANCH  32  33
ENDBRANCH  31  32
ENDBRANCH  27  31
ENDBRANCH  21  28
ENDBRANCH   1  24
TORSDOF 7
