REMARK  Name = ZINC13065091
REMARK  15 active torsions:
REMARK  status: ('A' for Active; 'I' for Inactive)
REMARK    1  A    between atoms: C_1  and  C_2
REMARK    2  A    between atoms: C_2  and  C_3
REMARK    3  A    between atoms: C_3  and  C_5
REMARK    4  A    between atoms: C_3  and  N_65
REMARK    5  A    between atoms: N_9  and  C_10
REMARK    6  A    between atoms: C_10  and  C_11
REMARK    7  A    between atoms: C_11  and  O_13
REMARK    8  A    between atoms: O_13  and  C_14
REMARK    9  A    between atoms: C_14  and  C_15
REMARK   10  A    between atoms: C_16  and  C_17
REMARK   11  A    between atoms: C_16  and  N_65
REMARK   12  A    between atoms: C_22  and  C_23
REMARK   13  A    between atoms: C_22  and  N_65
REMARK   14  A    between atoms: C_28  and  C_36
REMARK   15  A    between atoms: C_29  and  C_35
REMARK                            x       y       z     vdW  Elec       q    Type
REMARK                         _______ _______ _______ _____ _____    ______ ____
ROOT
ATOM      1  N   UNL     1       0.567   4.047  -1.329  0.00  0.00    +0.392 N 
ATOM      2  H   UNL     1      -0.199   3.420  -1.602  0.00  0.00    -0.080 HD
ENDROOT
BRANCH   1   3
ATOM      3  C   UNL     1       0.282   5.405  -1.839  0.00  0.00    +0.003 C 
BRANCH   3   4
ATOM      4  C   UNL     1      -0.383   5.282  -3.186  0.00  0.00    +0.139 A 
ATOM      5  N   UNL     1      -0.015   4.502  -4.173  0.00  0.00    -0.115 NA
ATOM      6  N   UNL     1      -0.833   4.684  -5.151  0.00  0.00    -0.023 NA
ATOM      7  N   UNL     1      -1.714   5.560  -4.814  0.00  0.00    -0.043 NA
ATOM      8  N   UNL     1      -1.474   5.949  -3.607  0.00  0.00    -0.220 N 
BRANCH   8   9
ATOM      9  C   UNL     1      -2.242   6.933  -2.841  0.00  0.00    +0.267 C 
BRANCH   9  10
ATOM     10  C   UNL     1      -1.677   8.309  -3.082  0.00  0.00    +0.329 C 
ATOM     11  O   UNL     1      -0.729   8.453  -3.818  0.00  0.00    -0.249 OA
BRANCH  10  12
ATOM     12  O   UNL     1      -2.225   9.375  -2.479  0.00  0.00    -0.464 OA
BRANCH  12  13
ATOM     13  C   UNL     1      -1.629  10.670  -2.757  0.00  0.00    +0.229 C 
ATOM     14  C   UNL     1      -2.383  11.755  -1.986  0.00  0.00    +0.048 C 
ENDBRANCH  12  13
ENDBRANCH  10  12
ENDBRANCH   9  10
ENDBRANCH   8   9
ENDBRANCH   3   4
BRANCH   3  16
ATOM     15  C   UNL     1       2.184   6.443  -0.597  0.00  0.00    +0.002 C 
ATOM     16  C   UNL     1       1.578   6.205  -1.981  0.00  0.00    -0.011 C 
ENDBRANCH   3  16
ENDBRANCH   1   3
BRANCH   1  17
ATOM     17  C   UNL     1       1.829   3.544  -1.910  0.00  0.00    -0.034 C 
BRANCH  17  18
ATOM     18  C   UNL     1       1.879   2.048  -1.735  0.00  0.00    -0.027 A 
ATOM     19  C   UNL     1       1.436   1.075  -2.569  0.00  0.00    +0.009 A 
ATOM     20  C   UNL     1       1.590  -0.247  -2.198  0.00  0.00    +0.008 A 
ATOM     21  C   UNL     1       2.178  -0.533  -1.011  0.00  0.00    +0.045 A 
ATOM     22  S   UNL     1       2.544   1.096  -0.378  0.00  0.00    -0.103 S 
ENDBRANCH  17  18
ENDBRANCH   1  17
BRANCH   1  23
ATOM     23  C   UNL     1       0.664   4.072   0.146  0.00  0.00    -0.036 C 
BRANCH  23  24
ATOM     24  C   UNL     1      -0.729   4.084   0.721  0.00  0.00    +0.001 A 
ATOM     25  C   UNL     1      -1.340   2.915   1.034  0.00  0.00    +0.017 A 
ATOM     26  C   UNL     1      -2.694   2.961   1.590  0.00  0.00    -0.001 A 
ATOM     27  C   UNL     1      -3.376   1.788   1.931  0.00  0.00    +0.010 A 
ATOM     28  C   UNL     1      -4.639   1.865   2.447  0.00  0.00    +0.004 A 
ATOM     29  C   UNL     1      -5.250   3.097   2.637  0.00  0.00    -0.046 A 
ATOM     30  C   UNL     1      -4.597   4.265   2.309  0.00  0.00    -0.024 A 
ATOM     31  C   UNL     1      -3.311   4.212   1.781  0.00  0.00    +0.052 A 
ATOM     32  N   UNL     1      -2.634   5.364   1.443  0.00  0.00    -0.322 N 
ATOM     33  H   UNL     1      -3.061   6.225   1.576  0.00  0.00    +0.169 HD
ATOM     34  C   UNL     1      -1.391   5.312   0.932  0.00  0.00    +0.251 A 
ATOM     35  O   UNL     1      -0.825   6.351   0.640  0.00  0.00    -0.268 OA
ATOM     36  C   UNL     1      -5.273   5.595   2.521  0.00  0.00    +0.046 C 
ATOM     37  C   UNL     1      -6.643   3.157   3.209  0.00  0.00    +0.044 C 
ENDBRANCH  23  24
ENDBRANCH   1  23
TORSDOF 11
