REMARK  Name = ZINC41668181
REMARK  10 active torsions:
REMARK  status: ('A' for Active; 'I' for Inactive)
REMARK    1  A    between atoms: C_1  and  C_2
REMARK    2  A    between atoms: C_2  and  C_4
REMARK    3  A    between atoms: C_2  and  N_11
REMARK    4  A    between atoms: C_12  and  N_16
REMARK    5  A    between atoms: N_20  and  C_28
REMARK    6  A    between atoms: N_23  and  C_25
REMARK    7  A    between atoms: C_25  and  C_26
REMARK    8  A    between atoms: C_25  and  C_27
REMARK    9  A    between atoms: C_28  and  C_29
REMARK   10  A    between atoms: C_28  and  C_30
REMARK                            x       y       z     vdW  Elec       q    Type
REMARK                         _______ _______ _______ _____ _____    ______ ____
ROOT
ATOM      1  N   UNL     1      -1.324  -1.778  -2.088  0.00  0.00    -0.279 N 
ATOM      2  C   UNL     1      -2.035  -2.586  -2.976  0.00  0.00    +0.210 A 
ATOM      3  C   UNL     1      -1.393  -3.100  -4.197  0.00  0.00    +0.297 A 
ATOM      4  O   UNL     1      -0.234  -2.826  -4.447  0.00  0.00    -0.264 OA
ATOM      5  N   UNL     1      -2.107  -3.880  -5.035  0.00  0.00    -0.254 N 
ATOM      6  C   UNL     1      -3.389  -4.179  -4.751  0.00  0.00    +0.349 A 
ATOM      7  O   UNL     1      -4.022  -4.883  -5.515  0.00  0.00    -0.245 OA
ATOM      8  N   UNL     1      -3.981  -3.712  -3.637  0.00  0.00    -0.210 N 
ATOM      9  N   UNL     1      -3.281  -2.904  -2.734  0.00  0.00    -0.146 NA
ATOM     10  H   UNL     1      -0.401  -1.547  -2.275  0.00  0.00    +0.155 HD
ENDROOT
BRANCH   1  12
ATOM     11  N   UNL     1      -1.372  -0.511   0.012  0.00  0.00    -0.266 N 
ATOM     12  C   UNL     1      -1.940  -1.302  -0.934  0.00  0.00    +0.121 A 
ATOM     13  C   UNL     1      -3.224  -1.545  -0.547  0.00  0.00    +0.062 A 
ATOM     14  C   UNL     1      -3.438  -0.884   0.665  0.00  0.00    +0.105 A 
ATOM     15  N   UNL     1      -2.333  -0.272   1.003  0.00  0.00    -0.303 N 
ATOM     16  H   UNL     1      -2.201   0.261   1.804  0.00  0.00    +0.186 HD
BRANCH  11  18
ATOM     17  C   UNL     1      -0.019   1.526   0.010  0.00  0.00    +0.038 C 
ATOM     18  C   UNL     1       0.002  -0.004   0.002  0.00  0.00    +0.134 C 
BRANCH  18  19
ATOM     19  C   UNL     1       0.731  -0.503   1.223  0.00  0.00    -0.023 A 
ATOM     20  C   UNL     1       0.263  -0.187   2.485  0.00  0.00    +0.007 A 
ATOM     21  C   UNL     1       0.931  -0.645   3.605  0.00  0.00    +0.020 A 
ATOM     22  C   UNL     1       2.068  -1.419   3.463  0.00  0.00    +0.041 A 
ATOM     23  C   UNL     1       2.536  -1.735   2.200  0.00  0.00    +0.020 A 
ATOM     24  C   UNL     1       1.864  -1.282   1.081  0.00  0.00    +0.007 A 
ATOM     25 CL   UNL     1       2.908  -1.994   4.870  0.00  0.00    -0.084 Cl
ENDBRANCH  18  19
ENDBRANCH  11  18
ENDBRANCH   1  12
BRANCH   8  26
ATOM     26  C   UNL     1      -5.377  -4.059  -3.363  0.00  0.00    +0.106 C 
ATOM     27  C   UNL     1      -5.464  -4.811  -2.034  0.00  0.00    +0.032 C 
ATOM     28  C   UNL     1      -6.214  -2.781  -3.282  0.00  0.00    +0.032 C 
ENDBRANCH   8  26
BRANCH   5  29
ATOM     29  C   UNL     1      -1.488  -4.402  -6.256  0.00  0.00    +0.089 C 
ATOM     30  C   UNL     1      -1.030  -3.236  -7.134  0.00  0.00    +0.031 C 
ATOM     31  C   UNL     1      -0.280  -5.266  -5.886  0.00  0.00    +0.031 C 
ENDBRANCH   5  29
TORSDOF 5
