REMARK  Name = ZINC20850680
REMARK  12 active torsions:
REMARK  status: ('A' for Active; 'I' for Inactive)
REMARK    1  A    between atoms: C_1  and  C_2
REMARK    2  A    between atoms: C_5  and  C_9
REMARK    3  A    between atoms: C_6  and  C_8
REMARK    4  A    between atoms: C_9  and  S_10
REMARK    5  A    between atoms: S_10  and  C_11
REMARK    6  A    between atoms: C_16  and  C_28
REMARK    7  A    between atoms: C_22  and  C_26
REMARK    8  A    between atoms: C_22  and  C_27
REMARK    9  A    between atoms: C_31  and  O_36
REMARK   10  A    between atoms: C_32  and  O_34
REMARK   11  A    between atoms: O_34  and  C_35
REMARK   12  A    between atoms: O_36  and  C_37
REMARK                            x       y       z     vdW  Elec       q    Type
REMARK                         _______ _______ _______ _____ _____    ______ ____
ROOT
ATOM      1  C   UNL     1       5.573   2.712   0.869  0.00  0.00    +0.211 A 
ATOM      2  N   UNL     1       4.747   3.744   0.643  0.00  0.00    -0.187 NA
ATOM      3  C   UNL     1       3.566   3.293   0.318  0.00  0.00    +0.219 A 
ATOM      4  N   UNL     1       3.615   1.938   0.325  0.00  0.00    -0.220 N 
ATOM      5  N   UNL     1       4.915   1.588   0.685  0.00  0.00    -0.141 NA
ATOM      6  C   UNL     1       2.474   1.093  -0.002  0.00  0.00    +0.176 C 
ATOM      7  C   UNL     1       1.203   1.915   0.001  0.00  0.00    +0.041 C 
ATOM      8  C   UNL     1       1.222   3.265  -0.007  0.00  0.00    +0.020 C 
ATOM      9  N   UNL     1       2.400   3.973   0.005  0.00  0.00    -0.287 N 
ATOM     10  C   UNL     1      -0.063   4.058  -0.034  0.00  0.00    +0.058 C 
ATOM     11  C   UNL     1      -1.157   3.288   0.708  0.00  0.00    -0.023 C 
ATOM     12  C   UNL     1      -1.336   1.928   0.019  0.00  0.00    +0.086 C 
ATOM     13  C   UNL     1      -0.014   1.211   0.009  0.00  0.00    +0.164 C 
ATOM     14  O   UNL     1       0.002  -0.004   0.002  0.00  0.00    -0.292 OA
ATOM     15  C   UNL     1      -0.744   3.082   2.167  0.00  0.00    +0.011 C 
ATOM     16  C   UNL     1      -2.470   4.071   0.648  0.00  0.00    +0.011 C 
ATOM     17  H   UNL     1       2.436   5.048  -0.225  0.00  0.00    +0.155 HD
ENDROOT
BRANCH   6  18
ATOM     18  C   UNL     1       2.674   0.487  -1.367  0.00  0.00    -0.015 A 
ATOM     19  C   UNL     1       2.796   1.306  -2.474  0.00  0.00    +0.010 A 
ATOM     20  C   UNL     1       2.986   0.756  -3.728  0.00  0.00    +0.050 A 
ATOM     21  C   UNL     1       3.043  -0.621  -3.879  0.00  0.00    +0.162 A 
ATOM     22  C   UNL     1       2.915  -1.445  -2.765  0.00  0.00    +0.162 A 
ATOM     23  C   UNL     1       2.730  -0.887  -1.511  0.00  0.00    +0.055 A 
BRANCH  22  24
ATOM     24  O   UNL     1       2.970  -2.797  -2.908  0.00  0.00    -0.491 OA
ATOM     25  C   UNL     1       2.830  -3.581  -1.721  0.00  0.00    +0.277 C 
ENDBRANCH  22  24
BRANCH  21  26
ATOM     26  O   UNL     1       3.224  -1.164  -5.112  0.00  0.00    -0.491 OA
ATOM     27  C   UNL     1       3.347  -0.257  -6.209  0.00  0.00    +0.277 C 
ENDBRANCH  21  26
ENDBRANCH   6  18
BRANCH   1  28
ATOM     28  S   UNL     1       7.267   2.842   1.338  0.00  0.00    -0.080 S 
BRANCH  28  29
ATOM     29  C   UNL     1       7.563   4.630   1.423  0.00  0.00    +0.112 C 
BRANCH  29  34
ATOM     30  C   UNL     1      13.053   5.604   2.943  0.00  0.00    +0.044 C 
ATOM     31  C   UNL     1      11.621   5.349   2.547  0.00  0.00    -0.050 A 
ATOM     32  C   UNL     1      10.645   5.230   3.519  0.00  0.00    +0.003 A 
ATOM     33  C   UNL     1       9.331   5.003   3.155  0.00  0.00    +0.005 A 
ATOM     34  C   UNL     1       8.995   4.883   1.820  0.00  0.00    -0.034 A 
ATOM     35  C   UNL     1       9.970   5.002   0.848  0.00  0.00    -0.046 A 
ATOM     36  C   UNL     1      11.284   5.235   1.211  0.00  0.00    +0.007 A 
ATOM     37  C   UNL     1       9.602   4.878  -0.608  0.00  0.00    +0.044 C 
ENDBRANCH  29  34
ENDBRANCH  28  29
ENDBRANCH   1  28
TORSDOF 6
