REMARK  Name = ZINC39280178
REMARK  4 active torsions:
REMARK  status: ('A' for Active; 'I' for Inactive)
REMARK    1  A    between atoms: C_4  and  N_7
REMARK    2  A    between atoms: C_17  and  C_25
REMARK    3  A    between atoms: C_19  and  C_23
REMARK    4  A    between atoms: C_20  and  N_22
REMARK                            x       y       z     vdW  Elec       q    Type
REMARK                         _______ _______ _______ _____ _____    ______ ____
ROOT
ATOM      1  N   UNL     1       3.600  -0.631  -0.036  0.00  0.00    -0.226 NA
ATOM      2  C   UNL     1       3.792  -1.658   0.761  0.00  0.00    +0.157 C 
ATOM      3  N   UNL     1       2.903  -2.200   1.665  0.00  0.00    -0.304 N 
ATOM      4  C   UNL     1       3.384  -3.271   2.552  0.00  0.00    +0.181 C 
ATOM      5  C   UNL     1       4.474  -4.074   1.810  0.00  0.00    +0.158 C 
ATOM      6  S   UNL     1       5.262  -2.670   0.910  0.00  0.00    -0.076 S 
ATOM      7  C   UNL     1       5.453  -4.745   2.717  0.00  0.00    +0.133 C 
ATOM      8  C   UNL     1       5.697  -4.280   3.951  0.00  0.00    +0.066 C 
ATOM      9  C   UNL     1       6.676  -4.957   4.871  0.00  0.00    +0.103 C 
ATOM     10  C   UNL     1       6.950  -6.358   4.396  0.00  0.00    +0.098 C 
ATOM     11  C   UNL     1       6.644  -6.718   3.125  0.00  0.00    +0.198 C 
ATOM     12  O   UNL     1       6.097  -5.845   2.265  0.00  0.00    -0.444 OA
ATOM     13  C   UNL     1       4.998  -3.078   4.406  0.00  0.00    +0.246 C 
ATOM     14  O   UNL     1       5.408  -2.471   5.379  0.00  0.00    -0.270 OA
ATOM     15  N   UNL     1       3.913  -2.630   3.753  0.00  0.00    -0.292 N 
ATOM     16  H   UNL     1       3.445  -1.855   4.101  0.00  0.00    +0.151 HD
ATOM     17  H   UNL     1       1.987  -1.885   1.715  0.00  0.00    +0.150 HD
ENDROOT
BRANCH   9  18
ATOM     18  C   UNL     1       7.965  -4.178   4.891  0.00  0.00    -0.034 A 
ATOM     19  C   UNL     1       8.675  -3.987   3.720  0.00  0.00    +0.005 A 
ATOM     20  C   UNL     1       9.858  -3.272   3.737  0.00  0.00    +0.015 A 
ATOM     21  C   UNL     1      10.331  -2.747   4.926  0.00  0.00    +0.018 A 
ATOM     22  C   UNL     1       9.620  -2.938   6.097  0.00  0.00    +0.015 A 
ATOM     23  C   UNL     1       8.435  -3.649   6.078  0.00  0.00    +0.005 A 
ATOM     24 BR   UNL     1      11.949  -1.769   4.951  0.00  0.00    -0.050 Br
ENDBRANCH   9  18
BRANCH   1  28
ATOM     25  C   UNL     1      -0.017   1.379   0.010  0.00  0.00    +0.000 A 
ATOM     26  C   UNL     1       1.168   2.094   0.002  0.00  0.00    +0.002 A 
ATOM     27  C   UNL     1       2.377   1.430  -0.013  0.00  0.00    +0.028 A 
ATOM     28  C   UNL     1       2.404   0.034  -0.021  0.00  0.00    +0.066 A 
ATOM     29  C   UNL     1       1.204  -0.681  -0.013  0.00  0.00    +0.028 A 
ATOM     30  C   UNL     1       0.002  -0.004   0.002  0.00  0.00    +0.002 A 
ENDBRANCH   1  28
BRANCH  11  31
ATOM     31  N   UNL     1       6.898  -8.001   2.710  0.00  0.00    -0.328 N 
ATOM     32  H   UNL     1       7.293  -8.640   3.324  0.00  0.00    +0.145 HD
ATOM     33  H   UNL     1       6.683  -8.270   1.803  0.00  0.00    +0.145 HD
ENDBRANCH  11  31
BRANCH  10  34
ATOM     34  C   UNL     1       7.536  -7.313   5.287  0.00  0.00    +0.101 C 
ATOM     35  N   UNL     1       8.001  -8.070   5.995  0.00  0.00    -0.191 NA
ENDBRANCH  10  34
TORSDOF 4
