REMARK  Name = ZINC03452892
REMARK  13 active torsions:
REMARK  status: ('A' for Active; 'I' for Inactive)
REMARK    1  A    between atoms: C_1  and  C_2
REMARK    2  A    between atoms: C_2  and  O_3
REMARK    3  A    between atoms: O_3  and  C_4
REMARK    4  A    between atoms: C_4  and  C_6
REMARK    5  A    between atoms: C_10  and  N_11
REMARK    6  A    between atoms: C_12  and  C_14
REMARK    7  A    between atoms: C_14  and  C_16
REMARK    8  A    between atoms: C_14  and  N_17
REMARK    9  A    between atoms: N_17  and  C_18
REMARK   10  A    between atoms: N_17  and  C_19
REMARK   11  A    between atoms: C_19  and  C_20
REMARK   12  A    between atoms: N_22  and  C_23
REMARK   13  A    between atoms: C_33  and  C_37
REMARK                            x       y       z     vdW  Elec       q    Type
REMARK                         _______ _______ _______ _____ _____    ______ ____
ROOT
ATOM      1  N   UNL     1      -0.164  -2.482  -4.263  0.00  0.00    -0.281 N 
ATOM      2  C   UNL     1      -0.867  -3.081  -5.245  0.00  0.00    +0.204 C 
ATOM      3  O   UNL     1      -0.313  -3.840  -6.012  0.00  0.00    -0.277 OA
ATOM      4  H   UNL     1      -0.608  -1.875  -3.651  0.00  0.00    +0.155 HD
ENDROOT
BRANCH   1   9
ATOM      5  C   UNL     1       2.067  -2.213  -3.188  0.00  0.00    +0.091 A 
ATOM      6  C   UNL     1       3.453  -2.645  -3.259  0.00  0.00    -0.021 A 
ATOM      7  C   UNL     1       3.710  -3.513  -4.261  0.00  0.00    -0.004 A 
ATOM      8  S   UNL     1       2.154  -3.738  -5.071  0.00  0.00    -0.077 S 
ATOM      9  C   UNL     1       1.192  -2.734  -4.130  0.00  0.00    +0.086 A 
ATOM     10  C   UNL     1       5.030  -4.135  -4.595  0.00  0.00    +0.046 C 
ATOM     11  C   UNL     1       6.131  -3.352  -3.865  0.00  0.00    -0.009 C 
ATOM     12  C   UNL     1       5.720  -3.168  -2.401  0.00  0.00    +0.008 C 
ATOM     13  C   UNL     1       4.549  -2.187  -2.309  0.00  0.00    +0.037 C 
ATOM     14  C   UNL     1       7.447  -4.130  -3.936  0.00  0.00    +0.008 C 
BRANCH   5  15
ATOM     15  C   UNL     1       1.613  -1.272  -2.162  0.00  0.00    +0.342 C 
ATOM     16  O   UNL     1       1.211  -1.687  -1.092  0.00  0.00    -0.245 OA
BRANCH  15  17
ATOM     17  O   UNL     1       1.642   0.055  -2.404  0.00  0.00    -0.461 OA
BRANCH  17  19
ATOM     18  C   UNL     1       1.290   2.372  -1.813  0.00  0.00    +0.048 C 
ATOM     19  C   UNL     1       1.184   0.915  -1.359  0.00  0.00    +0.229 C 
ENDBRANCH  17  19
ENDBRANCH  15  17
ENDBRANCH   5  15
ENDBRANCH   1   9
BRANCH   2  20
ATOM     20  C   UNL     1      -2.342  -2.807  -5.391  0.00  0.00    +0.017 C 
ATOM     21  C   UNL     1      -3.128  -3.756  -4.485  0.00  0.00    -0.004 C 
BRANCH  20  22
ATOM     22  N   UNL     1      -2.744  -3.018  -6.788  0.00  0.00    +0.391 N 
ATOM     23  C   UNL     1      -4.170  -2.704  -6.940  0.00  0.00    -0.094 C 
ATOM     24  H   UNL     1      -2.582  -3.982  -7.042  0.00  0.00    -0.080 HD
BRANCH  22  25
ATOM     25  C   UNL     1      -1.953  -2.142  -7.663  0.00  0.00    +0.020 C 
BRANCH  25  26
ATOM     26  C   UNL     1      -2.258  -2.463  -9.103  0.00  0.00    +0.201 C 
ATOM     27  O   UNL     1      -3.055  -3.336  -9.374  0.00  0.00    -0.278 OA
ATOM     28  N   UNL     1      -1.644  -1.780 -10.090  0.00  0.00    -0.285 N 
ATOM     29  H   UNL     1      -1.066  -1.032  -9.875  0.00  0.00    +0.155 HD
BRANCH  28  30
ATOM     30  C   UNL     1      -1.842  -2.151 -11.427  0.00  0.00    +0.072 A 
ATOM     31  C   UNL     1      -2.280  -3.432 -11.735  0.00  0.00    +0.029 A 
ATOM     32  C   UNL     1      -2.474  -3.798 -13.053  0.00  0.00    +0.043 A 
ATOM     33  C   UNL     1      -2.234  -2.888 -14.069  0.00  0.00    +0.161 A 
ATOM     34  C   UNL     1      -1.797  -1.608 -13.766  0.00  0.00    +0.195 A 
ATOM     35  C   UNL     1      -1.607  -1.236 -12.445  0.00  0.00    +0.182 A 
ATOM     36  F   UNL     1      -1.187   0.013 -12.149  0.00  0.00    -0.200 F 
ATOM     37  F   UNL     1      -1.563  -0.722 -14.758  0.00  0.00    -0.199 F 
ATOM     38  F   UNL     1      -2.425  -3.249 -15.357  0.00  0.00    -0.202 F 
ENDBRANCH  28  30
ENDBRANCH  25  26
ENDBRANCH  22  25
ENDBRANCH  20  22
ENDBRANCH   2  20
TORSDOF 9
