REMARK  Name = ZINC63426831
REMARK  8 active torsions:
REMARK  status: ('A' for Active; 'I' for Inactive)
REMARK    1  A    between atoms: C_1  and  O_2
REMARK    2  A    between atoms: O_2  and  C_3
REMARK    3  A    between atoms: C_3  and  C_5
REMARK    4  A    between atoms: C_5  and  C_7
REMARK    5  A    between atoms: C_5  and  N_17
REMARK    6  A    between atoms: C_7  and  C_8
REMARK    7  A    between atoms: N_17  and  C_18
REMARK    8  A    between atoms: N_25  and  C_28
REMARK                            x       y       z     vdW  Elec       q    Type
REMARK                         _______ _______ _______ _____ _____    ______ ____
ROOT
ATOM      1  C   UNL     1       0.674  -2.599  -3.506  0.00  0.00    +0.086 C 
ATOM      2  C   UNL     1       1.349  -2.875  -4.681  0.00  0.00    +0.113 C 
ATOM      3  C   UNL     1       2.790  -3.182  -4.686  0.00  0.00    +0.256 C 
ATOM      4  O   UNL     1       3.429  -3.201  -3.651  0.00  0.00    -0.270 OA
ATOM      5  N   UNL     1       3.382  -3.441  -5.870  0.00  0.00    -0.263 N 
ATOM      6  C   UNL     1       2.690  -3.423  -7.018  0.00  0.00    +0.151 C 
ATOM      7  S   UNL     1       3.525  -3.766  -8.473  0.00  0.00    -0.018 S 
ATOM      8  N   UNL     1       1.379  -3.152  -7.087  0.00  0.00    -0.217 N 
ATOM      9  C   UNL     1       0.656  -2.880  -5.982  0.00  0.00    +0.263 C 
ATOM     10  O   UNL     1      -0.534  -2.640  -6.057  0.00  0.00    -0.269 OA
ATOM     11  H   UNL     1       4.330  -3.645  -5.892  0.00  0.00    +0.157 HD
ENDROOT
BRANCH   8  12
ATOM     12  C   UNL     1       0.746  -3.158  -8.334  0.00  0.00    +0.051 A 
ATOM     13  C   UNL     1       0.180  -4.316  -8.821  0.00  0.00    +0.024 A 
ATOM     14  C   UNL     1      -0.454  -4.332 -10.060  0.00  0.00    +0.002 A 
ATOM     15  C   UNL     1      -0.531  -3.207 -10.824  0.00  0.00    +0.008 A 
ATOM     16  C   UNL     1       0.033  -2.006 -10.364  0.00  0.00    -0.016 A 
ATOM     17  C   UNL     1       0.675  -1.976  -9.101  0.00  0.00    +0.004 A 
ATOM     18  C   UNL     1       1.233  -0.773  -8.640  0.00  0.00    +0.010 A 
ATOM     19  C   UNL     1       1.146   0.348  -9.407  0.00  0.00    +0.001 A 
ATOM     20  C   UNL     1       0.510   0.321 -10.646  0.00  0.00    +0.001 A 
ATOM     21  C   UNL     1      -0.031  -0.830 -11.131  0.00  0.00    +0.008 A 
ENDBRANCH   8  12
BRANCH   1  22
ATOM     22  N   UNL     1       1.356  -2.489  -2.347  0.00  0.00    -0.336 N 
ATOM     23  H   UNL     1       2.306  -2.682  -2.323  0.00  0.00    +0.146 HD
BRANCH  22  24
ATOM     24  C   UNL     1       0.661  -2.078  -1.125  0.00  0.00    +0.184 C 
BRANCH  24  25
ATOM     25  C   UNL     1       0.599  -0.573  -1.065  0.00  0.00    +0.328 C 
ATOM     26  O   UNL     1       1.086   0.088  -1.951  0.00  0.00    -0.249 OA
BRANCH  25  28
ATOM     27  C   UNL     1      -0.018   1.462  -0.033  0.00  0.00    +0.280 C 
ATOM     28  O   UNL     1       0.004   0.033  -0.025  0.00  0.00    -0.467 OA
ENDBRANCH  25  28
ENDBRANCH  24  25
BRANCH  24  29
ATOM     29  C   UNL     1       1.418  -2.607   0.095  0.00  0.00    +0.066 C 
BRANCH  29  30
ATOM     30  C   UNL     1       1.373  -4.113   0.099  0.00  0.00    -0.039 C 
ATOM     31  C   UNL     1       2.312  -4.955  -0.391  0.00  0.00    -0.001 A 
ATOM     32  C   UNL     1       3.604  -4.730  -1.050  0.00  0.00    +0.010 A 
ATOM     33  C   UNL     1       4.337  -5.798  -1.438  0.00  0.00    +0.001 A 
ATOM     34  C   UNL     1       3.895  -7.111  -1.228  0.00  0.00    +0.002 A 
ATOM     35  C   UNL     1       2.720  -7.398  -0.630  0.00  0.00    +0.026 A 
ATOM     36  C   UNL     1       1.867  -6.352  -0.180  0.00  0.00    +0.043 A 
ATOM     37  N   UNL     1       0.700  -6.372   0.416  0.00  0.00    -0.380 N 
ATOM     38  C   UNL     1       0.274  -4.989   0.657  0.00  0.00    +0.144 C 
ATOM     39  H   UNL     1       0.203  -7.168   0.661  0.00  0.00    +0.160 HD
ENDBRANCH  29  30
ENDBRANCH  24  29
ENDBRANCH  22  24
ENDBRANCH   1  22
TORSDOF 7
