REMARK  Name = ZINC08621373
REMARK  7 active torsions:
REMARK  status: ('A' for Active; 'I' for Inactive)
REMARK    1  A    between atoms: C_1  and  C_2
REMARK    2  A    between atoms: C_5  and  N_9
REMARK    3  A    between atoms: C_6  and  C_8
REMARK    4  A    between atoms: C_13  and  C_15
REMARK    5  A    between atoms: C_15  and  N_16
REMARK    6  A    between atoms: C_19  and  C_23
REMARK    7  A    between atoms: C_19  and  C_29
REMARK                            x       y       z     vdW  Elec       q    Type
REMARK                         _______ _______ _______ _____ _____    ______ ____
ROOT
ATOM      1  N   UNL     1       1.995   1.474  -0.229  0.00  0.00    -0.215 N 
ATOM      2  C   UNL     1       2.670   1.124   0.884  0.00  0.00    +0.256 C 
ATOM      3  O   UNL     1       2.373   1.379   2.031  0.00  0.00    -0.272 OA
ATOM      4  C   UNL     1       3.877   0.343   0.402  0.00  0.00    +0.164 C 
ATOM      5  N   UNL     1       3.731   0.351  -1.064  0.00  0.00    -0.278 N 
ATOM      6  C   UNL     1       2.605   1.034  -1.335  0.00  0.00    +0.310 C 
ATOM      7  O   UNL     1       2.187   1.229  -2.460  0.00  0.00    -0.252 OA
ATOM      8  H   UNL     1       4.331  -0.057  -1.708  0.00  0.00    +0.152 HD
ENDROOT
BRANCH   4   9
ATOM      9  C   UNL     1       3.846  -1.068   0.931  0.00  0.00    -0.011 A 
ATOM     10  C   UNL     1       4.205  -2.121   0.111  0.00  0.00    +0.006 A 
ATOM     11  C   UNL     1       4.181  -3.415   0.597  0.00  0.00    +0.000 A 
ATOM     12  C   UNL     1       3.789  -3.656   1.901  0.00  0.00    +0.000 A 
ATOM     13  C   UNL     1       3.425  -2.603   2.719  0.00  0.00    +0.000 A 
ATOM     14  C   UNL     1       3.453  -1.309   2.234  0.00  0.00    +0.006 A 
ENDBRANCH   4   9
BRANCH   4  15
ATOM     15  C   UNL     1       5.152   1.033   0.812  0.00  0.00    -0.011 A 
ATOM     16  C   UNL     1       5.841   0.605   1.931  0.00  0.00    +0.006 A 
ATOM     17  C   UNL     1       7.013   1.235   2.305  0.00  0.00    +0.000 A 
ATOM     18  C   UNL     1       7.492   2.300   1.564  0.00  0.00    +0.000 A 
ATOM     19  C   UNL     1       6.800   2.732   0.448  0.00  0.00    +0.000 A 
ATOM     20  C   UNL     1       5.630   2.099   0.072  0.00  0.00    +0.006 A 
ENDBRANCH   4  15
BRANCH   1  21
ATOM     21  C   UNL     1       0.750   2.247  -0.227  0.00  0.00    +0.214 C 
BRANCH  21  26
ATOM     22  N   UNL     1      -3.988   1.443  -0.087  0.00  0.00    -0.269 N 
ATOM     23  C   UNL     1      -2.732   0.953  -0.095  0.00  0.00    +0.310 C 
ATOM     24  O   UNL     1      -2.547  -0.247  -0.051  0.00  0.00    -0.252 OA
ATOM     25  N   UNL     1      -1.681   1.795  -0.151  0.00  0.00    -0.239 N 
ATOM     26  C   UNL     1      -0.425   1.306  -0.158  0.00  0.00    +0.238 C 
ATOM     27  O   UNL     1      -0.241   0.108  -0.115  0.00  0.00    -0.274 OA
ATOM     28  H   UNL     1      -4.137   2.397  -0.180  0.00  0.00    +0.156 HD
ATOM     29  H   UNL     1      -1.828   2.753  -0.185  0.00  0.00    +0.159 HD
BRANCH  22  34
ATOM     30  C   UNL     1      -8.399  -2.077   0.493  0.00  0.00    +0.044 C 
ATOM     31  C   UNL     1      -7.228  -1.142   0.339  0.00  0.00    -0.050 A 
ATOM     32  C   UNL     1      -6.103  -1.553  -0.354  0.00  0.00    +0.005 A 
ATOM     33  C   UNL     1      -5.028  -0.699  -0.497  0.00  0.00    +0.024 A 
ATOM     34  C   UNL     1      -5.076   0.575   0.056  0.00  0.00    +0.038 A 
ATOM     35  C   UNL     1      -6.204   0.983   0.755  0.00  0.00    -0.029 A 
ATOM     36  C   UNL     1      -7.279   0.125   0.890  0.00  0.00    +0.008 A 
ATOM     37  C   UNL     1      -6.258   2.361   1.361  0.00  0.00    +0.045 C 
ENDBRANCH  22  34
ENDBRANCH  21  26
ENDBRANCH   1  21
TORSDOF 5
