REMARK  Name = ZINC41125678
REMARK  7 active torsions:
REMARK  status: ('A' for Active; 'I' for Inactive)
REMARK    1  A    between atoms: C_1  and  O_2
REMARK    2  A    between atoms: O_2  and  C_3
REMARK    3  A    between atoms: C_8  and  C_9
REMARK    4  A    between atoms: N_11  and  C_12
REMARK    5  A    between atoms: C_12  and  C_14
REMARK    6  A    between atoms: C_12  and  C_21
REMARK    7  A    between atoms: C_14  and  C_15
REMARK                            x       y       z     vdW  Elec       q    Type
REMARK                         _______ _______ _______ _____ _____    ______ ____
ROOT
ATOM      1  C   UNL     1      -0.467  -4.992   0.927  0.00  0.00    +0.108 C 
ENDROOT
BRANCH   1   2
ATOM      2  C   UNL     1      -0.830  -6.346   0.374  0.00  0.00    -0.023 A 
ATOM      3  C   UNL     1       0.020  -6.979  -0.513  0.00  0.00    +0.009 A 
ATOM      4  C   UNL     1      -0.306  -8.222  -1.025  0.00  0.00    +0.050 A 
ATOM      5  C   UNL     1      -1.490  -8.831  -0.644  0.00  0.00    +0.162 A 
ATOM      6  C   UNL     1      -2.343  -8.197   0.247  0.00  0.00    +0.162 A 
ATOM      7  C   UNL     1      -2.011  -6.954   0.761  0.00  0.00    +0.055 A 
ATOM      8  O   UNL     1      -3.507  -8.806   0.617  0.00  0.00    -0.488 OA
ATOM      9  C   UNL     1      -4.497  -8.934  -0.405  0.00  0.00    +0.232 C 
ATOM     10  C   UNL     1      -4.246 -10.174  -1.248  0.00  0.00    +0.082 C 
ATOM     11  C   UNL     1      -2.943 -10.090  -2.027  0.00  0.00    +0.232 C 
ATOM     12  O   UNL     1      -1.823 -10.058  -1.140  0.00  0.00    -0.488 OA
ENDBRANCH   1   2
BRANCH   1  15
ATOM     13  C   UNL     1       0.067  -2.829  -0.059  0.00  0.00    +0.248 C 
ATOM     14  O   UNL     1      -0.474  -2.295   0.890  0.00  0.00    -0.270 OA
ATOM     15  N   UNL     1       0.123  -4.173  -0.135  0.00  0.00    -0.304 N 
ATOM     16  H   UNL     1       0.555  -4.599  -0.892  0.00  0.00    +0.150 HD
BRANCH  13  22
ATOM     17  C   UNL     1       0.605  -0.606  -1.054  0.00  0.00    +0.132 A 
ATOM     18  C   UNL     1       1.172   0.160  -2.061  0.00  0.00    +0.048 A 
ATOM     19  C   UNL     1       1.785  -0.454  -3.135  0.00  0.00    +0.023 A 
ATOM     20  C   UNL     1       1.839  -1.837  -3.216  0.00  0.00    +0.042 A 
ATOM     21  C   UNL     1       1.279  -2.613  -2.224  0.00  0.00    +0.036 A 
ATOM     22  C   UNL     1       0.661  -2.004  -1.128  0.00  0.00    +0.080 A 
ATOM     23 CL   UNL     1       2.612  -2.594  -4.574  0.00  0.00    -0.084 Cl
BRANCH  17  25
ATOM     24  C   UNL     1      -0.017   1.425   0.010  0.00  0.00    +0.277 C 
ATOM     25  O   UNL     1       0.002  -0.004   0.002  0.00  0.00    -0.494 OA
ENDBRANCH  17  25
ENDBRANCH  13  22
ENDBRANCH   1  15
BRANCH   1  26
ATOM     26  C   UNL     1       0.544  -5.160   2.064  0.00  0.00    +0.062 C 
BRANCH  26  27
ATOM     27  C   UNL     1       0.814  -3.819   2.697  0.00  0.00    -0.045 A 
ATOM     28  C   UNL     1       1.831  -3.018   2.213  0.00  0.00    +0.004 A 
ATOM     29  C   UNL     1       2.079  -1.789   2.795  0.00  0.00    +0.000 A 
ATOM     30  C   UNL     1       1.309  -1.360   3.860  0.00  0.00    +0.000 A 
ATOM     31  C   UNL     1       0.291  -2.160   4.343  0.00  0.00    +0.000 A 
ATOM     32  C   UNL     1       0.041  -3.388   3.759  0.00  0.00    +0.004 A 
ENDBRANCH  26  27
ENDBRANCH   1  26
TORSDOF 6
