REMARK  Name = ZINC22203800
REMARK  11 active torsions:
REMARK  status: ('A' for Active; 'I' for Inactive)
REMARK    1  A    between atoms: C_1  and  C_2
REMARK    2  A    between atoms: C_2  and  C_3
REMARK    3  A    between atoms: C_3  and  C_32
REMARK    4  A    between atoms: N_8  and  C_9
REMARK    5  A    between atoms: N_15  and  C_16
REMARK    6  A    between atoms: C_16  and  C_18
REMARK    7  A    between atoms: C_16  and  C_28
REMARK    8  A    between atoms: C_19  and  C_20
REMARK    9  A    between atoms: C_28  and  C_29
REMARK   10  A    between atoms: C_28  and  C_30
REMARK   11  A    between atoms: C_28  and  C_31
REMARK                            x       y       z     vdW  Elec       q    Type
REMARK                         _______ _______ _______ _____ _____    ______ ____
ROOT
ATOM      1  C   UNL     1       2.147   0.777  -0.008  0.00  0.00    +0.089 C 
ATOM      2  C   UNL     1       1.139  -0.347  -0.136  0.00  0.00    +0.090 C 
ATOM      3  N   UNL     1      -0.042   0.214  -0.067  0.00  0.00    -0.287 N 
ATOM      4  C   UNL     1       0.030   1.539   0.088  0.00  0.00    +0.143 C 
ATOM      5  S   UNL     1      -1.338   2.562   0.206  0.00  0.00    -0.018 S 
ATOM      6  N   UNL     1       1.303   1.977   0.136  0.00  0.00    -0.270 N 
ATOM      7  N   UNL     1       1.406  -1.669  -0.292  0.00  0.00    -0.327 N 
ATOM      8  C   UNL     1       3.022   0.578   1.232  0.00  0.00    +0.040 C 
ATOM      9  H   UNL     1       2.443  -2.008  -0.428  0.00  0.00    +0.148 HD
ATOM     10  H   UNL     1      -0.949  -0.404  -0.136  0.00  0.00    +0.155 HD
ENDROOT
BRANCH   6  11
ATOM     11  C   UNL     1       1.734   3.298   0.289  0.00  0.00    +0.036 A 
ATOM     12  C   UNL     1       2.420   3.678   1.436  0.00  0.00    +0.023 A 
ATOM     13  C   UNL     1       2.850   4.982   1.581  0.00  0.00    +0.002 A 
ATOM     14  C   UNL     1       2.589   5.913   0.593  0.00  0.00    +0.000 A 
ATOM     15  C   UNL     1       1.901   5.540  -0.548  0.00  0.00    +0.002 A 
ATOM     16  C   UNL     1       1.474   4.236  -0.703  0.00  0.00    +0.023 A 
ENDBRANCH   6  11
BRANCH   1  18
ATOM     17  C   UNL     1       2.123   1.179  -2.474  0.00  0.00    +0.006 C 
ATOM     18  C   UNL     1       3.011   0.873  -1.266  0.00  0.00    +0.030 C 
ENDBRANCH   1  18
BRANCH   7  19
ATOM     19  C   UNL     1       0.312  -2.644  -0.278  0.00  0.00    +0.100 C 
BRANCH  19  20
ATOM     20  C   UNL     1      -0.009  -3.029   1.168  0.00  0.00    -0.016 C 
ATOM     21  C   UNL     1      -0.429  -1.780   1.947  0.00  0.00    +0.013 C 
ATOM     22  C   UNL     1      -1.151  -4.047   1.182  0.00  0.00    +0.013 C 
ATOM     23  C   UNL     1       1.230  -3.644   1.820  0.00  0.00    +0.013 C 
ENDBRANCH  19  20
BRANCH  19  24
ATOM     24  C   UNL     1       0.726  -3.873  -1.045  0.00  0.00    -0.004 C 
ATOM     25  C   UNL     1       0.094  -4.200  -2.164  0.00  0.00    +0.007 C 
BRANCH  25  26
ATOM     26  C   UNL     1       0.499  -5.406  -2.916  0.00  0.00    -0.007 A 
ATOM     27  C   UNL     1       1.546  -6.202  -2.451  0.00  0.00    +0.011 A 
ATOM     28  C   UNL     1       1.920  -7.327  -3.157  0.00  0.00    +0.020 A 
ATOM     29  C   UNL     1       1.258  -7.667  -4.325  0.00  0.00    +0.042 A 
ATOM     30  C   UNL     1       0.218  -6.881  -4.792  0.00  0.00    +0.040 A 
ATOM     31  C   UNL     1      -0.168  -5.756  -4.091  0.00  0.00    +0.049 A 
ATOM     32 CL   UNL     1      -1.477  -4.775  -4.674  0.00  0.00    -0.083 Cl
ATOM     33 CL   UNL     1       1.735  -9.084  -5.208  0.00  0.00    -0.083 Cl
ENDBRANCH  25  26
ENDBRANCH  19  24
ENDBRANCH   7  19
TORSDOF 6
