REMARK  Name = ZINC39560554
REMARK  10 active torsions:
REMARK  status: ('A' for Active; 'I' for Inactive)
REMARK    1  A    between atoms: C_1  and  C_2
REMARK    2  A    between atoms: C_5  and  N_9
REMARK    3  A    between atoms: C_7  and  C_8
REMARK    4  A    between atoms: C_10  and  S_21
REMARK    5  A    between atoms: C_14  and  C_15
REMARK    6  A    between atoms: S_21  and  C_22
REMARK    7  A    between atoms: C_22  and  C_24
REMARK    8  A    between atoms: C_22  and  C_25
REMARK    9  A    between atoms: C_30  and  C_37
REMARK   10  A    between atoms: C_31  and  C_36
REMARK                            x       y       z     vdW  Elec       q    Type
REMARK                         _______ _______ _______ _____ _____    ______ ____
ROOT
ATOM      1  N   UNL     1      -0.178  -4.194   0.009  0.00  0.00    -0.254 N 
ATOM      2  C   UNL     1      -0.178  -5.059  -1.183  0.00  0.00    +0.242 C 
ATOM      3  N   UNL     1       0.191  -6.385  -0.661  0.00  0.00    -0.237 N 
ATOM      4  N   UNL     1       0.374  -6.229   0.718  0.00  0.00    -0.168 NA
ATOM      5  C   UNL     1       0.173  -5.006   1.087  0.00  0.00    +0.153 C 
ATOM      6  H   UNL     1       0.288  -7.205  -1.172  0.00  0.00    +0.171 HD
ENDROOT
BRANCH   1  11
ATOM      7  C   UNL     1      -1.351   1.351   0.182  0.00  0.00    +0.044 C 
ATOM      8  C   UNL     1      -1.039  -0.122   0.136  0.00  0.00    -0.047 A 
ATOM      9  C   UNL     1      -2.018  -1.045   0.458  0.00  0.00    +0.005 A 
ATOM     10  C   UNL     1      -1.736  -2.396   0.416  0.00  0.00    +0.024 A 
ATOM     11  C   UNL     1      -0.467  -2.829   0.051  0.00  0.00    +0.038 A 
ATOM     12  C   UNL     1       0.514  -1.899  -0.271  0.00  0.00    +0.027 A 
ATOM     13  C   UNL     1       0.223  -0.549  -0.233  0.00  0.00    -0.046 A 
ATOM     14  C   UNL     1       1.285   0.460  -0.587  0.00  0.00    +0.044 C 
ENDBRANCH   1  11
BRANCH   5  15
ATOM     15  C   UNL     1       0.297  -4.529   2.480  0.00  0.00    +0.020 A 
ATOM     16  C   UNL     1       0.195  -3.167   2.786  0.00  0.00    +0.029 A 
ATOM     17  C   UNL     1       0.317  -2.765   4.100  0.00  0.00    +0.083 A 
ATOM     18  N   UNL     1       0.525  -3.646   5.061  0.00  0.00    -0.367 N 
ATOM     19  C   UNL     1       0.627  -4.939   4.816  0.00  0.00    +0.083 A 
ATOM     20  C   UNL     1       0.512  -5.428   3.532  0.00  0.00    +0.029 A 
ATOM     21  H   UNL     1       0.607  -3.332   5.975  0.00  0.00    +0.165 HD
ENDBRANCH   5  15
BRANCH   2  22
ATOM     22  S   UNL     1      -1.828  -5.104  -1.936  0.00  0.00    -0.107 S 
BRANCH  22  23
ATOM     23  C   UNL     1      -2.890  -5.770  -0.625  0.00  0.00    +0.112 C 
ATOM     24  C   UNL     1      -2.477  -7.210  -0.316  0.00  0.00    +0.027 C 
BRANCH  23  25
ATOM     25  C   UNL     1      -4.326  -5.746  -1.081  0.00  0.00    +0.136 C 
ATOM     26  N   UNL     1      -4.601  -5.194  -2.239  0.00  0.00    -0.160 NA
ATOM     27  C   UNL     1      -5.842  -5.124  -2.731  0.00  0.00    +0.271 C 
ATOM     28  O   UNL     1      -6.063  -4.603  -3.811  0.00  0.00    -0.268 OA
ATOM     29  C   UNL     1      -6.953  -5.705  -1.912  0.00  0.00    +0.071 C 
ATOM     30  C   UNL     1      -8.263  -5.750  -2.200  0.00  0.00    -0.045 C 
ATOM     31  C   UNL     1      -9.183  -6.401  -1.192  0.00  0.00    +0.076 C 
ATOM     32  S   UNL     1      -8.000  -6.901   0.124  0.00  0.00    -0.098 S 
ATOM     33  C   UNL     1      -6.511  -6.296  -0.631  0.00  0.00    +0.111 C 
ATOM     34  N   UNL     1      -5.243  -6.288  -0.296  0.00  0.00    -0.226 NA
ATOM     35  C   UNL     1     -10.207  -5.398  -0.657  0.00  0.00    +0.024 C 
ATOM     36  C   UNL     1      -8.799  -5.171  -3.483  0.00  0.00    +0.041 C 
ENDBRANCH  23  25
ENDBRANCH  22  23
ENDBRANCH   2  22
TORSDOF 5
