REMARK  Name = ZINC63491630
REMARK  7 active torsions:
REMARK  status: ('A' for Active; 'I' for Inactive)
REMARK    1  A    between atoms: C_7  and  C_10
REMARK    2  A    between atoms: C_10  and  C_11
REMARK    3  A    between atoms: C_11  and  N_12
REMARK    4  A    between atoms: C_13  and  C_15
REMARK    5  A    between atoms: C_15  and  N_16
REMARK    6  A    between atoms: C_19  and  S_27
REMARK    7  A    between atoms: S_27  and  N_30
REMARK                            x       y       z     vdW  Elec       q    Type
REMARK                         _______ _______ _______ _____ _____    ______ ____
ROOT
ATOM      1  N   UNL     1      -1.976  -7.005  -3.998  0.00  0.00    -0.256 N 
ATOM      2  C   UNL     1      -3.022  -6.467  -4.761  0.00  0.00    +0.081 A 
ATOM      3  C   UNL     1      -3.656  -5.300  -4.368  0.00  0.00    +0.055 A 
ATOM      4  C   UNL     1      -4.687  -4.786  -5.134  0.00  0.00    +0.107 A 
ATOM      5  C   UNL     1      -5.084  -5.433  -6.289  0.00  0.00    +0.032 A 
ATOM      6  C   UNL     1      -4.454  -6.598  -6.687  0.00  0.00    +0.049 A 
ATOM      7  C   UNL     1      -3.422  -7.119  -5.926  0.00  0.00    +0.143 A 
ATOM      8  O   UNL     1      -2.789  -8.261  -6.304  0.00  0.00    -0.481 OA
ATOM      9  C   UNL     1      -1.400  -8.363  -5.984  0.00  0.00    +0.325 C 
ATOM     10  C   UNL     1      -1.174  -7.940  -4.555  0.00  0.00    +0.258 C 
ATOM     11  O   UNL     1      -0.279  -8.438  -3.906  0.00  0.00    -0.271 OA
ENDROOT
BRANCH   4  12
ATOM     12  S   UNL     1      -5.495  -3.302  -4.635  0.00  0.00    +0.061 S 
ATOM     13  O   UNL     1      -6.787  -3.324  -5.228  0.00  0.00    -0.153 OA
ATOM     14  O   UNL     1      -5.303  -3.186  -3.232  0.00  0.00    -0.153 OA
BRANCH  12  15
ATOM     15  N   UNL     1      -4.677  -2.041  -5.331  0.00  0.00    -0.177 NA
ATOM     16  C   UNL     1      -3.575  -1.447  -4.607  0.00  0.00    +0.109 C 
ATOM     17  C   UNL     1      -4.102  -0.302  -3.707  0.00  0.00    +0.017 C 
ATOM     18  C   UNL     1      -4.507   0.849  -4.528  0.00  0.00    +0.001 C 
ATOM     19  C   UNL     1      -5.658   0.563  -5.487  0.00  0.00    +0.001 C 
ATOM     20  C   UNL     1      -5.112  -0.034  -6.761  0.00  0.00    +0.017 C 
ATOM     21  C   UNL     1      -5.099  -1.574  -6.666  0.00  0.00    +0.109 C 
ENDBRANCH  12  15
ENDBRANCH   4  12
BRANCH   1  22
ATOM     22  C   UNL     1      -1.752  -6.557  -2.622  0.00  0.00    +0.209 C 
BRANCH  22  24
ATOM     23  N   UNL     1      -0.458  -4.798  -1.460  0.00  0.00    -0.314 N 
ATOM     24  C   UNL     1      -0.811  -5.380  -2.623  0.00  0.00    +0.231 C 
ATOM     25  O   UNL     1      -0.371  -4.957  -3.671  0.00  0.00    -0.274 OA
ATOM     26  H   UNL     1      -0.810  -5.136  -0.622  0.00  0.00    +0.149 HD
BRANCH  23  27
ATOM     27  C   UNL     1       0.457  -3.653  -1.462  0.00  0.00    +0.108 C 
BRANCH  27  28
ATOM     28  C   UNL     1       0.691  -3.186  -0.024  0.00  0.00    +0.052 C 
BRANCH  28  35
ATOM     29  C   UNL     1      -0.016   1.348   0.009  0.00  0.00    +0.001 A 
ATOM     30  C   UNL     1       1.166   2.101   0.002  0.00  0.00    +0.002 A 
ATOM     31  C   UNL     1       2.391   1.535  -0.013  0.00  0.00    +0.026 A 
ATOM     32  C   UNL     1       2.529   0.120  -0.022  0.00  0.00    +0.043 A 
ATOM     33  N   UNL     1       3.587  -0.654  -0.037  0.00  0.00    -0.380 N 
ATOM     34  C   UNL     1       3.143  -2.053  -0.041  0.00  0.00    +0.144 C 
ATOM     35  C   UNL     1       1.631  -2.008  -0.025  0.00  0.00    -0.040 C 
ATOM     36  C   UNL     1       1.295  -0.698  -0.014  0.00  0.00    -0.001 A 
ATOM     37  C   UNL     1       0.002  -0.004   0.002  0.00  0.00    +0.010 A 
ATOM     38  H   UNL     1       4.509  -0.353  -0.045  0.00  0.00    +0.160 HD
ENDBRANCH  28  35
ENDBRANCH  27  28
ENDBRANCH  23  27
ENDBRANCH  22  24
ENDBRANCH   1  22
TORSDOF 7
