REMARK  Name = ZINC39653822
REMARK  11 active torsions:
REMARK  status: ('A' for Active; 'I' for Inactive)
REMARK    1  A    between atoms: C_1  and  C_2
REMARK    2  A    between atoms: C_2  and  O_3
REMARK    3  A    between atoms: O_3  and  C_4
REMARK    4  A    between atoms: C_7  and  C_10
REMARK    5  A    between atoms: C_10  and  C_11
REMARK    6  A    between atoms: C_11  and  N_12
REMARK    7  A    between atoms: C_13  and  C_15
REMARK    8  A    between atoms: C_26  and  C_28
REMARK    9  A    between atoms: C_28  and  C_30
REMARK   10  A    between atoms: C_28  and  O_31
REMARK   11  A    between atoms: O_31  and  C_32
REMARK                            x       y       z     vdW  Elec       q    Type
REMARK                         _______ _______ _______ _____ _____    ______ ____
ROOT
ATOM      1  C   UNL     1      -2.256 -10.785   3.212  0.00  0.00    +0.100 C 
ATOM      2  C   UNL     1      -3.546 -10.945   2.376  0.00  0.00    +0.121 C 
ATOM      3  N   UNL     1      -4.345 -11.953   3.111  0.00  0.00    -0.297 N 
ATOM      4  C   UNL     1      -4.136 -11.620   4.540  0.00  0.00    +0.115 C 
ATOM      5  C   UNL     1      -2.648 -11.228   4.632  0.00  0.00    -0.004 C 
ATOM      6  C   UNL     1      -2.466 -10.075   5.614  0.00  0.00    -0.010 C 
ATOM      7  C   UNL     1      -2.806 -10.556   7.028  0.00  0.00    -0.082 C 
ATOM      8  N   UNL     1      -1.929 -11.676   7.389  0.00  0.00    +0.379 N 
ATOM      9  C   UNL     1      -2.178 -12.815   6.497  0.00  0.00    -0.082 C 
ATOM     10  C   UNL     1      -1.811 -12.429   5.061  0.00  0.00    -0.010 C 
ATOM     11  C   UNL     1      -5.093 -12.949   2.596  0.00  0.00    +0.256 C 
ATOM     12  O   UNL     1      -5.695 -13.700   3.335  0.00  0.00    -0.272 OA
ATOM     13  H   UNL     1      -0.966 -11.388   7.305  0.00  0.00    -0.086 HD
ATOM     14  H   UNL     1      -2.113 -11.952   8.342  0.00  0.00    -0.086 HD
ENDROOT
BRANCH   1  16
ATOM     15  N   UNL     1      -0.504  -9.046   3.373  0.00  0.00    -0.315 N 
ATOM     16  C   UNL     1      -1.809  -9.346   3.216  0.00  0.00    +0.218 C 
ATOM     17  O   UNL     1      -2.623  -8.457   3.079  0.00  0.00    -0.275 OA
ATOM     18  H   UNL     1       0.147  -9.757   3.483  0.00  0.00    +0.149 HD
BRANCH  15  19
ATOM     19  C   UNL     1      -0.069  -7.647   3.377  0.00  0.00    +0.109 C 
BRANCH  19  20
ATOM     20  C   UNL     1       1.447  -7.585   3.570  0.00  0.00    +0.054 C 
BRANCH  20  24
ATOM     21  C   UNL     1       2.716  -3.504   3.582  0.00  0.00    +0.121 A 
ATOM     22  C   UNL     1       2.357  -4.123   4.770  0.00  0.00    +0.046 A 
ATOM     23  C   UNL     1       1.947  -5.443   4.763  0.00  0.00    +0.007 A 
ATOM     24  C   UNL     1       1.895  -6.146   3.574  0.00  0.00    -0.046 A 
ATOM     25  C   UNL     1       2.253  -5.531   2.389  0.00  0.00    +0.007 A 
ATOM     26  C   UNL     1       2.658  -4.210   2.389  0.00  0.00    +0.046 A 
BRANCH  21  27
ATOM     27  O   UNL     1       3.120  -2.206   3.585  0.00  0.00    -0.492 OA
BRANCH  27  29
ATOM     28  C   UNL     1       3.630  -0.101   4.655  0.00  0.00    +0.048 C 
ATOM     29  C   UNL     1       3.155  -1.542   4.850  0.00  0.00    +0.225 C 
ENDBRANCH  27  29
ENDBRANCH  21  27
ENDBRANCH  20  24
ENDBRANCH  19  20
ENDBRANCH  15  19
ENDBRANCH   1  16
BRANCH  11  30
ATOM     30  C   UNL     1      -5.181 -13.131   1.103  0.00  0.00    +0.256 C 
ATOM     31  C   UNL     1      -5.877 -11.918   0.482  0.00  0.00    +0.062 C 
BRANCH  30  32
ATOM     32  O   UNL     1      -5.931 -14.312   0.810  0.00  0.00    -0.480 OA
BRANCH  32  33
ATOM     33  C   UNL     1      -5.688 -14.916  -0.383  0.00  0.00    +0.122 A 
ATOM     34  C   UNL     1      -4.821 -14.332  -1.295  0.00  0.00    +0.045 A 
ATOM     35  C   UNL     1      -4.576 -14.949  -2.506  0.00  0.00    +0.004 A 
ATOM     36  C   UNL     1      -5.193 -16.148  -2.810  0.00  0.00    +0.000 A 
ATOM     37  C   UNL     1      -6.057 -16.733  -1.903  0.00  0.00    +0.004 A 
ATOM     38  C   UNL     1      -6.301 -16.123  -0.688  0.00  0.00    +0.045 A 
ENDBRANCH  32  33
ENDBRANCH  30  32
ENDBRANCH  11  30
TORSDOF 9
