REMARK  Name = ZINC21273346
REMARK  10 active torsions:
REMARK  status: ('A' for Active; 'I' for Inactive)
REMARK    1  A    between atoms: C_1  and  C_2
REMARK    2  A    between atoms: C_2  and  N_3
REMARK    3  A    between atoms: C_12  and  S_13
REMARK    4  A    between atoms: S_13  and  C_14
REMARK    5  A    between atoms: C_14  and  C_15
REMARK    6  A    between atoms: C_16  and  C_22
REMARK    7  A    between atoms: C_22  and  O_24
REMARK    8  A    between atoms: O_24  and  C_25
REMARK    9  A    between atoms: C_25  and  C_26
REMARK   10  A    between atoms: C_28  and  C_32
REMARK                            x       y       z     vdW  Elec       q    Type
REMARK                         _______ _______ _______ _____ _____    ______ ____
ROOT
ATOM      1  N   UNL     1      -2.323   0.817   1.012  0.00  0.00    -0.288 N 
ATOM      2  C   UNL     1      -3.341   1.532   0.499  0.00  0.00    +0.263 A 
ATOM      3  O   UNL     1      -3.121   2.538  -0.155  0.00  0.00    -0.267 OA
ATOM      4  C   UNL     1      -4.684   1.094   0.726  0.00  0.00    +0.076 A 
ATOM      5  C   UNL     1      -5.929   1.708   0.263  0.00  0.00    -0.023 A 
ATOM      6  C   UNL     1      -7.080   1.101   0.617  0.00  0.00    -0.004 A 
ATOM      7  S   UNL     1      -6.582  -0.305   1.576  0.00  0.00    -0.073 S 
ATOM      8  C   UNL     1      -4.824  -0.072   1.497  0.00  0.00    +0.117 A 
ATOM      9  N   UNL     1      -3.777  -0.731   1.980  0.00  0.00    -0.216 NA
ATOM     10  C   UNL     1      -2.550  -0.308   1.751  0.00  0.00    +0.173 A 
ATOM     11  C   UNL     1      -8.474   1.527   0.273  0.00  0.00    +0.046 C 
ATOM     12  C   UNL     1      -8.427   2.974  -0.239  0.00  0.00    -0.009 C 
ATOM     13  C   UNL     1      -7.305   3.092  -1.275  0.00  0.00    +0.008 C 
ATOM     14  C   UNL     1      -5.946   2.978  -0.584  0.00  0.00    +0.037 C 
ATOM     15  C   UNL     1      -9.766   3.334  -0.885  0.00  0.00    +0.008 C 
ENDROOT
BRANCH   1  17
ATOM     16  C   UNL     1      -0.415   0.611  -0.503  0.00  0.00    +0.027 C 
ATOM     17  C   UNL     1      -0.946   1.257   0.778  0.00  0.00    +0.124 C 
ENDBRANCH   1  17
BRANCH  10  18
ATOM     18  S   UNL     1      -1.185  -1.207   2.408  0.00  0.00    -0.082 S 
BRANCH  18  19
ATOM     19  C   UNL     1      -2.066  -2.540   3.258  0.00  0.00    +0.128 C 
BRANCH  19  20
ATOM     20  C   UNL     1      -1.070  -3.462   3.913  0.00  0.00    +0.034 C 
ATOM     21  C   UNL     1      -0.734  -4.619   3.303  0.00  0.00    +0.071 C 
ATOM     22  C   UNL     1       0.275  -5.514   3.995  0.00  0.00    +0.150 C 
ATOM     23  N   UNL     1       0.801  -5.050   5.289  0.00  0.00    -0.295 N 
ATOM     24  C   UNL     1       0.364  -3.870   5.774  0.00  0.00    +0.304 C 
ATOM     25  O   UNL     1       0.793  -3.478   6.842  0.00  0.00    -0.253 OA
ATOM     26  N   UNL     1      -0.526  -3.116   5.118  0.00  0.00    -0.272 N 
ATOM     27  H   UNL     1       1.534  -5.661   5.837  0.00  0.00    +0.151 HD
ATOM     28  H   UNL     1      -0.817  -2.172   5.601  0.00  0.00    +0.156 HD
BRANCH  21  29
ATOM     29  C   UNL     1      -1.300  -4.981   2.059  0.00  0.00    +0.338 C 
ATOM     30  O   UNL     1      -1.994  -4.186   1.452  0.00  0.00    -0.245 OA
BRANCH  29  31
ATOM     31  O   UNL     1      -1.072  -6.207   1.544  0.00  0.00    -0.462 OA
BRANCH  31  32
ATOM     32  C   UNL     1      -1.675  -6.505   0.284  0.00  0.00    +0.229 C 
ATOM     33  C   UNL     1      -1.306  -7.929  -0.135  0.00  0.00    +0.048 C 
ENDBRANCH  31  32
ENDBRANCH  29  31
ENDBRANCH  21  29
ENDBRANCH  19  20
ENDBRANCH  18  19
ENDBRANCH  10  18
TORSDOF 7
