REMARK  Name = ZINC21986130
REMARK  7 active torsions:
REMARK  status: ('A' for Active; 'I' for Inactive)
REMARK    1  A    between atoms: C_1  and  C_2
REMARK    2  A    between atoms: C_17  and  C_31
REMARK    3  A    between atoms: C_23  and  C_30
REMARK    4  A    between atoms: C_24  and  C_25
REMARK    5  A    between atoms: C_24  and  O_29
REMARK    6  A    between atoms: C_25  and  C_27
REMARK    7  A    between atoms: C_27  and  O_28
REMARK                            x       y       z     vdW  Elec       q    Type
REMARK                         _______ _______ _______ _____ _____    ______ ____
ROOT
ATOM      1  C   UNL     1       0.337   3.221  -3.021  0.00  0.00    +0.011 C 
ATOM      2  C   UNL     1       0.154   2.965  -1.520  0.00  0.00    +0.026 C 
ATOM      3  C   UNL     1      -0.575   1.619  -1.293  0.00  0.00    +0.011 C 
ATOM      4  C   UNL     1      -0.011   1.100   0.062  0.00  0.00    +0.004 C 
ATOM      5  C   UNL     1      -0.888   1.635   1.180  0.00  0.00    +0.029 C 
ATOM      6  C   UNL     1      -1.387   3.042   0.857  0.00  0.00    +0.011 C 
ATOM      7  C   UNL     1      -2.324   3.565   1.957  0.00  0.00    +0.032 C 
ATOM      8  C   UNL     1      -1.538   3.530   3.252  0.00  0.00    -0.053 C 
ATOM      9  C   UNL     1      -1.330   4.644   3.937  0.00  0.00    +0.051 C 
ATOM     10  C   UNL     1      -0.557   4.613   5.190  0.00  0.00    +0.179 C 
ATOM     11  O   UNL     1      -0.334   5.639   5.808  0.00  0.00    -0.288 OA
ATOM     12  C   UNL     1      -0.056   3.318   5.680  0.00  0.00    +0.047 C 
ATOM     13  C   UNL     1      -0.289   2.213   4.981  0.00  0.00    -0.009 C 
ATOM     14  C   UNL     1      -1.018   2.193   3.690  0.00  0.00    +0.039 C 
ATOM     15  C   UNL     1      -0.205   1.589   2.540  0.00  0.00    +0.111 C 
ATOM     16  C   UNL     1       1.307   1.679   2.611  0.00  0.00    +0.153 C 
ATOM     17  O   UNL     1       0.595   0.454   2.878  0.00  0.00    -0.363 OA
ATOM     18  C   UNL     1       2.164   1.645   1.358  0.00  0.00    +0.044 C 
ATOM     19  C   UNL     1       1.420   1.592   0.072  0.00  0.00    +0.010 C 
ATOM     20  C   UNL     1       1.533   2.809  -0.837  0.00  0.00    +0.134 C 
ATOM     21  C   UNL     1       2.171   0.504  -0.718  0.00  0.00    +0.015 C 
ATOM     22  C   UNL     1      -2.228   1.284   3.908  0.00  0.00    +0.023 C 
ENDROOT
BRANCH  20  23
ATOM     23  C   UNL     1       2.601   2.580  -1.879  0.00  0.00    +0.190 C 
ATOM     24  O   UNL     1       2.446   1.734  -2.727  0.00  0.00    -0.292 OA
BRANCH  23  25
ATOM     25  C   UNL     1       3.861   3.406  -1.861  0.00  0.00    +0.233 C 
BRANCH  25  26
ATOM     26  O   UNL     1       4.710   3.005  -2.938  0.00  0.00    -0.387 OA
ATOM     27  H   UNL     1       5.681   3.499  -3.087  0.00  0.00    +0.210 HD
ENDBRANCH  25  26
ENDBRANCH  23  25
ENDBRANCH  20  23
BRANCH  20  28
ATOM     28  O   UNL     1       1.839   3.982  -0.079  0.00  0.00    -0.380 OA
ATOM     29  H   UNL     1       2.787   4.046   0.476  0.00  0.00    +0.211 HD
ENDBRANCH  20  28
TORSDOF 4
