REMARK  Name = ZINC09264291
REMARK  3 active torsions:
REMARK  status: ('A' for Active; 'I' for Inactive)
REMARK    1  A    between atoms: C_4  and  C_7
REMARK    2  A    between atoms: C_12  and  C_17
REMARK    3  A    between atoms: N_32  and  C_33
REMARK                            x       y       z     vdW  Elec       q    Type
REMARK                         _______ _______ _______ _____ _____    ______ ____
ROOT
ATOM      1  C   UNL     1       2.635  -0.141   2.694  0.00  0.00    +0.148 C 
ATOM      2  C   UNL     1       2.241   0.432   1.353  0.00  0.00    +0.037 C 
ATOM      3  C   UNL     1       2.528   1.667   0.910  0.00  0.00    +0.017 C 
ATOM      4  C   UNL     1       2.058   2.119  -0.464  0.00  0.00    +0.063 C 
ATOM      5  C   UNL     1       0.730   1.448  -0.808  0.00  0.00    +0.068 C 
ATOM      6  C   UNL     1       0.959  -0.069  -0.797  0.00  0.00    +0.091 C 
ATOM      7  C   UNL     1       1.492  -0.459   0.549  0.00  0.00    +0.163 C 
ATOM      8  O   UNL     1       1.273  -1.581   0.964  0.00  0.00    -0.292 OA
ATOM      9  N   UNL     1       3.243   2.596   1.595  0.00  0.00    -0.316 N 
ATOM     10  C   UNL     1       3.042   2.928   2.930  0.00  0.00    +0.053 A 
ATOM     11  C   UNL     1       2.630   4.187   3.328  0.00  0.00    +0.025 A 
ATOM     12  C   UNL     1       2.500   4.463   4.678  0.00  0.00    +0.002 A 
ATOM     13  C   UNL     1       2.782   3.488   5.618  0.00  0.00    +0.002 A 
ATOM     14  C   UNL     1       3.176   2.223   5.220  0.00  0.00    +0.025 A 
ATOM     15  C   UNL     1       3.285   1.936   3.868  0.00  0.00    +0.060 A 
ATOM     16  N   UNL     1       3.602   0.653   3.422  0.00  0.00    -0.242 N 
ATOM     17  C   UNL     1       4.824   0.145   3.674  0.00  0.00    +0.312 C 
ATOM     18  O   UNL     1       5.109  -0.972   3.289  0.00  0.00    -0.252 OA
ATOM     19  N   UNL     1       5.731   0.877   4.351  0.00  0.00    -0.269 N 
ATOM     20  H   UNL     1       4.049   3.150   1.092  0.00  0.00    +0.152 HD
ATOM     21  H   UNL     1       5.506   1.918   4.623  0.00  0.00    +0.156 HD
ENDROOT
BRANCH   1  25
ATOM     22  C   UNL     1      -0.879  -0.532   5.090  0.00  0.00    +0.000 A 
ATOM     23  C   UNL     1      -0.165  -1.657   4.723  0.00  0.00    +0.000 A 
ATOM     24  C   UNL     1       0.972  -1.530   3.948  0.00  0.00    +0.006 A 
ATOM     25  C   UNL     1       1.395  -0.279   3.539  0.00  0.00    -0.022 A 
ATOM     26  C   UNL     1       0.683   0.846   3.911  0.00  0.00    +0.006 A 
ATOM     27  C   UNL     1      -0.457   0.720   4.682  0.00  0.00    +0.000 A 
ENDBRANCH   1  25
BRANCH  19  28
ATOM     28  C   UNL     1       6.960   0.311   4.708  0.00  0.00    +0.035 A 
ATOM     29  C   UNL     1       7.039  -1.039   5.025  0.00  0.00    +0.023 A 
ATOM     30  C   UNL     1       8.255  -1.596   5.371  0.00  0.00    +0.002 A 
ATOM     31  C   UNL     1       9.391  -0.808   5.414  0.00  0.00    +0.000 A 
ATOM     32  C   UNL     1       9.314   0.538   5.105  0.00  0.00    +0.002 A 
ATOM     33  C   UNL     1       8.103   1.099   4.752  0.00  0.00    +0.023 A 
ENDBRANCH  19  28
BRANCH   5  34
ATOM     34  C   UNL     1       0.276   1.885  -2.177  0.00  0.00    +0.109 A 
ATOM     35  C   UNL     1      -0.891   2.492  -2.462  0.00  0.00    +0.045 A 
ATOM     36  C   UNL     1      -0.902   2.724  -3.856  0.00  0.00    +0.041 A 
ATOM     37  C   UNL     1       0.255   2.238  -4.341  0.00  0.00    +0.195 A 
ATOM     38  O   UNL     1       0.964   1.731  -3.319  0.00  0.00    -0.468 OA
ENDBRANCH   5  34
TORSDOF 3
