REMARK  Name = ZINC20357223
REMARK  14 active torsions:
REMARK  status: ('A' for Active; 'I' for Inactive)
REMARK    1  A    between atoms: C_1  and  C_2
REMARK    2  A    between atoms: C_5  and  C_31
REMARK    3  A    between atoms: C_6  and  N_8
REMARK    4  A    between atoms: N_8  and  C_9
REMARK    5  A    between atoms: C_9  and  N_11
REMARK    6  A    between atoms: N_11  and  C_12
REMARK    7  A    between atoms: N_11  and  C_21
REMARK    8  A    between atoms: C_12  and  C_13
REMARK    9  A    between atoms: C_18  and  O_19
REMARK   10  A    between atoms: O_19  and  C_20
REMARK   11  A    between atoms: C_23  and  C_29
REMARK   12  A    between atoms: C_23  and  C_30
REMARK   13  A    between atoms: C_25  and  C_27
REMARK   14  A    between atoms: C_25  and  C_28
REMARK                            x       y       z     vdW  Elec       q    Type
REMARK                         _______ _______ _______ _____ _____    ______ ____
ROOT
ATOM      1  N   UNL     1       0.136   0.029  -4.741  0.00  0.00    -0.305 N 
ENDROOT
BRANCH   1   2
ATOM      2  C   UNL     1       0.227   1.495  -4.725  0.00  0.00    +0.073 C 
ATOM      3  C   UNL     1       1.391   1.918  -3.830  0.00  0.00    +0.009 C 
ATOM      4  C   UNL     1       1.495   3.440  -3.778  0.00  0.00    -0.072 C 
ATOM      5  N   UNL     1       0.231   4.084  -3.491  0.00  0.00    +0.386 N 
ATOM      6  C   UNL     1      -0.991   3.596  -4.097  0.00  0.00    -0.072 C 
ATOM      7  C   UNL     1      -1.065   2.072  -4.147  0.00  0.00    +0.009 C 
ATOM      8  C   UNL     1      -1.173   4.165  -5.509  0.00  0.00    -0.010 C 
ATOM      9  C   UNL     1      -2.182   4.093  -3.248  0.00  0.00    -0.010 C 
ATOM     10  C   UNL     1       2.094   3.958  -5.092  0.00  0.00    -0.010 C 
ATOM     11  C   UNL     1       2.488   3.800  -2.650  0.00  0.00    -0.010 C 
ATOM     12  H   UNL     1       0.028   4.029  -2.411  0.00  0.00    -0.084 HD
ATOM     13  H   UNL     1       0.276   5.138  -3.802  0.00  0.00    -0.084 HD
ENDBRANCH   1   2
BRANCH   1  14
ATOM     14  C   UNL     1       0.057  -0.653  -3.582  0.00  0.00    +0.138 C 
ATOM     15  S   UNL     1       0.054  -2.365  -3.595  0.00  0.00    -0.018 S 
BRANCH  14  16
ATOM     16  N   UNL     1      -0.021   0.012  -2.412  0.00  0.00    -0.297 N 
ATOM     17  H   UNL     1      -0.115   1.108  -2.407  0.00  0.00    +0.154 HD
BRANCH  16  23
ATOM     18  C   UNL     1      -1.924  -3.422   0.548  0.00  0.00    +0.044 C 
ATOM     19  C   UNL     1      -0.893  -2.361   0.258  0.00  0.00    -0.049 A 
ATOM     20  C   UNL     1       0.089  -2.079   1.190  0.00  0.00    +0.004 A 
ATOM     21  C   UNL     1       1.036  -1.107   0.927  0.00  0.00    +0.005 A 
ATOM     22  C   UNL     1       1.004  -0.415  -0.268  0.00  0.00    -0.029 A 
ATOM     23  C   UNL     1       0.017  -0.692  -1.203  0.00  0.00    +0.036 A 
ATOM     24  C   UNL     1      -0.930  -1.673  -0.939  0.00  0.00    +0.027 A 
ATOM     25  C   UNL     1       2.038   0.645  -0.553  0.00  0.00    +0.045 C 
ENDBRANCH  16  23
ENDBRANCH  14  16
ENDBRANCH   1  14
BRANCH   1  26
ATOM     26  C   UNL     1       0.133  -0.691  -6.017  0.00  0.00    +0.145 C 
BRANCH  26  27
ATOM     27  C   UNL     1      -1.285  -0.850  -6.500  0.00  0.00    +0.011 A 
ATOM     28  C   UNL     1      -1.949  -2.047  -6.312  0.00  0.00    +0.009 A 
ATOM     29  C   UNL     1      -3.251  -2.193  -6.756  0.00  0.00    +0.001 A 
ATOM     30  C   UNL     1      -3.891  -1.143  -7.387  0.00  0.00    +0.004 A 
ATOM     31  C   UNL     1      -3.232   0.056  -7.576  0.00  0.00    +0.046 A 
ATOM     32  C   UNL     1      -1.927   0.207  -7.129  0.00  0.00    +0.125 A 
BRANCH  32  33
ATOM     33  O   UNL     1      -1.278   1.387  -7.309  0.00  0.00    -0.495 OA
ATOM     34  C   UNL     1      -2.001   2.432  -7.964  0.00  0.00    +0.277 C 
ENDBRANCH  32  33
ENDBRANCH  26  27
ENDBRANCH   1  26
TORSDOF 7
