REMARK  Name = ZINC06997817
REMARK  8 active torsions:
REMARK  status: ('A' for Active; 'I' for Inactive)
REMARK    1  A    between atoms: C_1  and  C_2
REMARK    2  A    between atoms: C_2  and  C_3
REMARK    3  A    between atoms: C_2  and  C_4
REMARK    4  A    between atoms: C_2  and  C_5
REMARK    5  A    between atoms: N_13  and  C_17
REMARK    6  A    between atoms: C_17  and  N_67
REMARK    7  A    between atoms: C_20  and  C_23
REMARK    8  A    between atoms: C_23  and  C_24
REMARK                            x       y       z     vdW  Elec       q    Type
REMARK                         _______ _______ _______ _____ _____    ______ ____
ROOT
ATOM      1  C   UNL     1      -0.019   1.526   0.010  0.00  0.00    -0.005 C 
ATOM      2  C   UNL     1      -0.759   2.033  -1.229  0.00  0.00    +0.006 C 
ATOM      3  C   UNL     1      -0.790   3.563  -1.213  0.00  0.00    +0.035 C 
ATOM      4  C   UNL     1       0.636   4.103  -1.197  0.00  0.00    +0.112 C 
ATOM      5  C   UNL     1       1.395   3.586   0.020  0.00  0.00    +0.035 C 
ATOM      6  C   UNL     1       1.417   2.055  -0.000  0.00  0.00    +0.006 C 
ATOM      7  C   UNL     1       0.627   5.614  -1.209  0.00  0.00    +0.245 C 
ATOM      8  O   UNL     1       0.148   6.352  -0.374  0.00  0.00    -0.273 OA
ATOM      9  N   UNL     1       1.264   5.969  -2.344  0.00  0.00    -0.241 N 
ATOM     10  C   UNL     1       1.667   4.899  -3.038  0.00  0.00    +0.308 C 
ATOM     11  O   UNL     1       2.264   4.964  -4.095  0.00  0.00    -0.252 OA
ATOM     12  N   UNL     1       1.338   3.740  -2.434  0.00  0.00    -0.285 N 
ATOM     13  H   UNL     1       1.528   2.844  -2.754  0.00  0.00    +0.151 HD
ENDROOT
BRANCH   1  15
ATOM     14  C   UNL     1       0.742  -0.511   1.242  0.00  0.00    +0.011 C 
ATOM     15  C   UNL     1       0.002  -0.004   0.002  0.00  0.00    -0.035 C 
ATOM     16  C   UNL     1      -1.433  -0.534   0.013  0.00  0.00    +0.011 C 
ATOM     17  C   UNL     1       0.718  -0.497  -1.257  0.00  0.00    +0.011 C 
ENDBRANCH   1  15
BRANCH   9  18
ATOM     18  C   UNL     1       1.487   7.355  -2.764  0.00  0.00    +0.043 C 
BRANCH  18  24
ATOM     19  C   UNL     1       3.727   6.727  -2.095  0.00  0.00    -0.076 C 
ATOM     20  C   UNL     1       4.993   7.228  -1.397  0.00  0.00    -0.015 C 
ATOM     21  C   UNL     1       5.604   8.368  -2.216  0.00  0.00    -0.010 C 
ATOM     22  C   UNL     1       4.568   9.484  -2.376  0.00  0.00    -0.015 C 
ATOM     23  C   UNL     1       3.314   8.917  -3.046  0.00  0.00    -0.076 C 
ATOM     24  N   UNL     1       2.761   7.841  -2.196  0.00  0.00    +0.390 N 
ATOM     25  H   UNL     1       2.586   8.216  -1.256  0.00  0.00    -0.079 HD
BRANCH  21  26
ATOM     26  C   UNL     1       6.837   8.915  -1.493  0.00  0.00    +0.038 C 
BRANCH  26  27
ATOM     27  C   UNL     1       7.904   7.852  -1.445  0.00  0.00    -0.047 A 
ATOM     28  C   UNL     1       7.959   6.976  -0.378  0.00  0.00    +0.003 A 
ATOM     29  C   UNL     1       8.935   5.997  -0.336  0.00  0.00    +0.000 A 
ATOM     30  C   UNL     1       9.862   5.902  -1.357  0.00  0.00    +0.000 A 
ATOM     31  C   UNL     1       9.809   6.781  -2.423  0.00  0.00    +0.000 A 
ATOM     32  C   UNL     1       8.831   7.756  -2.466  0.00  0.00    +0.003 A 
ENDBRANCH  26  27
ENDBRANCH  21  26
ENDBRANCH  18  24
ENDBRANCH   9  18
TORSDOF 5
