REMARK  Name = ZINC00936479
REMARK  4 active torsions:
REMARK  status: ('A' for Active; 'I' for Inactive)
REMARK    1  A    between atoms: C_1  and  C_2
REMARK    2  A    between atoms: C_6  and  S_9
REMARK    3  A    between atoms: S_9  and  N_12
REMARK    4  A    between atoms: N_15  and  C_18
REMARK                            x       y       z     vdW  Elec       q    Type
REMARK                         _______ _______ _______ _____ _____    ______ ____
ROOT
ATOM      1  N   UNL     1       0.753   1.078   5.601  0.00  0.00    -0.174 NA
ATOM      2  C   UNL     1      -0.133   0.277   6.461  0.00  0.00    +0.128 C 
ATOM      3  C   UNL     1      -0.218  -1.141   5.876  0.00  0.00    +0.122 C 
ATOM      4  N   UNL     1       1.138  -1.680   5.710  0.00  0.00    -0.326 N 
ATOM      5  C   UNL     1       1.912  -0.888   4.744  0.00  0.00    +0.122 C 
ATOM      6  C   UNL     1       2.082   0.538   5.277  0.00  0.00    +0.128 C 
ENDROOT
BRANCH   4   7
ATOM      7  C   UNL     1       1.101  -3.026   5.339  0.00  0.00    +0.050 A 
ATOM      8  C   UNL     1       0.543  -3.397   4.122  0.00  0.00    +0.044 A 
ATOM      9  C   UNL     1       0.513  -4.729   3.755  0.00  0.00    +0.043 A 
ATOM     10  C   UNL     1       1.027  -5.694   4.604  0.00  0.00    +0.021 A 
ATOM     11  C   UNL     1       1.578  -5.329   5.818  0.00  0.00    +0.023 A 
ATOM     12  C   UNL     1       1.617  -3.998   6.188  0.00  0.00    +0.062 A 
ATOM     13 CL   UNL     1       2.309  -3.540   7.713  0.00  0.00    -0.082 Cl
ATOM     14 CL   UNL     1      -0.177  -5.194   2.231  0.00  0.00    -0.083 Cl
ENDBRANCH   4   7
BRANCH   1  15
ATOM     15  S   UNL     1       0.268   2.551   5.020  0.00  0.00    +0.062 S 
ATOM     16  O   UNL     1       1.439   3.348   4.908  0.00  0.00    -0.153 OA
ATOM     17  O   UNL     1      -0.852   2.947   5.799  0.00  0.00    -0.153 OA
BRANCH  15  23
ATOM     18  C   UNL     1      -3.206   0.569   1.651  0.00  0.00    +0.047 C 
ATOM     19  C   UNL     1      -1.946   1.363   1.882  0.00  0.00    -0.012 A 
ATOM     20  C   UNL     1      -1.251   1.887   0.806  0.00  0.00    +0.045 A 
ATOM     21  C   UNL     1      -0.098   2.620   1.019  0.00  0.00    +0.022 A 
ATOM     22  C   UNL     1       0.366   2.822   2.306  0.00  0.00    +0.031 A 
ATOM     23  C   UNL     1      -0.324   2.294   3.380  0.00  0.00    +0.124 A 
ATOM     24  C   UNL     1      -1.481   1.565   3.169  0.00  0.00    +0.072 A 
ATOM     25 CL   UNL     1      -2.348   0.902   4.519  0.00  0.00    -0.081 Cl
ATOM     26 CL   UNL     1      -1.831   1.629  -0.810  0.00  0.00    -0.083 Cl
ENDBRANCH  15  23
ENDBRANCH   1  15
TORSDOF 3
