REMARK  Name = ZINC39485951
REMARK  13 active torsions:
REMARK  status: ('A' for Active; 'I' for Inactive)
REMARK    1  A    between atoms: C_1  and  C_2
REMARK    2  A    between atoms: C_4  and  C_9
REMARK    3  A    between atoms: C_5  and  C_8
REMARK    4  A    between atoms: C_9  and  N_10
REMARK    5  A    between atoms: N_10  and  C_11
REMARK    6  A    between atoms: N_10  and  C_12
REMARK    7  A    between atoms: C_12  and  C_13
REMARK    8  A    between atoms: C_20  and  C_35
REMARK    9  A    between atoms: C_22  and  N_24
REMARK   10  A    between atoms: C_25  and  C_27
REMARK   11  A    between atoms: C_27  and  C_28
REMARK   12  A    between atoms: C_35  and  O_37
REMARK   13  A    between atoms: O_37  and  C_38
REMARK                            x       y       z     vdW  Elec       q    Type
REMARK                         _______ _______ _______ _____ _____    ______ ____
ROOT
ATOM      1  C   UNL     1      -1.536  -2.508  -5.367  0.00  0.00    +0.026 A 
ATOM      2  C   UNL     1      -2.893  -2.253  -5.371  0.00  0.00    +0.022 A 
ATOM      3  C   UNL     1      -3.785  -3.268  -5.667  0.00  0.00    +0.010 A 
ATOM      4  C   UNL     1      -3.300  -4.547  -5.955  0.00  0.00    +0.006 A 
ATOM      5  C   UNL     1      -1.916  -4.715  -5.913  0.00  0.00    +0.103 A 
ATOM      6  N   UNL     1      -1.093  -3.721  -5.642  0.00  0.00    -0.247 NA
ATOM      7  S   UNL     1      -1.609  -6.433  -6.267  0.00  0.00    -0.089 S 
ATOM      8  C   UNL     1      -3.325  -7.071  -6.077  0.00  0.00    +0.186 C 
ATOM      9  C   UNL     1      -4.114  -5.763  -6.317  0.00  0.00    +0.130 C 
ENDROOT
BRANCH   9  10
ATOM     10  N   UNL     1      -4.489  -5.684  -7.731  0.00  0.00    -0.307 N 
ATOM     11  C   UNL     1      -5.631  -5.067  -8.092  0.00  0.00    +0.218 C 
ATOM     12  O   UNL     1      -6.349  -4.577  -7.246  0.00  0.00    -0.275 OA
ATOM     13  H   UNL     1      -3.914  -6.075  -8.408  0.00  0.00    +0.149 HD
BRANCH  11  14
ATOM     14  C   UNL     1      -6.017  -4.985  -9.547  0.00  0.00    +0.133 C 
BRANCH  14  15
ATOM     15  C   UNL     1      -7.327  -4.251  -9.679  0.00  0.00    -0.003 A 
ATOM     16  C   UNL     1      -8.512  -4.959  -9.739  0.00  0.00    +0.007 A 
ATOM     17  C   UNL     1      -9.714  -4.286  -9.860  0.00  0.00    +0.000 A 
ATOM     18  C   UNL     1      -9.731  -2.905  -9.921  0.00  0.00    +0.003 A 
ATOM     19  C   UNL     1      -8.547  -2.195  -9.860  0.00  0.00    +0.038 A 
ATOM     20  C   UNL     1      -7.343  -2.868  -9.734  0.00  0.00    +0.127 A 
ATOM     21  F   UNL     1      -6.185  -2.175  -9.669  0.00  0.00    -0.205 F 
ENDBRANCH  14  15
ENDBRANCH  11  14
ENDBRANCH   9  10
BRANCH   8  22
ATOM     22  C   UNL     1      -3.645  -8.106  -7.124  0.00  0.00    +0.322 C 
ATOM     23  O   UNL     1      -4.510  -8.925  -6.920  0.00  0.00    -0.250 OA
BRANCH  22  24
ATOM     24  O   UNL     1      -2.970  -8.119  -8.284  0.00  0.00    -0.467 OA
ATOM     25  C   UNL     1      -3.326  -9.129  -9.231  0.00  0.00    +0.280 C 
ENDBRANCH  22  24
ENDBRANCH   8  22
BRANCH   1  26
ATOM     26  C   UNL     1      -0.562  -1.402  -5.056  0.00  0.00    -0.022 C 
BRANCH  26  27
ATOM     27  N   UNL     1      -0.212  -1.444  -3.630  0.00  0.00    +0.384 N 
ATOM     28  C   UNL     1      -1.405  -1.150  -2.824  0.00  0.00    -0.095 C 
ATOM     29  H   UNL     1       0.134  -2.363  -3.395  0.00  0.00    -0.081 HD
BRANCH  27  30
ATOM     30  C   UNL     1       0.826  -0.444  -3.350  0.00  0.00    -0.043 C 
BRANCH  30  33
ATOM     31  C   UNL     1       0.675   1.579  -0.769  0.00  0.00    +0.039 C 
ATOM     32  C   UNL     1       0.643   0.051  -0.682  0.00  0.00    +0.151 C 
ATOM     33  C   UNL     1       1.273  -0.571  -1.916  0.00  0.00    -0.038 C 
ATOM     34  C   UNL     1       2.312  -1.256  -1.436  0.00  0.00    +0.060 C 
ATOM     35  N   UNL     1       2.391  -1.130  -0.092  0.00  0.00    -0.159 NA
ATOM     36  N   UNL     1       1.507  -0.426   0.411  0.00  0.00    -0.180 NA
ATOM     37  C   UNL     1       3.269  -2.061  -2.277  0.00  0.00    +0.067 C 
ENDBRANCH  30  33
ENDBRANCH  27  30
ENDBRANCH  26  27
ENDBRANCH   1  26
TORSDOF 9
