REMARK  Name = ZINC21272829
REMARK  10 active torsions:
REMARK  status: ('A' for Active; 'I' for Inactive)
REMARK    1  A    between atoms: C_1  and  C_2
REMARK    2  A    between atoms: C_3  and  C_8
REMARK    3  A    between atoms: C_4  and  C_7
REMARK    4  A    between atoms: C_8  and  S_9
REMARK    5  A    between atoms: S_9  and  C_10
REMARK    6  A    between atoms: C_10  and  C_11
REMARK    7  A    between atoms: N_13  and  C_14
REMARK    8  A    between atoms: C_17  and  S_20
REMARK    9  A    between atoms: S_20  and  C_23
REMARK   10  A    between atoms: C_26  and  N_29
REMARK                            x       y       z     vdW  Elec       q    Type
REMARK                         _______ _______ _______ _____ _____    ______ ____
ROOT
ATOM      1  C   UNL     1       6.696   5.480   3.022  0.00  0.00    +0.034 A 
ATOM      2  C   UNL     1       6.031   6.614   2.574  0.00  0.00    +0.025 A 
ATOM      3  C   UNL     1       6.716   7.806   2.439  0.00  0.00    +0.029 A 
ATOM      4  C   UNL     1       8.065   7.868   2.738  0.00  0.00    +0.094 A 
ATOM      5  C   UNL     1       8.731   6.739   3.179  0.00  0.00    +0.029 A 
ATOM      6  C   UNL     1       8.050   5.546   3.322  0.00  0.00    +0.025 A 
ENDROOT
BRANCH   1   9
ATOM      7  C   UNL     1       6.324   3.427   4.165  0.00  0.00    +0.227 C 
ATOM      8  O   UNL     1       7.268   3.672   4.888  0.00  0.00    -0.275 OA
ATOM      9  N   UNL     1       6.003   4.273   3.167  0.00  0.00    -0.285 N 
ATOM     10  H   UNL     1       5.197   4.014   2.465  0.00  0.00    +0.155 HD
BRANCH   7  11
ATOM     11  C   UNL     1       5.512   2.177   4.385  0.00  0.00    +0.165 C 
BRANCH  11  12
ATOM     12  S   UNL     1       6.189   1.255   5.793  0.00  0.00    -0.147 S 
BRANCH  12  13
ATOM     13  C   UNL     1       5.114  -0.200   5.922  0.00  0.00    +0.110 C 
BRANCH  13  16
ATOM     14  C   UNL     1       4.164  -0.049   9.021  0.00  0.00    +0.069 C 
ATOM     15  C   UNL     1       5.164  -1.004   8.421  0.00  0.00    +0.085 A 
ATOM     16  C   UNL     1       5.572  -1.064   7.069  0.00  0.00    +0.027 A 
ATOM     17  C   UNL     1       6.472  -2.076   7.043  0.00  0.00    +0.138 A 
ATOM     18  O   UNL     1       6.554  -2.543   8.297  0.00  0.00    -0.359 OA
ATOM     19  N   UNL     1       5.827  -1.933   9.046  0.00  0.00    -0.083 NA
ATOM     20  C   UNL     1       7.230  -2.579   5.842  0.00  0.00    +0.089 C 
ENDBRANCH  13  16
ENDBRANCH  12  13
ENDBRANCH  11  12
ENDBRANCH   7  11
ENDBRANCH   1   9
BRANCH   4  21
ATOM     21  S   UNL     1       8.937   9.388   2.557  0.00  0.00    +0.025 S 
ATOM     22  O   UNL     1       7.970  10.425   2.652  0.00  0.00    -0.164 OA
ATOM     23  O   UNL     1      10.063   9.316   3.421  0.00  0.00    -0.164 OA
BRANCH  21  24
ATOM     24  C   UNL     1       9.566   9.435   0.912  0.00  0.00    +0.094 A 
ATOM     25  C   UNL     1      10.822   8.926   0.637  0.00  0.00    +0.029 A 
ATOM     26  C   UNL     1      11.313   8.959  -0.654  0.00  0.00    +0.034 A 
ATOM     27  C   UNL     1      10.554   9.510  -1.669  0.00  0.00    +0.126 A 
ATOM     28  C   UNL     1       9.301  10.024  -1.394  0.00  0.00    +0.034 A 
ATOM     29  C   UNL     1       8.807   9.987  -0.103  0.00  0.00    +0.029 A 
BRANCH  27  30
ATOM     30  N   UNL     1      11.083   9.550  -3.051  0.00  0.00    +0.056 N 
ATOM     31  O   UNL     1      10.413  10.035  -3.946  0.00  0.00    -0.126 OA
ATOM     32  O   UNL     1      12.187   9.097  -3.294  0.00  0.00    -0.126 OA
ENDBRANCH  27  30
ENDBRANCH  21  24
ENDBRANCH   4  21
TORSDOF 8
