REMARK  Name = ZINC01103341
REMARK  5 active torsions:
REMARK  status: ('A' for Active; 'I' for Inactive)
REMARK    1  A    between atoms: C_5  and  C_6
REMARK    2  A    between atoms: C_15  and  C_23
REMARK    3  A    between atoms: C_16  and  N_22
REMARK    4  A    between atoms: C_17  and  C_18
REMARK    5  A    between atoms: C_17  and  C_20
REMARK                            x       y       z     vdW  Elec       q    Type
REMARK                         _______ _______ _______ _____ _____    ______ ____
ROOT
ATOM      1  C   UNL     1      -3.866   2.605  -0.173  0.00  0.00    +0.073 C 
ATOM      2  C   UNL     1      -2.926   1.421   0.065  0.00  0.00    +0.031 C 
ATOM      3  C   UNL     1      -2.186   1.028  -1.192  0.00  0.00    +0.009 C 
ATOM      4  C   UNL     1      -0.771   1.602  -1.222  0.00  0.00    +0.005 C 
ATOM      5  C   UNL     1      -0.013   1.086   0.008  0.00  0.00    +0.027 C 
ATOM      6  C   UNL     1      -0.734   1.580   1.235  0.00  0.00    -0.022 C 
ATOM      7  C   UNL     1      -2.043   1.747   1.232  0.00  0.00    -0.029 C 
ATOM      8  C   UNL     1      -2.700   2.340   2.428  0.00  0.00    +0.074 C 
ATOM      9  C   UNL     1      -3.962   2.825   2.321  0.00  0.00    +0.054 C 
ATOM     10  C   UNL     1      -4.762   2.781   1.054  0.00  0.00    +0.189 C 
ENDROOT
BRANCH   1  15
ATOM     11  C   UNL     1      -4.806   3.047  -2.540  0.00  0.00    +0.027 A 
ATOM     12  C   UNL     1      -5.664   2.609  -3.531  0.00  0.00    +0.025 A 
ATOM     13  C   UNL     1      -6.391   1.484  -3.322  0.00  0.00    +0.060 A 
ATOM     14  S   UNL     1      -5.863   1.002  -1.686  0.00  0.00    -0.100 S 
ATOM     15  C   UNL     1      -4.717   2.338  -1.388  0.00  0.00    -0.003 A 
ATOM     16 BR   UNL     1      -5.822   3.565  -5.155  0.00  0.00    -0.050 Br
ENDBRANCH   1  15
BRANCH   9  17
ATOM     17  N   UNL     1      -4.535   3.384   3.428  0.00  0.00    -0.358 N 
ATOM     18  H   UNL     1      -5.558   3.787   3.374  0.00  0.00    +0.142 HD
ATOM     19  H   UNL     1      -3.974   3.432   4.373  0.00  0.00    +0.142 HD
ENDBRANCH   9  17
BRANCH  10  20
ATOM     20  C   UNL     1      -5.519   4.036   0.920  0.00  0.00    +0.091 C 
ATOM     21  N   UNL     1      -6.103   5.005   0.817  0.00  0.00    -0.194 NA
ENDBRANCH  10  20
BRANCH  10  22
ATOM     22  C   UNL     1      -5.709   1.656   1.122  0.00  0.00    +0.091 C 
ATOM     23  N   UNL     1      -6.439   0.788   1.175  0.00  0.00    -0.194 NA
ENDBRANCH  10  22
BRANCH   8  24
ATOM     24  C   UNL     1      -2.006   2.397   3.679  0.00  0.00    +0.101 C 
ATOM     25  N   UNL     1      -1.456   2.443   4.672  0.00  0.00    -0.191 NA
ENDBRANCH   8  24
TORSDOF 5
