REMARK  Name = ZINC24085745
REMARK  10 active torsions:
REMARK  status: ('A' for Active; 'I' for Inactive)
REMARK    1  A    between atoms: C_1  and  C_2
REMARK    2  A    between atoms: C_6  and  C_33
REMARK    3  A    between atoms: C_7  and  O_8
REMARK    4  A    between atoms: O_8  and  C_9
REMARK    5  A    between atoms: C_9  and  C_10
REMARK    6  A    between atoms: C_10  and  C_12
REMARK    7  A    between atoms: C_10  and  O_32
REMARK    8  A    between atoms: C_12  and  N_13
REMARK    9  A    between atoms: C_16  and  C_20
REMARK   10  A    between atoms: C_16  and  C_21
REMARK                            x       y       z     vdW  Elec       q    Type
REMARK                         _______ _______ _______ _____ _____    ______ ____
ROOT
ATOM      1  N   UNL     1       0.631  -1.227  -1.822  0.00  0.00    -0.221 N 
ATOM      2  C   UNL     1       1.173  -0.517  -0.813  0.00  0.00    +0.251 C 
ATOM      3  O   UNL     1       2.351  -0.327  -0.602  0.00  0.00    -0.272 OA
ATOM      4  C   UNL     1       0.002  -0.004   0.002  0.00  0.00    +0.135 C 
ATOM      5  N   UNL     1      -1.174  -0.534  -0.709  0.00  0.00    -0.281 N 
ATOM      6  C   UNL     1      -0.706  -1.234  -1.758  0.00  0.00    +0.310 C 
ATOM      7  O   UNL     1      -1.417  -1.808  -2.559  0.00  0.00    -0.252 OA
ATOM      8  C   UNL     1       0.057  -0.548   1.431  0.00  0.00    +0.047 C 
ATOM      9  H   UNL     1      -2.186  -0.318  -0.337  0.00  0.00    +0.152 HD
ENDROOT
BRANCH   4  10
ATOM     10  C   UNL     1      -0.018   1.503   0.010  0.00  0.00    -0.012 A 
ATOM     11  C   UNL     1       1.171   2.208   0.003  0.00  0.00    +0.010 A 
ATOM     12  C   UNL     1       1.160   3.591   0.010  0.00  0.00    +0.050 A 
ATOM     13  C   UNL     1      -0.048   4.268   0.024  0.00  0.00    +0.162 A 
ATOM     14  C   UNL     1      -1.241   3.560   0.032  0.00  0.00    +0.162 A 
ATOM     15  C   UNL     1      -1.227   2.176   0.020  0.00  0.00    +0.055 A 
ATOM     16  O   UNL     1      -2.426   4.237   0.046  0.00  0.00    -0.488 OA
ATOM     17  C   UNL     1      -2.722   4.954   1.246  0.00  0.00    +0.232 C 
ATOM     18  C   UNL     1      -2.067   6.327   1.229  0.00  0.00    +0.082 C 
ATOM     19  C   UNL     1      -0.548   6.244   1.231  0.00  0.00    +0.232 C 
ATOM     20  O   UNL     1      -0.073   5.633   0.029  0.00  0.00    -0.488 OA
ENDBRANCH   4  10
BRANCH   1  21
ATOM     21  C   UNL     1       1.409  -1.908  -2.860  0.00  0.00    +0.152 C 
BRANCH  21  22
ATOM     22  C   UNL     1       1.635  -0.955  -4.035  0.00  0.00    +0.170 C 
BRANCH  22  23
ATOM     23  O   UNL     1       0.373  -0.553  -4.573  0.00  0.00    -0.387 OA
ATOM     24  H   UNL     1      -0.351  -0.023  -3.937  0.00  0.00    +0.210 HD
ENDBRANCH  22  23
BRANCH  22  25
ATOM     25  C   UNL     1       2.448  -1.666  -5.119  0.00  0.00    +0.262 C 
BRANCH  25  26
ATOM     26  O   UNL     1       2.759  -0.743  -6.164  0.00  0.00    -0.489 OA
BRANCH  26  33
ATOM     27  C   UNL     1       5.573  -0.564  -5.992  0.00  0.00    +0.047 C 
ATOM     28  C   UNL     1       4.868  -1.157  -7.184  0.00  0.00    -0.009 A 
ATOM     29  C   UNL     1       5.601  -1.645  -8.249  0.00  0.00    +0.007 A 
ATOM     30  C   UNL     1       4.954  -2.185  -9.346  0.00  0.00    +0.001 A 
ATOM     31  C   UNL     1       3.573  -2.241  -9.378  0.00  0.00    +0.007 A 
ATOM     32  C   UNL     1       2.836  -1.759  -8.314  0.00  0.00    -0.009 A 
ATOM     33  C   UNL     1       3.482  -1.218  -7.212  0.00  0.00    +0.126 A 
ATOM     34  C   UNL     1       1.331  -1.820  -8.351  0.00  0.00    +0.047 C 
ENDBRANCH  26  33
ENDBRANCH  25  26
ENDBRANCH  22  25
ENDBRANCH  21  22
ENDBRANCH   1  21
TORSDOF 7
