REMARK  Name = ZINC65074811
REMARK  6 active torsions:
REMARK  status: ('A' for Active; 'I' for Inactive)
REMARK    1  A    between atoms: C_1  and  C_2
REMARK    2  A    between atoms: C_5  and  S_9
REMARK    3  A    between atoms: C_6  and  C_8
REMARK    4  A    between atoms: S_9  and  N_12
REMARK    5  A    between atoms: N_23  and  C_24
REMARK    6  A    between atoms: C_24  and  C_25
REMARK                            x       y       z     vdW  Elec       q    Type
REMARK                         _______ _______ _______ _____ _____    ______ ____
ROOT
ATOM      1  N   UNL     1       1.531  -4.964   0.696  0.00  0.00    -0.176 NA
ATOM      2  C   UNL     1       2.734  -5.099  -0.136  0.00  0.00    +0.111 C 
ATOM      3  C   UNL     1       3.876  -4.314   0.516  0.00  0.00    +0.047 C 
ATOM      4  C   UNL     1       4.057  -4.788   1.960  0.00  0.00    +0.075 C 
ATOM      5  C   UNL     1       2.773  -4.518   2.749  0.00  0.00    +0.047 C 
ATOM      6  C   UNL     1       1.619  -5.301   2.124  0.00  0.00    +0.111 C 
ATOM      7  C   UNL     1       5.200  -4.046   2.593  0.00  0.00    +0.089 C 
ATOM      8  N   UNL     1       6.093  -4.607   3.317  0.00  0.00    -0.374 N 
ATOM      9  C   UNL     1       6.119  -6.036   3.612  0.00  0.00    +0.129 C 
ATOM     10  C   UNL     1       4.754  -6.659   3.310  0.00  0.00    +0.102 C 
ATOM     11  N   UNL     1       4.334  -6.232   1.965  0.00  0.00    -0.303 NA
ATOM     12  N   UNL     1       5.291  -2.696   2.382  0.00  0.00    -0.329 N 
ATOM     13  H   UNL     1       3.529  -6.756   1.654  0.00  0.00    +0.123 HD
ATOM     14  H   UNL     1       4.628  -2.244   1.837  0.00  0.00    +0.147 HD
ATOM     15  H   UNL     1       6.794  -4.050   3.692  0.00  0.00    +0.161 HD
ENDROOT
BRANCH   1  16
ATOM     16  S   UNL     1       0.105  -4.436   0.041  0.00  0.00    +0.061 S 
ATOM     17  O   UNL     1      -0.922  -4.801   0.953  0.00  0.00    -0.153 OA
ATOM     18  O   UNL     1       0.102  -4.856  -1.317  0.00  0.00    -0.153 OA
BRANCH  16  23
ATOM     19  C   UNL     1       0.290   1.594  -0.022  0.00  0.00    +0.044 C 
ATOM     20  C   UNL     1       0.244   0.088  -0.006  0.00  0.00    -0.050 A 
ATOM     21  C   UNL     1       0.280  -0.617  -1.195  0.00  0.00    +0.005 A 
ATOM     22  C   UNL     1       0.238  -1.998  -1.181  0.00  0.00    +0.029 A 
ATOM     23  C   UNL     1       0.160  -2.675   0.022  0.00  0.00    +0.108 A 
ATOM     24  C   UNL     1       0.125  -1.970   1.211  0.00  0.00    -0.024 A 
ATOM     25  C   UNL     1       0.172  -0.589   1.197  0.00  0.00    +0.008 A 
ATOM     26  C   UNL     1       0.040  -2.708   2.522  0.00  0.00    +0.046 C 
ENDBRANCH  16  23
ENDBRANCH   1  16
BRANCH  12  27
ATOM     27  C   UNL     1       6.390  -1.934   2.980  0.00  0.00    +0.138 C 
BRANCH  27  28
ATOM     28  C   UNL     1       6.261  -0.482   2.598  0.00  0.00    -0.030 A 
ATOM     29  C   UNL     1       6.864  -0.014   1.445  0.00  0.00    +0.006 A 
ATOM     30  C   UNL     1       6.746   1.317   1.095  0.00  0.00    +0.020 A 
ATOM     31  C   UNL     1       6.024   2.182   1.897  0.00  0.00    +0.041 A 
ATOM     32  C   UNL     1       5.420   1.714   3.051  0.00  0.00    +0.020 A 
ATOM     33  C   UNL     1       5.535   0.381   3.398  0.00  0.00    +0.006 A 
ATOM     34 CL   UNL     1       5.875   3.855   1.457  0.00  0.00    -0.084 Cl
ENDBRANCH  27  28
ENDBRANCH  12  27
TORSDOF 4
