REMARK  Name = ZINC36202605
REMARK  7 active torsions:
REMARK  status: ('A' for Active; 'I' for Inactive)
REMARK    1  A    between atoms: C_1  and  C_2
REMARK    2  A    between atoms: C_16  and  C_17
REMARK    3  A    between atoms: C_17  and  O_19
REMARK    4  A    between atoms: O_19  and  C_20
REMARK    5  A    between atoms: C_20  and  C_22
REMARK    6  A    between atoms: C_20  and  C_23
REMARK    7  A    between atoms: N_28  and  C_29
REMARK                            x       y       z     vdW  Elec       q    Type
REMARK                         _______ _______ _______ _____ _____    ______ ____
ROOT
ATOM      1  C   UNL     1       0.028  -0.170   2.547  0.00  0.00    +0.347 C 
ATOM      2  O   UNL     1       0.012   1.031   2.737  0.00  0.00    -0.244 OA
ENDROOT
BRANCH   1  18
ATOM      3  C   UNL     1      -0.018   1.503   0.010  0.00  0.00    +0.046 C 
ATOM      4  C   UNL     1       0.002  -0.004   0.002  0.00  0.00    -0.015 A 
ATOM      5  C   UNL     1       0.005  -0.697  -1.210  0.00  0.00    +0.076 A 
ATOM      6  C   UNL     1       0.025  -2.108  -1.113  0.00  0.00    +0.116 A 
ATOM      7  N   UNL     1       0.025  -2.884  -2.188  0.00  0.00    -0.226 NA
ATOM      8  C   UNL     1       0.004  -2.387  -3.393  0.00  0.00    +0.114 A 
ATOM      9  N   UNL     1      -0.013  -1.041  -3.612  0.00  0.00    -0.296 N 
ATOM     10  C   UNL     1      -0.008  -0.165  -2.592  0.00  0.00    +0.263 A 
ATOM     11  O   UNL     1      -0.014   1.035  -2.799  0.00  0.00    -0.267 OA
ATOM     12  C   UNL     1      -0.040  -0.564  -5.001  0.00  0.00    +0.126 C 
ATOM     13  C   UNL     1      -1.432  -0.794  -5.583  0.00  0.00    +0.022 C 
ATOM     14  C   UNL     1      -1.537  -2.164  -6.231  0.00  0.00    +0.002 C 
ATOM     15  C   UNL     1      -1.402  -3.288  -5.218  0.00  0.00    +0.008 C 
ATOM     16  C   UNL     1      -0.008  -3.303  -4.595  0.00  0.00    +0.074 C 
ATOM     17  S   UNL     1       0.040  -2.396   0.639  0.00  0.00    -0.062 S 
ATOM     18  C   UNL     1       0.023  -0.695   1.179  0.00  0.00    +0.102 A 
ENDBRANCH   1  18
BRANCH   1  19
ATOM     19  O   UNL     1       0.050  -1.019   3.595  0.00  0.00    -0.448 OA
BRANCH  19  20
ATOM     20  C   UNL     1       0.054  -0.438   4.900  0.00  0.00    +0.259 C 
ATOM     21  C   UNL     1       1.498  -0.210   5.353  0.00  0.00    +0.062 C 
BRANCH  20  22
ATOM     22  C   UNL     1      -0.634  -1.368   5.866  0.00  0.00    +0.261 C 
ATOM     23  O   UNL     1      -1.002  -2.462   5.496  0.00  0.00    -0.271 OA
ATOM     24  N   UNL     1      -0.840  -0.984   7.141  0.00  0.00    -0.237 N 
ATOM     25  C   UNL     1      -1.455  -1.816   8.005  0.00  0.00    +0.306 C 
ATOM     26  O   UNL     1      -1.824  -2.913   7.634  0.00  0.00    -0.252 OA
ATOM     27  N   UNL     1      -1.661  -1.431   9.280  0.00  0.00    -0.296 N 
ATOM     28  H   UNL     1      -0.545  -0.109   7.438  0.00  0.00    +0.159 HD
ATOM     29  H   UNL     1      -1.366  -0.556   9.576  0.00  0.00    +0.151 HD
BRANCH  27  30
ATOM     30  C   UNL     1      -2.329  -2.336  10.219  0.00  0.00    +0.074 C 
ATOM     31  C   UNL     1      -3.846  -2.182  10.082  0.00  0.00    +0.022 C 
ATOM     32  C   UNL     1      -4.544  -3.127  11.063  0.00  0.00    +0.002 C 
ATOM     33  C   UNL     1      -4.123  -2.780  12.492  0.00  0.00    +0.000 C 
ATOM     34  C   UNL     1      -2.607  -2.934  12.629  0.00  0.00    +0.002 C 
ATOM     35  C   UNL     1      -1.908  -1.989  11.649  0.00  0.00    +0.022 C 
ENDBRANCH  27  30
ENDBRANCH  20  22
ENDBRANCH  19  20
ENDBRANCH   1  19
TORSDOF 5
