REMARK  Name = ZINC15678405
REMARK  9 active torsions:
REMARK  status: ('A' for Active; 'I' for Inactive)
REMARK    1  A    between atoms: C_1  and  C_2
REMARK    2  A    between atoms: C_7  and  C_8
REMARK    3  A    between atoms: C_8  and  N_9
REMARK    4  A    between atoms: C_11  and  C_18
REMARK    5  A    between atoms: C_18  and  C_19
REMARK    6  A    between atoms: C_19  and  C_20
REMARK    7  A    between atoms: N_22  and  C_23
REMARK    8  A    between atoms: C_28  and  C_29
REMARK    9  A    between atoms: C_28  and  N_70
REMARK                            x       y       z     vdW  Elec       q    Type
REMARK                         _______ _______ _______ _____ _____    ______ ____
ROOT
ATOM      1  C   UNL     1      -1.026   6.869   1.532  0.00  0.00    +0.100 C 
ENDROOT
BRANCH   1   2
ATOM      2  C   UNL     1      -1.960   8.052   1.574  0.00  0.00    +0.214 C 
ATOM      3  O   UNL     1      -2.262   8.622   0.547  0.00  0.00    -0.276 OA
ATOM      4  N   UNL     1      -2.458   8.476   2.752  0.00  0.00    -0.313 N 
ATOM      5  H   UNL     1      -2.216   8.020   3.573  0.00  0.00    +0.149 HD
BRANCH   4   6
ATOM      6  C   UNL     1      -3.366   9.625   2.792  0.00  0.00    +0.069 C 
ATOM      7  C   UNL     1      -2.550  10.919   2.848  0.00  0.00    +0.003 C 
ATOM      8  C   UNL     1      -3.502  12.113   2.951  0.00  0.00    -0.077 C 
ATOM      9  C   UNL     1      -5.154  10.768   4.107  0.00  0.00    -0.077 C 
ATOM     10  C   UNL     1      -4.251   9.535   4.038  0.00  0.00    +0.003 C 
ATOM     11  N   UNL     1      -4.308  11.979   4.183  0.00  0.00    +0.382 N 
ATOM     12  H   UNL     1      -3.675  11.893   4.987  0.00  0.00    -0.081 HD
BRANCH  11  13
ATOM     13  C   UNL     1      -5.155  13.175   4.365  0.00  0.00    -0.043 C 
BRANCH  13  14
ATOM     14  C   UNL     1      -4.268  14.358   4.658  0.00  0.00    -0.064 A 
ATOM     15  C   UNL     1      -3.926  14.660   5.963  0.00  0.00    +0.002 A 
ATOM     16  C   UNL     1      -3.108  15.741   6.231  0.00  0.00    +0.000 A 
ATOM     17  C   UNL     1      -2.640  16.527   5.194  0.00  0.00    +0.000 A 
ATOM     18  C   UNL     1      -2.986  16.229   3.890  0.00  0.00    +0.000 A 
ATOM     19  C   UNL     1      -3.800  15.144   3.621  0.00  0.00    +0.002 A 
ENDBRANCH  13  14
ENDBRANCH  11  13
ENDBRANCH   4   6
ENDBRANCH   1   2
BRANCH   1  20
ATOM     20  C   UNL     1      -0.610   6.599   0.085  0.00  0.00    +0.046 C 
BRANCH  20  23
ATOM     21  N   UNL     1       2.171   4.188   0.002  0.00  0.00    -0.342 N 
ATOM     22  C   UNL     1       1.665   5.458   0.047  0.00  0.00    +0.090 A 
ATOM     23  C   UNL     1       0.324   5.416   0.043  0.00  0.00    -0.022 A 
ATOM     24  C   UNL     1      -0.061   4.004  -0.008  0.00  0.00    +0.003 A 
ATOM     25  C   UNL     1       1.142   3.274  -0.032  0.00  0.00    +0.050 A 
ATOM     26  C   UNL     1       1.095   1.885  -0.082  0.00  0.00    +0.026 A 
ATOM     27  C   UNL     1      -0.123   1.242  -0.107  0.00  0.00    +0.002 A 
ATOM     28  C   UNL     1      -1.307   1.966  -0.088  0.00  0.00    +0.001 A 
ATOM     29  C   UNL     1      -1.284   3.331  -0.034  0.00  0.00    +0.010 A 
BRANCH  21  30
ATOM     30  C   UNL     1       3.597   3.849  -0.008  0.00  0.00    +0.157 C 
BRANCH  30  37
ATOM     31  C   UNL     1       4.447   5.960  -1.789  0.00  0.00    +0.044 C 
ATOM     32  C   UNL     1       4.432   4.531  -2.267  0.00  0.00    -0.046 A 
ATOM     33  C   UNL     1       4.829   4.229  -3.557  0.00  0.00    +0.004 A 
ATOM     34  C   UNL     1       4.811   2.919  -3.996  0.00  0.00    +0.000 A 
ATOM     35  C   UNL     1       4.399   1.909  -3.146  0.00  0.00    +0.000 A 
ATOM     36  C   UNL     1       4.006   2.211  -1.855  0.00  0.00    +0.005 A 
ATOM     37  C   UNL     1       4.025   3.521  -1.415  0.00  0.00    -0.025 A 
ENDBRANCH  30  37
ENDBRANCH  21  30
ENDBRANCH  20  23
ENDBRANCH   1  20
TORSDOF 8
