REMARK  Name = ZINC55503604
REMARK  6 active torsions:
REMARK  status: ('A' for Active; 'I' for Inactive)
REMARK    1  A    between atoms: C_1  and  C_2
REMARK    2  A    between atoms: C_6  and  N_9
REMARK    3  A    between atoms: C_7  and  C_8
REMARK    4  A    between atoms: C_10  and  C_12
REMARK    5  A    between atoms: C_12  and  C_13
REMARK    6  A    between atoms: C_19  and  C_24
REMARK                            x       y       z     vdW  Elec       q    Type
REMARK                         _______ _______ _______ _____ _____    ______ ____
ROOT
ATOM      1  C   UNL     1      -0.210  -6.376   3.402  0.00  0.00    +0.120 A 
ATOM      2  N   UNL     1      -0.310  -7.250   4.437  0.00  0.00    -0.310 N 
ATOM      3  H   UNL     1      -0.327  -6.910   5.346  0.00  0.00    +0.170 HD
ATOM      4  C   UNL     1      -0.385  -8.577   4.227  0.00  0.00    +0.260 A 
ATOM      5  O   UNL     1      -0.475  -9.348   5.168  0.00  0.00    -0.267 OA
ATOM      6  C   UNL     1      -0.358  -9.069   2.884  0.00  0.00    +0.083 A 
ATOM      7  C   UNL     1      -0.425 -10.446   2.404  0.00  0.00    +0.039 A 
ATOM      8  C   UNL     1      -0.382 -10.671   1.067  0.00  0.00    +0.059 A 
ATOM      9  S   UNL     1      -0.247  -9.034   0.376  0.00  0.00    -0.076 S 
ATOM     10  C   UNL     1      -0.252  -8.093   1.880  0.00  0.00    +0.116 A 
ATOM     11  N   UNL     1      -0.188  -6.795   2.166  0.00  0.00    -0.226 NA
ENDROOT
BRANCH   7  12
ATOM     12  C   UNL     1      -0.537 -11.570   3.355  0.00  0.00    +0.136 A 
ATOM     13  C   UNL     1      -1.442 -12.584   3.289  0.00  0.00    +0.050 A 
ATOM     14  C   UNL     1      -1.188 -13.427   4.390  0.00  0.00    +0.042 A 
ATOM     15  C   UNL     1      -0.153 -12.893   5.066  0.00  0.00    +0.196 A 
ATOM     16  O   UNL     1       0.242 -11.773   4.435  0.00  0.00    -0.463 OA
ENDBRANCH   7  12
BRANCH   1  17
ATOM     17  C   UNL     1      -0.129  -4.898   3.686  0.00  0.00    +0.170 C 
BRANCH  17  19
ATOM     18  N   UNL     1       0.052  -2.797   2.393  0.00  0.00    -0.285 N 
ATOM     19  C   UNL     1      -0.031  -4.143   2.385  0.00  0.00    +0.225 C 
ATOM     20  O   UNL     1      -0.028  -4.745   1.333  0.00  0.00    -0.275 OA
ATOM     21  H   UNL     1       0.130  -2.321   3.234  0.00  0.00    +0.155 HD
BRANCH  18  27
ATOM     22  C   UNL     1       1.206   1.236  -0.172  0.00  0.00    +0.044 C 
ATOM     23  C   UNL     1       0.577  -0.131  -0.084  0.00  0.00    -0.046 A 
ATOM     24  C   UNL     1      -0.027  -0.686  -1.198  0.00  0.00    +0.004 A 
ATOM     25  C   UNL     1      -0.605  -1.940  -1.122  0.00  0.00    +0.002 A 
ATOM     26  C   UNL     1      -0.580  -2.642   0.067  0.00  0.00    +0.023 A 
ATOM     27  C   UNL     1       0.026  -2.088   1.187  0.00  0.00    +0.037 A 
ATOM     28  C   UNL     1       0.610  -0.831   1.106  0.00  0.00    -0.026 A 
ATOM     29  C   UNL     1       1.274  -0.228   2.317  0.00  0.00    +0.046 C 
ENDBRANCH  18  27
ENDBRANCH  17  19
ENDBRANCH   1  17
TORSDOF 4
