REMARK  Name = ZINC09697608
REMARK  7 active torsions:
REMARK  status: ('A' for Active; 'I' for Inactive)
REMARK    1  A    between atoms: C_1  and  C_2
REMARK    2  A    between atoms: C_2  and  O_3
REMARK    3  A    between atoms: O_3  and  C_4
REMARK    4  A    between atoms: C_9  and  C_10
REMARK    5  A    between atoms: N_21  and  C_22
REMARK    6  A    between atoms: C_22  and  C_23
REMARK    7  A    between atoms: C_30  and  C_33
REMARK                            x       y       z     vdW  Elec       q    Type
REMARK                         _______ _______ _______ _____ _____    ______ ____
ROOT
ATOM      1  C   UNL     1       4.650   2.262   3.663  0.00  0.00    +0.196 C 
ATOM      2  N   UNL     1       4.746   1.622   4.981  0.00  0.00    -0.321 N 
ATOM      3  C   UNL     1       4.811   0.235   5.042  0.00  0.00    +0.041 A 
ATOM      4  C   UNL     1       4.314  -0.475   6.121  0.00  0.00    +0.024 A 
ATOM      5  C   UNL     1       4.401  -1.855   6.129  0.00  0.00    +0.002 A 
ATOM      6  C   UNL     1       4.982  -2.531   5.068  0.00  0.00    +0.001 A 
ATOM      7  C   UNL     1       5.483  -1.838   3.986  0.00  0.00    +0.015 A 
ATOM      8  C   UNL     1       5.404  -0.448   3.965  0.00  0.00    +0.058 A 
ATOM      9  C   UNL     1       5.931   0.343   2.838  0.00  0.00    +0.250 C 
ATOM     10  O   UNL     1       6.663  -0.172   2.015  0.00  0.00    -0.270 OA
ATOM     11  N   UNL     1       5.592   1.645   2.730  0.00  0.00    -0.272 N 
ATOM     12  H   UNL     1       4.763   2.156   5.791  0.00  0.00    +0.148 HD
ENDROOT
BRANCH   1  18
ATOM     13  C   UNL     1       2.172   2.138   4.008  0.00  0.00    +0.127 A 
ATOM     14  C   UNL     1       0.883   1.990   3.516  0.00  0.00    +0.053 A 
ATOM     15  C   UNL     1       0.678   1.814   2.166  0.00  0.00    +0.001 A 
ATOM     16  C   UNL     1       1.749   1.787   1.281  0.00  0.00    +0.125 A 
ATOM     17  C   UNL     1       3.040   1.932   1.781  0.00  0.00    +0.056 A 
ATOM     18  C   UNL     1       3.248   2.106   3.133  0.00  0.00    +0.036 A 
ATOM     19  O   UNL     1       1.325   1.613  -0.002  0.00  0.00    -0.488 OA
ATOM     20  C   UNL     1      -0.013   1.086   0.008  0.00  0.00    +0.175 C 
ATOM     21  C   UNL     1      -0.582   1.619   1.344  0.00  0.00    +0.083 C 
ATOM     22  C   UNL     1      -0.815   1.621  -1.179  0.00  0.00    +0.052 C 
BRANCH  13  23
ATOM     23  O   UNL     1       2.379   2.312   5.340  0.00  0.00    -0.492 OA
BRANCH  23  25
ATOM     24  C   UNL     1       1.652   2.539   7.634  0.00  0.00    +0.048 C 
ATOM     25  C   UNL     1       1.223   2.335   6.179  0.00  0.00    +0.225 C 
ENDBRANCH  23  25
ENDBRANCH  13  23
ENDBRANCH   1  18
BRANCH  11  26
ATOM     26  C   UNL     1       6.178   2.454   1.659  0.00  0.00    +0.141 C 
BRANCH  26  27
ATOM     27  C   UNL     1       7.477   3.093   2.154  0.00  0.00    +0.136 C 
ATOM     28  C   UNL     1       8.048   4.050   1.085  0.00  0.00    +0.035 C 
ATOM     29  C   UNL     1       9.577   3.856   1.185  0.00  0.00    +0.031 C 
ATOM     30  C   UNL     1       9.750   2.804   2.303  0.00  0.00    +0.160 C 
ATOM     31  O   UNL     1       8.497   2.086   2.330  0.00  0.00    -0.375 OA
ENDBRANCH  26  27
ENDBRANCH  11  26
TORSDOF 5
