REMARK  Name = ZINC57608620
REMARK  13 active torsions:
REMARK  status: ('A' for Active; 'I' for Inactive)
REMARK    1  A    between atoms: C_1  and  C_2
REMARK    2  A    between atoms: C_5  and  C_39
REMARK    3  A    between atoms: C_9  and  C_14
REMARK    4  A    between atoms: C_14  and  C_16
REMARK    5  A    between atoms: C_14  and  N_25
REMARK    6  A    between atoms: N_20  and  C_21
REMARK    7  A    between atoms: C_21  and  C_22
REMARK    8  A    between atoms: C_21  and  C_23
REMARK    9  A    between atoms: C_21  and  C_24
REMARK   10  A    between atoms: N_25  and  C_26
REMARK   11  A    between atoms: N_25  and  C_33
REMARK   12  A    between atoms: C_26  and  C_27
REMARK   13  A    between atoms: C_33  and  C_34
REMARK                            x       y       z     vdW  Elec       q    Type
REMARK                         _______ _______ _______ _____ _____    ______ ____
ROOT
ATOM      1  C   UNL     1      -0.664   0.431   4.405  0.00  0.00    +0.163 C 
ENDROOT
BRANCH   1  10
ATOM      2  C   UNL     1      -1.662   1.810  -0.516  0.00  0.00    +0.044 C 
ATOM      3  C   UNL     1      -1.846   0.317  -0.423  0.00  0.00    -0.041 A 
ATOM      4  C   UNL     1      -2.207  -0.400  -1.529  0.00  0.00    +0.004 A 
ATOM      5  C   UNL     1      -2.378  -1.775  -1.454  0.00  0.00    +0.005 A 
ATOM      6  C   UNL     1      -2.188  -2.444  -0.264  0.00  0.00    -0.026 A 
ATOM      7  C   UNL     1      -1.820  -1.736   0.875  0.00  0.00    +0.052 A 
ATOM      8  C   UNL     1      -1.642  -0.341   0.793  0.00  0.00    +0.002 A 
ATOM      9  C   UNL     1      -1.250   0.395   1.997  0.00  0.00    +0.021 A 
ATOM     10  C   UNL     1      -1.067  -0.296   3.149  0.00  0.00    +0.042 A 
ATOM     11  C   UNL     1      -1.253  -1.695   3.175  0.00  0.00    +0.254 A 
ATOM     12  O   UNL     1      -1.083  -2.297   4.221  0.00  0.00    -0.268 OA
ATOM     13  N   UNL     1      -1.623  -2.379   2.078  0.00  0.00    -0.322 N 
ATOM     14  H   UNL     1      -1.743  -3.340   2.131  0.00  0.00    +0.169 HD
ATOM     15  C   UNL     1      -2.378  -3.938  -0.197  0.00  0.00    +0.046 C 
ENDBRANCH   1  10
BRANCH   1  16
ATOM     16  C   UNL     1       0.712  -0.017   4.825  0.00  0.00    +0.174 A 
ATOM     17  N   UNL     1       1.022  -1.145   5.416  0.00  0.00    -0.111 NA
ATOM     18  N   UNL     1       2.295  -1.157   5.609  0.00  0.00    -0.023 NA
ATOM     19  N   UNL     1       2.807  -0.065   5.157  0.00  0.00    -0.043 NA
ATOM     20  N   UNL     1       1.863   0.662   4.661  0.00  0.00    -0.222 N 
BRANCH  20  21
ATOM     21  C   UNL     1       2.016   1.979   4.039  0.00  0.00    +0.059 C 
ATOM     22  C   UNL     1       1.252   3.022   4.858  0.00  0.00    +0.036 C 
ATOM     23  C   UNL     1       3.498   2.353   3.993  0.00  0.00    +0.036 C 
ATOM     24  C   UNL     1       1.456   1.939   2.615  0.00  0.00    +0.036 C 
ENDBRANCH  20  21
ENDBRANCH   1  16
BRANCH   1  25
ATOM     25  N   UNL     1      -1.625   0.131   5.475  0.00  0.00    -0.277 NA
BRANCH  25  26
ATOM     26  C   UNL     1      -1.466   1.061   6.601  0.00  0.00    +0.121 C 
BRANCH  26  27
ATOM     27  C   UNL     1      -0.399   0.546   7.532  0.00  0.00    -0.033 A 
ATOM     28  C   UNL     1      -0.705  -0.428   8.463  0.00  0.00    +0.005 A 
ATOM     29  C   UNL     1       0.275  -0.900   9.317  0.00  0.00    +0.000 A 
ATOM     30  C   UNL     1       1.560  -0.399   9.238  0.00  0.00    +0.000 A 
ATOM     31  C   UNL     1       1.867   0.575   8.306  0.00  0.00    +0.000 A 
ATOM     32  C   UNL     1       0.888   1.044   7.450  0.00  0.00    +0.005 A 
ENDBRANCH  26  27
ENDBRANCH  25  26
BRANCH  25  33
ATOM     33  C   UNL     1      -3.002   0.150   4.966  0.00  0.00    +0.160 C 
BRANCH  33  34
ATOM     34  C   UNL     1      -3.924  -0.461   5.990  0.00  0.00    +0.119 A 
ATOM     35  C   UNL     1      -4.644   0.215   6.903  0.00  0.00    +0.046 A 
ATOM     36  C   UNL     1      -5.362  -0.746   7.652  0.00  0.00    +0.041 A 
ATOM     37  C   UNL     1      -5.038  -1.952   7.151  0.00  0.00    +0.195 A 
ATOM     38  O   UNL     1      -4.172  -1.773   6.140  0.00  0.00    -0.467 OA
ENDBRANCH  33  34
ENDBRANCH  25  33
ENDBRANCH   1  25
TORSDOF 8
