REMARK  Name = ZINC24535321
REMARK  7 active torsions:
REMARK  status: ('A' for Active; 'I' for Inactive)
REMARK    1  A    between atoms: C_1  and  C_2
REMARK    2  A    between atoms: C_7  and  N_8
REMARK    3  A    between atoms: C_9  and  C_11
REMARK    4  A    between atoms: C_11  and  N_12
REMARK    5  A    between atoms: C_13  and  C_15
REMARK    6  A    between atoms: C_15  and  S_16
REMARK    7  A    between atoms: S_16  and  C_17
REMARK                            x       y       z     vdW  Elec       q    Type
REMARK                         _______ _______ _______ _____ _____    ______ ____
ROOT
ATOM      1  N   UNL     1       0.002  -0.004   0.018  0.00  0.00    -0.306 N 
ATOM      2  C   UNL     1      -1.156  -0.693   0.036  0.00  0.00    +0.224 C 
ATOM      3  O   UNL     1      -2.215  -0.101   0.057  0.00  0.00    -0.275 OA
ATOM      4  H   UNL     1       0.961  -0.541  -0.001  0.00  0.00    +0.149 HD
ENDROOT
BRANCH   1   5
ATOM      5  C   UNL     1      -0.018   1.461   0.025  0.00  0.00    +0.200 C 
BRANCH   5   7
ATOM      6  N   UNL     1       1.624   3.311   0.004  0.00  0.00    -0.284 N 
ATOM      7  C   UNL     1       1.396   1.982   0.003  0.00  0.00    +0.234 C 
ATOM      8  O   UNL     1       2.328   1.207  -0.017  0.00  0.00    -0.274 OA
ATOM      9  H   UNL     1       0.782   4.014  -0.070  0.00  0.00    +0.155 HD
BRANCH   6  16
ATOM     10  C   UNL     1       2.182   5.893  -1.051  0.00  0.00    +0.046 C 
ATOM     11  C   UNL     1       3.249   5.051  -0.402  0.00  0.00    -0.028 A 
ATOM     12  C   UNL     1       4.541   5.529  -0.302  0.00  0.00    +0.020 A 
ATOM     13  C   UNL     1       5.523   4.753   0.288  0.00  0.00    +0.018 A 
ATOM     14  C   UNL     1       5.213   3.499   0.785  0.00  0.00    +0.017 A 
ATOM     15  C   UNL     1       3.921   3.019   0.693  0.00  0.00    +0.024 A 
ATOM     16  C   UNL     1       2.934   3.795   0.100  0.00  0.00    +0.036 A 
ATOM     17 BR   UNL     1       7.293   5.408   0.417  0.00  0.00    -0.050 Br
ENDBRANCH   6  16
ENDBRANCH   5   7
ENDBRANCH   1   5
BRANCH   2  18
ATOM     18  C   UNL     1      -1.136  -2.200   0.029  0.00  0.00    +0.173 C 
BRANCH  18  19
ATOM     19  S   UNL     1      -2.834  -2.826   0.056  0.00  0.00    -0.077 S 
BRANCH  19  20
ATOM     20  C   UNL     1      -2.521  -4.560   0.043  0.00  0.00    +0.191 A 
ATOM     21  N   UNL     1      -3.544  -5.407   0.057  0.00  0.00    -0.207 NA
ATOM     22  C   UNL     1      -3.371  -6.718   0.048  0.00  0.00    +0.129 A 
ATOM     23  C   UNL     1      -2.050  -7.246   0.022  0.00  0.00    +0.047 A 
ATOM     24  C   UNL     1      -1.604  -8.629   0.009  0.00  0.00    +0.021 A 
ATOM     25  C   UNL     1      -0.290  -8.894  -0.016  0.00  0.00    +0.048 A 
ATOM     26  S   UNL     1       0.460  -7.277  -0.022  0.00  0.00    -0.077 S 
ATOM     27  C   UNL     1      -1.013  -6.289   0.008  0.00  0.00    +0.114 A 
ATOM     28  N   UNL     1      -1.269  -4.995   0.014  0.00  0.00    -0.215 NA
ATOM     29  N   UNL     1      -4.463  -7.567   0.063  0.00  0.00    -0.343 N 
ATOM     30  H   UNL     1      -4.312  -8.656   0.056  0.00  0.00    +0.144 HD
ATOM     31  H   UNL     1      -5.481  -7.152   0.083  0.00  0.00    +0.144 HD
ENDBRANCH  19  20
ENDBRANCH  18  19
ENDBRANCH   2  18
TORSDOF 6
