REMARK  Name = ZINC31164030
REMARK  17 active torsions:
REMARK  status: ('A' for Active; 'I' for Inactive)
REMARK    1  A    between atoms: C_1  and  C_2
REMARK    2  A    between atoms: C_2  and  C_39
REMARK    3  A    between atoms: C_3  and  C_4
REMARK    4  A    between atoms: C_4  and  C_5
REMARK    5  A    between atoms: C_5  and  C_6
REMARK    6  A    between atoms: C_6  and  C_38
REMARK    7  A    between atoms: C_7  and  C_8
REMARK    8  A    between atoms: C_8  and  C_9
REMARK    9  A    between atoms: C_9  and  C_10
REMARK   10  A    between atoms: C_10  and  C_37
REMARK   11  A    between atoms: C_11  and  O_36
REMARK   12  A    between atoms: C_15  and  O_35
REMARK   13  A    between atoms: N_22  and  C_25
REMARK   14  A    between atoms: C_25  and  C_27
REMARK   15  A    between atoms: C_25  and  C_32
REMARK   16  A    between atoms: C_27  and  C_28
REMARK   17  A    between atoms: C_28  and  C_29
REMARK                            x       y       z     vdW  Elec       q    Type
REMARK                         _______ _______ _______ _____ _____    ______ ____
ROOT
ATOM      1  C   UNL     1       7.093   4.261   2.181  0.00  0.00    +0.134 C 
ATOM      2  C   UNL     1       6.795   5.765   2.229  0.00  0.00    +0.162 C 
ATOM      3  C   UNL     1       8.127   6.516   2.295  0.00  0.00    +0.077 C 
ATOM      4  C   UNL     1       9.004   5.904   3.358  0.00  0.00    +0.039 A 
ATOM      5  C   UNL     1      10.079   6.641   3.843  0.00  0.00    +0.124 A 
ATOM      6  C   UNL     1      10.911   6.116   4.816  0.00  0.00    +0.059 A 
ATOM      7  C   UNL     1      10.670   4.835   5.314  0.00  0.00    +0.049 A 
ATOM      8  C   UNL     1       9.590   4.102   4.824  0.00  0.00    +0.024 A 
ATOM      9  C   UNL     1       8.758   4.633   3.851  0.00  0.00    +0.134 A 
ATOM     10  O   UNL     1       7.712   3.886   3.412  0.00  0.00    -0.483 OA
ATOM     11  C   UNL     1       9.602   2.781   5.552  0.00  0.00    +0.148 C 
ATOM     12  N   UNL     1      10.748   2.829   6.469  0.00  0.00    -0.279 N 
ATOM     13  C   UNL     1      11.363   4.017   6.329  0.00  0.00    +0.248 C 
ATOM     14  O   UNL     1      12.348   4.366   6.950  0.00  0.00    -0.270 OA
ATOM     15  C   UNL     1       8.037   3.958   1.016  0.00  0.00    +0.058 C 
ENDROOT
BRANCH   5  16
ATOM     16  O   UNL     1      10.315   7.889   3.357  0.00  0.00    -0.506 OA
ATOM     17  H   UNL     1       9.864   8.592   3.845  0.00  0.00    +0.292 HD
ENDBRANCH   5  16
BRANCH   2  18
ATOM     18  O   UNL     1       6.081   6.152   1.053  0.00  0.00    -0.388 OA
ATOM     19  H   UNL     1       5.861   7.093   1.019  0.00  0.00    +0.210 HD
ENDBRANCH   2  18
BRANCH   1  20
ATOM     20  C   UNL     1       5.788   3.483   2.002  0.00  0.00    +0.054 C 
BRANCH  20  21
ATOM     21  C   UNL     1       6.087   1.983   1.983  0.00  0.00    +0.031 C 
BRANCH  21  23
ATOM     22  C   UNL     1       4.687   0.343   0.837  0.00  0.00    -0.076 C 
ATOM     23  C   UNL     1       4.801   1.216   1.807  0.00  0.00    -0.028 C 
ATOM     24  C   UNL     1       5.805   0.172  -0.159  0.00  0.00    +0.039 C 
BRANCH  22  25
ATOM     25  C   UNL     1       3.437  -0.491   0.718  0.00  0.00    +0.034 C 
BRANCH  25  26
ATOM     26  C   UNL     1       2.470   0.177  -0.262  0.00  0.00    +0.031 C 
BRANCH  26  29
ATOM     27  C   UNL     1      -0.061   1.368   0.086  0.00  0.00    +0.038 C 
ATOM     28  C   UNL     1       0.048  -0.114  -0.166  0.00  0.00    -0.080 C 
ATOM     29  C   UNL     1       1.221  -0.657  -0.382  0.00  0.00    -0.028 C 
ATOM     30  C   UNL     1      -1.191  -0.971  -0.171  0.00  0.00    +0.038 C 
ENDBRANCH  26  29
ENDBRANCH  25  26
ENDBRANCH  22  25
ENDBRANCH  21  23
ENDBRANCH  20  21
ENDBRANCH   1  20
BRANCH  12  31
ATOM     31  C   UNL     1      11.154   1.760   7.384  0.00  0.00    +0.190 C 
BRANCH  31  32
ATOM     32  C   UNL     1      11.113   2.270   8.802  0.00  0.00    +0.376 C 
ATOM     33  O   UNL     1      10.776   3.420   9.026  0.00  0.00    -0.244 OA
ATOM     34  O   UNL     1      11.417   1.533   9.724  0.00  0.00    -0.244 OA
ENDBRANCH  31  32
BRANCH  31  35
ATOM     35  C   UNL     1      12.576   1.311   7.044  0.00  0.00    +0.045 C 
BRANCH  35  36
ATOM     36  C   UNL     1      12.592   0.679   5.651  0.00  0.00    +0.127 C 
BRANCH  36  37
ATOM     37  C   UNL     1      13.994   0.236   5.317  0.00  0.00    +0.356 C 
ATOM     38  O   UNL     1      14.896   0.410   6.118  0.00  0.00    -0.246 OA
ATOM     39  O   UNL     1      14.225  -0.296   4.244  0.00  0.00    -0.246 OA
ENDBRANCH  36  37
ENDBRANCH  35  36
ENDBRANCH  31  35
ENDBRANCH  12  31
TORSDOF 13
