REMARK  Name = ZINC37122003
REMARK  5 active torsions:
REMARK  status: ('A' for Active; 'I' for Inactive)
REMARK    1  A    between atoms: C_1  and  C_2
REMARK    2  A    between atoms: C_7  and  C_22
REMARK    3  A    between atoms: C_9  and  N_10
REMARK    4  A    between atoms: N_10  and  C_11
REMARK    5  A    between atoms: C_16  and  N_17
REMARK                            x       y       z     vdW  Elec       q    Type
REMARK                         _______ _______ _______ _____ _____    ______ ____
ROOT
ATOM      1  C   UNL     1       2.607   0.683   2.352  0.00  0.00    +0.072 A 
ATOM      2  C   UNL     1       1.835   0.823   3.499  0.00  0.00    +0.028 A 
ATOM      3  C   UNL     1       2.362   1.533   4.568  0.00  0.00    +0.022 A 
ATOM      4  C   UNL     1       3.629   2.075   4.462  0.00  0.00    +0.113 A 
ATOM      5  N   UNL     1       4.341   1.926   3.361  0.00  0.00    -0.235 NA
ATOM      6  C   UNL     1       3.881   1.253   2.321  0.00  0.00    +0.175 A 
ENDROOT
BRANCH   6   7
ATOM      7  N   UNL     1       4.675   1.116   1.177  0.00  0.00    -0.220 N 
ATOM      8  C   UNL     1       5.675   1.950   0.792  0.00  0.00    +0.116 A 
ATOM      9  C   UNL     1       6.190   1.468  -0.362  0.00  0.00    +0.041 A 
ATOM     10  C   UNL     1       5.485   0.306  -0.697  0.00  0.00    +0.135 A 
ATOM     11  N   UNL     1       4.583   0.091   0.226  0.00  0.00    -0.173 NA
ENDBRANCH   6   7
BRANCH   1  12
ATOM     12  N   UNL     1       2.119  -0.024   1.249  0.00  0.00    -0.338 N 
ATOM     13  H   UNL     1       2.695  -0.193   0.487  0.00  0.00    +0.146 HD
BRANCH  12  20
ATOM     14  C   UNL     1       0.027   1.527  -0.018  0.00  0.00    +0.009 C 
ATOM     15  C   UNL     1       0.023  -0.003  -0.011  0.00  0.00    +0.006 C 
ATOM     16  C   UNL     1      -1.421  -0.509  -0.017  0.00  0.00    +0.005 C 
ATOM     17  C   UNL     1      -1.424  -2.039  -0.010  0.00  0.00    +0.001 C 
ATOM     18  C   UNL     1      -0.711  -2.545   1.246  0.00  0.00    +0.005 C 
ATOM     19  C   UNL     1       0.733  -2.039   1.251  0.00  0.00    +0.006 C 
ATOM     20  C   UNL     1       0.737  -0.509   1.244  0.00  0.00    +0.076 C 
ATOM     21  C   UNL     1       1.446  -2.545   2.506  0.00  0.00    +0.009 C 
ENDBRANCH  12  20
ENDBRANCH   1  12
TORSDOF 3
