REMARK  Name = ZINC08982783
REMARK  13 active torsions:
REMARK  status: ('A' for Active; 'I' for Inactive)
REMARK    1  A    between atoms: C_1  and  C_2
REMARK    2  A    between atoms: C_2  and  C_3
REMARK    3  A    between atoms: C_3  and  C_5
REMARK    4  A    between atoms: C_3  and  C_6
REMARK    5  A    between atoms: C_6  and  C_7
REMARK    6  A    between atoms: C_8  and  C_35
REMARK    7  A    between atoms: C_16  and  S_18
REMARK    8  A    between atoms: S_18  and  C_19
REMARK    9  A    between atoms: C_19  and  C_21
REMARK   10  A    between atoms: C_19  and  C_22
REMARK   11  A    between atoms: N_24  and  C_25
REMARK   12  A    between atoms: C_28  and  S_31
REMARK   13  A    between atoms: S_31  and  N_34
REMARK                            x       y       z     vdW  Elec       q    Type
REMARK                         _______ _______ _______ _____ _____    ______ ____
ROOT
ATOM      1  S   UNL     1      -1.512  -0.895   0.010  0.00  0.00    -0.075 S 
ENDROOT
BRANCH   1  11
ATOM      2  C   UNL     1       3.739   1.911  -0.061  0.00  0.00    -0.023 A 
ATOM      3  C   UNL     1       4.781   1.067  -0.083  0.00  0.00    -0.007 A 
ATOM      4  S   UNL     1       4.011  -0.541  -0.079  0.00  0.00    -0.073 S 
ATOM      5  C   UNL     1       2.311  -0.032  -0.048  0.00  0.00    +0.117 A 
ATOM      6  C   UNL     1       2.390   1.373  -0.042  0.00  0.00    +0.075 A 
ATOM      7  C   UNL     1       1.139   2.066  -0.017  0.00  0.00    +0.261 A 
ATOM      8  O   UNL     1       1.108   3.285  -0.010  0.00  0.00    -0.267 OA
ATOM      9  N   UNL     1      -0.004   1.356  -0.002  0.00  0.00    -0.301 N 
ATOM     10  H   UNL     1      -0.854   1.822   0.010  0.00  0.00    +0.171 HD
ATOM     11  C   UNL     1       0.011  -0.009  -0.010  0.00  0.00    +0.171 A 
ATOM     12  N   UNL     1       1.149  -0.673  -0.033  0.00  0.00    -0.216 NA
ATOM     13  C   UNL     1       6.251   1.398  -0.105  0.00  0.00    +0.052 C 
BRANCH   2  14
ATOM     14  C   UNL     1       3.965   3.401  -0.057  0.00  0.00    +0.040 C 
BRANCH  14  15
ATOM     15  C   UNL     1       4.018   3.913  -1.498  0.00  0.00    -0.010 C 
ATOM     16  C   UNL     1       2.654   3.713  -2.161  0.00  0.00    +0.008 C 
BRANCH  15  18
ATOM     17  C   UNL     1       4.547   5.884  -2.939  0.00  0.00    +0.004 C 
ATOM     18  C   UNL     1       4.372   5.402  -1.498  0.00  0.00    +0.000 C 
ENDBRANCH  15  18
ENDBRANCH  14  15
ENDBRANCH   2  14
ENDBRANCH   1  11
BRANCH   1  19
ATOM     19  C   UNL     1      -0.888  -2.594  -0.010  0.00  0.00    +0.137 C 
ATOM     20  C   UNL     1      -0.161  -2.855  -1.331  0.00  0.00    +0.029 C 
BRANCH  19  21
ATOM     21  C   UNL     1      -2.041  -3.554   0.127  0.00  0.00    +0.230 C 
ATOM     22  O   UNL     1      -3.155  -3.218  -0.218  0.00  0.00    -0.274 OA
ATOM     23  N   UNL     1      -1.835  -4.786   0.633  0.00  0.00    -0.285 N 
ATOM     24  H   UNL     1      -0.936  -5.079   0.846  0.00  0.00    +0.155 HD
BRANCH  23  25
ATOM     25  C   UNL     1      -2.920  -5.643   0.851  0.00  0.00    +0.034 A 
ATOM     26  C   UNL     1      -2.913  -6.513   1.933  0.00  0.00    +0.025 A 
ATOM     27  C   UNL     1      -3.987  -7.354   2.148  0.00  0.00    +0.030 A 
ATOM     28  C   UNL     1      -5.064  -7.338   1.281  0.00  0.00    +0.105 A 
ATOM     29  C   UNL     1      -5.071  -6.478   0.199  0.00  0.00    +0.030 A 
ATOM     30  C   UNL     1      -4.003  -5.630  -0.019  0.00  0.00    +0.025 A 
BRANCH  28  31
ATOM     31  S   UNL     1      -6.430  -8.417   1.555  0.00  0.00    +0.056 S 
ATOM     32  O   UNL     1      -6.424  -8.735   2.940  0.00  0.00    -0.153 OA
ATOM     33  O   UNL     1      -7.551  -7.824   0.914  0.00  0.00    -0.153 OA
BRANCH  31  34
ATOM     34  N   UNL     1      -6.112  -9.826   0.745  0.00  0.00    -0.204 NA
ATOM     35  H   UNL     1      -5.287  -9.921   0.243  0.00  0.00    +0.144 HD
ATOM     36  H   UNL     1      -6.750 -10.556   0.772  0.00  0.00    +0.144 HD
ENDBRANCH  31  34
ENDBRANCH  28  31
ENDBRANCH  23  25
ENDBRANCH  19  21
ENDBRANCH   1  19
TORSDOF 9
