REMARK  Name = ZINC43620278
REMARK  8 active torsions:
REMARK  status: ('A' for Active; 'I' for Inactive)
REMARK    1  A    between atoms: C_1  and  O_2
REMARK    2  A    between atoms: O_2  and  C_3
REMARK    3  A    between atoms: C_8  and  C_9
REMARK    4  A    between atoms: C_9  and  N_10
REMARK    5  A    between atoms: C_15  and  C_24
REMARK    6  A    between atoms: C_26  and  O_32
REMARK    7  A    between atoms: C_27  and  O_31
REMARK    8  A    between atoms: O_32  and  C_33
REMARK                            x       y       z     vdW  Elec       q    Type
REMARK                         _______ _______ _______ _____ _____    ______ ____
ROOT
ATOM      1  N   UNL     1       1.022  -3.126  -1.129  0.00  0.00    -0.298 N 
ATOM      2  C   UNL     1       0.938  -2.102  -2.175  0.00  0.00    +0.110 C 
ATOM      3  C   UNL     1       2.252  -2.191  -2.973  0.00  0.00    +0.003 C 
ATOM      4  C   UNL     1       3.314  -1.267  -2.327  0.00  0.00    -0.007 C 
ATOM      5  C   UNL     1       4.614  -2.083  -2.547  0.00  0.00    -0.034 C 
ATOM      6  N   UNL     1       4.215  -3.494  -2.359  0.00  0.00    +0.394 N 
ATOM      7  C   UNL     1       2.753  -3.614  -2.623  0.00  0.00    +0.018 C 
ATOM      8  C   UNL     1       2.009  -4.003  -1.379  0.00  0.00    +0.206 C 
ATOM      9  O   UNL     1       2.262  -4.974  -0.698  0.00  0.00    -0.277 OA
ATOM     10  C   UNL     1       2.527  -4.583  -3.786  0.00  0.00    -0.004 C 
ATOM     11  C   UNL     1       3.842  -5.410  -3.811  0.00  0.00    -0.019 C 
ATOM     12  C   UNL     1       4.908  -4.333  -3.363  0.00  0.00    -0.077 C 
ATOM     13  H   UNL     1       4.444  -3.803  -1.426  0.00  0.00    -0.079 HD
ENDROOT
BRANCH   5  14
ATOM     14  C   UNL     1       5.657  -1.690  -1.533  0.00  0.00    -0.039 A 
ATOM     15  C   UNL     1       5.740  -2.369  -0.331  0.00  0.00    +0.052 A 
ATOM     16  C   UNL     1       6.698  -2.010   0.603  0.00  0.00    +0.162 A 
ATOM     17  C   UNL     1       7.576  -0.966   0.328  0.00  0.00    +0.160 A 
ATOM     18  C   UNL     1       7.489  -0.290  -0.877  0.00  0.00    +0.069 A 
ATOM     19  C   UNL     1       6.532  -0.656  -1.808  0.00  0.00    +0.046 A 
ATOM     20 CL   UNL     1       6.428   0.188  -3.322  0.00  0.00    -0.083 Cl
BRANCH  17  21
ATOM     21  O   UNL     1       8.518  -0.610   1.242  0.00  0.00    -0.503 OA
ATOM     22  H   UNL     1       9.358  -1.079   1.145  0.00  0.00    +0.292 HD
ENDBRANCH  17  21
BRANCH  16  23
ATOM     23  O   UNL     1       6.780  -2.676   1.786  0.00  0.00    -0.491 OA
ATOM     24  C   UNL     1       5.846  -3.737   1.999  0.00  0.00    +0.277 C 
ENDBRANCH  16  23
ENDBRANCH   5  14
BRANCH   1  25
ATOM     25  C   UNL     1       0.146  -3.181   0.045  0.00  0.00    +0.146 C 
BRANCH  25  31
ATOM     26  C   UNL     1       0.633  -1.000   1.182  0.00  0.00    +0.125 A 
ATOM     27  C   UNL     1       1.192  -0.267   2.219  0.00  0.00    +0.046 A 
ATOM     28  C   UNL     1       1.876  -0.914   3.229  0.00  0.00    +0.004 A 
ATOM     29  C   UNL     1       2.004  -2.290   3.209  0.00  0.00    +0.001 A 
ATOM     30  C   UNL     1       1.448  -3.023   2.177  0.00  0.00    +0.009 A 
ATOM     31  C   UNL     1       0.758  -2.381   1.166  0.00  0.00    +0.011 A 
BRANCH  26  33
ATOM     32  C   UNL     1      -0.130   1.058   0.268  0.00  0.00    +0.277 C 
ATOM     33  O   UNL     1      -0.041  -0.366   0.186  0.00  0.00    -0.495 OA
ENDBRANCH  26  33
ENDBRANCH  25  31
ENDBRANCH   1  25
TORSDOF 6
