REMARK  Name = ZINC15859603
REMARK  7 active torsions:
REMARK  status: ('A' for Active; 'I' for Inactive)
REMARK    1  A    between atoms: C_1  and  C_2
REMARK    2  A    between atoms: C_5  and  C_8
REMARK    3  A    between atoms: N_10  and  C_11
REMARK    4  A    between atoms: C_19  and  C_20
REMARK    5  A    between atoms: C_20  and  C_22
REMARK    6  A    between atoms: C_20  and  N_62
REMARK    7  A    between atoms: C_30  and  C_33
REMARK                            x       y       z     vdW  Elec       q    Type
REMARK                         _______ _______ _______ _____ _____    ______ ____
ROOT
ATOM      1  C   UNL     1       2.320   4.120  -0.505  0.00  0.00    +0.082 A 
ATOM      2  C   UNL     1       1.349   3.018  -0.438  0.00  0.00    +0.042 A 
ATOM      3  C   UNL     1       1.455   1.631  -0.349  0.00  0.00    +0.013 A 
ATOM      4  C   UNL     1       0.323   0.866  -0.305  0.00  0.00    +0.001 A 
ATOM      5  C   UNL     1      -0.930   1.461  -0.353  0.00  0.00    +0.004 A 
ATOM      6  C   UNL     1      -1.054   2.831  -0.436  0.00  0.00    +0.047 A 
ATOM      7  C   UNL     1       0.084   3.627  -0.483  0.00  0.00    +0.137 A 
ATOM      8  O   UNL     1       0.281   4.958  -0.567  0.00  0.00    -0.459 OA
ATOM      9  C   UNL     1       1.595   5.251  -0.581  0.00  0.00    +0.118 A 
ENDROOT
BRANCH   1  12
ATOM     10  C   UNL     1       4.315   2.887  -0.931  0.00  0.00    +0.248 C 
ATOM     11  O   UNL     1       3.643   1.989  -1.400  0.00  0.00    -0.270 OA
ATOM     12  N   UNL     1       3.720   4.014  -0.492  0.00  0.00    -0.278 N 
ATOM     13  H   UNL     1       4.260   4.752  -0.167  0.00  0.00    +0.155 HD
BRANCH  10  18
ATOM     14  C   UNL     1      10.031   2.327  -0.586  0.00  0.00    +0.044 C 
ATOM     15  C   UNL     1       8.534   2.474  -0.676  0.00  0.00    -0.050 A 
ATOM     16  C   UNL     1       7.773   1.449  -1.210  0.00  0.00    +0.004 A 
ATOM     17  C   UNL     1       6.402   1.577  -1.296  0.00  0.00    +0.013 A 
ATOM     18  C   UNL     1       5.783   2.743  -0.842  0.00  0.00    +0.037 A 
ATOM     19  C   UNL     1       6.558   3.775  -0.309  0.00  0.00    +0.013 A 
ATOM     20  C   UNL     1       7.927   3.632  -0.224  0.00  0.00    +0.004 A 
ENDBRANCH  10  18
ENDBRANCH   1  12
BRANCH   9  21
ATOM     21  C   UNL     1       2.170   6.641  -0.667  0.00  0.00    +0.033 C 
BRANCH  21  28
ATOM     22  C   UNL     1       1.865   8.822  -1.674  0.00  0.00    -0.077 C 
ATOM     23  C   UNL     1       0.956   9.640  -2.593  0.00  0.00    -0.015 C 
ATOM     24  C   UNL     1       0.992   9.043  -4.003  0.00  0.00    -0.018 C 
ATOM     25  C   UNL     1       0.555   7.576  -3.938  0.00  0.00    -0.015 C 
ATOM     26  C   UNL     1       1.476   6.817  -2.979  0.00  0.00    -0.077 C 
ATOM     27  C   UNL     1       0.038   9.820  -4.912  0.00  0.00    +0.007 C 
ATOM     28  N   UNL     1       1.377   7.426  -1.636  0.00  0.00    +0.389 N 
ATOM     29  H   UNL     1       0.394   7.425  -1.341  0.00  0.00    -0.080 HD
ENDBRANCH  21  28
BRANCH  21  30
ATOM     30  C   UNL     1       2.087   7.304   0.684  0.00  0.00    -0.036 A 
ATOM     31  C   UNL     1       3.228   7.479   1.452  0.00  0.00    +0.005 A 
ATOM     32  C   UNL     1       3.104   8.094   2.688  0.00  0.00    +0.020 A 
ATOM     33  C   UNL     1       1.855   8.508   3.112  0.00  0.00    +0.111 A 
ATOM     34  N   UNL     1       0.791   8.325   2.355  0.00  0.00    -0.263 NA
ATOM     35  C   UNL     1       0.873   7.750   1.171  0.00  0.00    +0.113 A 
ENDBRANCH  21  30
ENDBRANCH   9  21
TORSDOF 5
