REMARK  Name = ZINC57566538
REMARK  5 active torsions:
REMARK  status: ('A' for Active; 'I' for Inactive)
REMARK    1  A    between atoms: C_4  and  S_7
REMARK    2  A    between atoms: S_7  and  C_8
REMARK    3  A    between atoms: C_13  and  N_14
REMARK    4  A    between atoms: C_15  and  C_17
REMARK    5  A    between atoms: C_22  and  N_23
REMARK                            x       y       z     vdW  Elec       q    Type
REMARK                         _______ _______ _______ _____ _____    ______ ____
ROOT
ATOM      1  C   UNL     1       3.475  -2.569   0.099  0.00  0.00    +0.034 A 
ATOM      2  C   UNL     1       2.140  -2.950   0.070  0.00  0.00    +0.017 A 
ATOM      3  C   UNL     1       1.800  -4.285   0.166  0.00  0.00    +0.001 A 
ATOM      4  C   UNL     1       2.787  -5.247   0.290  0.00  0.00    +0.002 A 
ATOM      5  C   UNL     1       4.119  -4.878   0.321  0.00  0.00    +0.024 A 
ATOM      6  C   UNL     1       4.470  -3.540   0.219  0.00  0.00    +0.047 A 
ENDROOT
BRANCH   6   7
ATOM      7  N   UNL     1       5.819  -3.164   0.244  0.00  0.00    -0.280 N 
ATOM      8  C   UNL     1       6.728  -3.958   0.843  0.00  0.00    +0.250 C 
ATOM      9  O   UNL     1       6.366  -4.946   1.451  0.00  0.00    -0.270 OA
ATOM     10  H   UNL     1       6.098  -2.333  -0.170  0.00  0.00    +0.155 HD
BRANCH   8  11
ATOM     11  C   UNL     1       8.167  -3.627   0.759  0.00  0.00    +0.067 A 
ATOM     12  C   UNL     1       8.776  -3.459  -0.486  0.00  0.00    +0.015 A 
ATOM     13  C   UNL     1      10.118  -3.150  -0.556  0.00  0.00    +0.001 A 
ATOM     14  C   UNL     1      10.861  -3.007   0.603  0.00  0.00    +0.002 A 
ATOM     15  C   UNL     1      10.263  -3.173   1.839  0.00  0.00    +0.033 A 
ATOM     16  C   UNL     1       8.920  -3.476   1.924  0.00  0.00    +0.138 A 
BRANCH  16  17
ATOM     17  N   UNL     1       8.281  -3.648   3.248  0.00  0.00    +0.057 N 
ATOM     18  O   UNL     1       8.913  -3.436   4.257  0.00  0.00    -0.126 OA
ATOM     19  O   UNL     1       7.126  -3.999   3.321  0.00  0.00    -0.126 OA
ENDBRANCH  16  17
ENDBRANCH   8  11
ENDBRANCH   6   7
BRANCH   1  20
ATOM     20  S   UNL     1       3.912  -0.867  -0.023  0.00  0.00    -0.088 S 
BRANCH  20  24
ATOM     21  C   UNL     1      -0.070   1.292   0.004  0.00  0.00    +0.000 A 
ATOM     22  C   UNL     1       0.534   0.944   1.199  0.00  0.00    +0.001 A 
ATOM     23  C   UNL     1       1.748   0.286   1.194  0.00  0.00    +0.015 A 
ATOM     24  C   UNL     1       2.362  -0.027  -0.013  0.00  0.00    +0.013 A 
ATOM     25  C   UNL     1       1.752   0.323  -1.211  0.00  0.00    +0.015 A 
ATOM     26  C   UNL     1       0.538   0.981  -1.199  0.00  0.00    +0.001 A 
ENDBRANCH  20  24
ENDBRANCH   1  20
TORSDOF 5
