REMARK  Name = ZINC62703855
REMARK  12 active torsions:
REMARK  status: ('A' for Active; 'I' for Inactive)
REMARK    1  A    between atoms: C_1  and  C_2
REMARK    2  A    between atoms: C_2  and  C_3
REMARK    3  A    between atoms: C_3  and  C_4
REMARK    4  A    between atoms: C_4  and  C_6
REMARK    5  A    between atoms: C_4  and  N_7
REMARK    6  A    between atoms: C_8  and  C_10
REMARK    7  A    between atoms: C_10  and  C_12
REMARK    8  A    between atoms: C_10  and  O_13
REMARK    9  A    between atoms: O_13  and  C_14
REMARK   10  A    between atoms: C_17  and  C_21
REMARK   11  A    between atoms: C_21  and  C_22
REMARK   12  A    between atoms: C_22  and  N_23
REMARK                            x       y       z     vdW  Elec       q    Type
REMARK                         _______ _______ _______ _____ _____    ______ ____
ROOT
ATOM      1  C   UNL     1      -3.668  -5.914  -0.079  0.00  0.00    +0.136 A 
ATOM      2  C   UNL     1      -4.734  -5.034   0.043  0.00  0.00    +0.047 A 
ATOM      3  C   UNL     1      -5.989  -5.405  -0.401  0.00  0.00    +0.007 A 
ATOM      4  C   UNL     1      -6.183  -6.653  -0.965  0.00  0.00    -0.048 A 
ATOM      5  C   UNL     1      -5.123  -7.532  -1.088  0.00  0.00    +0.022 A 
ATOM      6  C   UNL     1      -3.864  -7.163  -0.651  0.00  0.00    +0.060 A 
ATOM      7 BR   UNL     1      -2.413  -8.363  -0.827  0.00  0.00    -0.047 Br
ENDROOT
BRANCH   1   8
ATOM      8  O   UNL     1      -2.433  -5.551   0.356  0.00  0.00    -0.479 OA
BRANCH   8   9
ATOM      9  C   UNL     1      -2.276  -4.207   0.817  0.00  0.00    +0.256 C 
ATOM     10  C   UNL     1      -2.689  -4.122   2.288  0.00  0.00    +0.062 C 
BRANCH   9  12
ATOM     11  N   UNL     1      -0.467  -2.526   0.954  0.00  0.00    -0.310 N 
ATOM     12  C   UNL     1      -0.834  -3.792   0.675  0.00  0.00    +0.254 C 
ATOM     13  O   UNL     1      -0.005  -4.598   0.309  0.00  0.00    -0.272 OA
ATOM     14  H   UNL     1      -1.131  -1.882   1.246  0.00  0.00    +0.149 HD
BRANCH  11  15
ATOM     15  C   UNL     1       0.934  -2.123   0.815  0.00  0.00    +0.070 C 
ATOM     16  C   UNL     1       1.694  -2.470   2.097  0.00  0.00    +0.028 C 
BRANCH  15  17
ATOM     17  C   UNL     1       1.009  -0.614   0.571  0.00  0.00    +0.022 C 
BRANCH  17  19
ATOM     18  C   UNL     1       0.432   1.226  -1.017  0.00  0.00    +0.004 C 
ATOM     19  C   UNL     1       0.358  -0.282  -0.773  0.00  0.00    -0.002 C 
ENDBRANCH  17  19
ENDBRANCH  15  17
ENDBRANCH  11  15
ENDBRANCH   9  12
ENDBRANCH   8   9
ENDBRANCH   1   8
BRANCH   4  20
ATOM     20  C   UNL     1      -7.553  -7.055  -1.447  0.00  0.00    +0.015 C 
BRANCH  20  21
ATOM     21  C   UNL     1      -7.718  -6.648  -2.913  0.00  0.00    -0.082 C 
BRANCH  21  22
ATOM     22  N   UNL     1      -9.054  -7.040  -3.383  0.00  0.00    +0.378 N 
ATOM     23  H   UNL     1      -9.160  -8.039  -3.297  0.00  0.00    -0.090 HD
ATOM     24  H   UNL     1      -9.756  -6.577  -2.824  0.00  0.00    -0.090 HD
ATOM     25  H   UNL     1      -9.162  -6.771  -4.349  0.00  0.00    -0.090 HD
ENDBRANCH  21  22
ENDBRANCH  20  21
ENDBRANCH   4  20
TORSDOF 9
