REMARK  Name = ZINC62874132
REMARK  3 active torsions:
REMARK  status: ('A' for Active; 'I' for Inactive)
REMARK    1  A    between atoms: C_1  and  C_2
REMARK    2  A    between atoms: C_2  and  C_19
REMARK    3  A    between atoms: N_10  and  C_11
REMARK                            x       y       z     vdW  Elec       q    Type
REMARK                         _______ _______ _______ _____ _____    ______ ____
ROOT
ATOM      1  C   UNL     1      -0.018   1.529   0.011  0.00  0.00    +0.024 C 
ATOM      2  C   UNL     1       0.002  -0.001   0.002  0.00  0.00    +0.085 C 
ATOM      3  C   UNL     1      -1.434  -0.531   0.016  0.00  0.00    +0.021 C 
ATOM      4  C   UNL     1      -2.159  -0.010   1.259  0.00  0.00    +0.020 C 
ATOM      5  C   UNL     1      -1.443  -0.520   2.514  0.00  0.00    +0.109 C 
ATOM      6  N   UNL     1      -0.026  -0.138   2.438  0.00  0.00    -0.285 N 
ATOM      7  C   UNL     1       0.743  -0.510   1.242  0.00  0.00    +0.127 C 
ATOM      8  C   UNL     1       0.557   0.541   3.445  0.00  0.00    +0.302 C 
ATOM      9  O   UNL     1       1.751   0.771   3.412  0.00  0.00    -0.253 OA
ATOM     10  N   UNL     1      -0.182   0.964   4.489  0.00  0.00    -0.296 N 
ATOM     11  H   UNL     1      -1.118   0.718   4.552  0.00  0.00    +0.151 HD
ENDROOT
BRANCH  10  12
ATOM     12  C   UNL     1       0.428   1.797   5.529  0.00  0.00    +0.077 C 
ATOM     13  C   UNL     1       1.133   0.899   6.542  0.00  0.00    +0.045 C 
ATOM     14  C   UNL     1       1.997   1.747   7.479  0.00  0.00    +0.167 C 
ATOM     15  S   UNL     1       0.920   2.865   8.422  0.00  0.00    -0.031 S 
ATOM     16  O   UNL     1       1.732   3.832   9.075  0.00  0.00    -0.174 OA
ATOM     17  O   UNL     1       0.020   2.082   9.194  0.00  0.00    -0.174 OA
ATOM     18  C   UNL     1      -0.016   3.693   7.102  0.00  0.00    +0.167 C 
ATOM     19  C   UNL     1      -0.656   2.628   6.207  0.00  0.00    +0.045 C 
ENDBRANCH  10  12
BRANCH   2  20
ATOM     20  C   UNL     1       0.706  -0.487  -1.239  0.00  0.00    +0.363 C 
ATOM     21  O   UNL     1       1.867  -0.176  -1.443  0.00  0.00    -0.246 OA
ATOM     22  O   UNL     1       0.114  -1.190  -2.040  0.00  0.00    -0.246 OA
ENDBRANCH   2  20
TORSDOF 2
