REMARK  Name = ZINC37427603
REMARK  15 active torsions:
REMARK  status: ('A' for Active; 'I' for Inactive)
REMARK    1  A    between atoms: C_1  and  C_2
REMARK    2  A    between atoms: C_2  and  C_3
REMARK    3  A    between atoms: C_2  and  C_4
REMARK    4  A    between atoms: C_2  and  C_5
REMARK    5  A    between atoms: N_8  and  C_10
REMARK    6  A    between atoms: N_11  and  C_26
REMARK    7  A    between atoms: C_16  and  C_18
REMARK    8  A    between atoms: C_23  and  O_24
REMARK    9  A    between atoms: O_24  and  C_25
REMARK   10  A    between atoms: C_26  and  C_27
REMARK   11  A    between atoms: N_29  and  C_30
REMARK   12  A    between atoms: C_30  and  C_31
REMARK   13  A    between atoms: C_31  and  N_32
REMARK   14  A    between atoms: N_32  and  C_33
REMARK   15  A    between atoms: N_32  and  C_34
REMARK                            x       y       z     vdW  Elec       q    Type
REMARK                         _______ _______ _______ _____ _____    ______ ____
ROOT
ATOM      1  C   UNL     1       0.698   0.462  -1.097  0.00  0.00    +0.075 A 
ATOM      2  C   UNL     1       1.991  -0.024  -1.291  0.00  0.00    +0.033 A 
ATOM      3  C   UNL     1       2.481   0.538  -2.420  0.00  0.00    +0.131 A 
ATOM      4  N   UNL     1       1.539   1.356  -2.925  0.00  0.00    -0.253 N 
ATOM      5  N   UNL     1       0.422   1.286  -2.078  0.00  0.00    -0.174 NA
ATOM      6  C   UNL     1       1.657   2.167  -4.139  0.00  0.00    +0.174 C 
ATOM      7  N   UNL     1       3.760   0.272  -2.933  0.00  0.00    -0.246 N 
ATOM      8  C   UNL     1       4.149  -1.002  -3.048  0.00  0.00    +0.231 C 
ATOM      9  O   UNL     1       5.324  -1.264  -3.191  0.00  0.00    -0.274 OA
ATOM     10  C   UNL     1       3.138  -2.107  -3.001  0.00  0.00    +0.166 C 
ATOM     11  S   UNL     1       2.814  -2.612  -1.278  0.00  0.00    -0.138 S 
ATOM     12  C   UNL     1       2.741  -0.999  -0.420  0.00  0.00    +0.115 C 
ENDROOT
BRANCH  12  13
ATOM     13  C   UNL     1       2.023  -1.158   0.896  0.00  0.00    +0.012 A 
ATOM     14  C   UNL     1       1.152  -2.214   1.085  0.00  0.00    +0.008 A 
ATOM     15  C   UNL     1       0.493  -2.360   2.291  0.00  0.00    +0.001 A 
ATOM     16  C   UNL     1       0.702  -1.450   3.311  0.00  0.00    +0.004 A 
ATOM     17  C   UNL     1       1.572  -0.393   3.127  0.00  0.00    +0.046 A 
ATOM     18  C   UNL     1       2.239  -0.247   1.919  0.00  0.00    +0.125 A 
BRANCH  18  19
ATOM     19  O   UNL     1       3.099   0.789   1.738  0.00  0.00    -0.495 OA
ATOM     20  C   UNL     1       3.273   1.688   2.835  0.00  0.00    +0.277 C 
ENDBRANCH  18  19
ENDBRANCH  12  13
BRANCH   1  22
ATOM     21  C   UNL     1      -1.595   0.734  -0.193  0.00  0.00    +0.017 C 
ATOM     22  C   UNL     1      -0.223   0.099   0.039  0.00  0.00    +0.007 C 
ATOM     23  C   UNL     1       0.362   0.616   1.355  0.00  0.00    +0.017 C 
ATOM     24  C   UNL     1      -0.371  -1.423   0.110  0.00  0.00    +0.017 C 
ENDBRANCH   1  22
BRANCH   7  25
ATOM     25  C   UNL     1       4.648   1.365  -3.335  0.00  0.00    +0.210 C 
BRANCH  25  26
ATOM     26  C   UNL     1       5.594   1.685  -2.206  0.00  0.00    +0.231 C 
ATOM     27  O   UNL     1       5.532   1.060  -1.168  0.00  0.00    -0.274 OA
ATOM     28  N   UNL     1       6.509   2.664  -2.349  0.00  0.00    -0.316 N 
ATOM     29  H   UNL     1       6.559   3.163  -3.179  0.00  0.00    +0.149 HD
BRANCH  28  30
ATOM     30  C   UNL     1       7.428   2.974  -1.251  0.00  0.00    +0.085 C 
BRANCH  30  31
ATOM     31  C   UNL     1       8.356   4.116  -1.671  0.00  0.00    -0.061 C 
BRANCH  31  32
ATOM     32  N   UNL     1       9.278   4.427  -0.570  0.00  0.00    +0.377 N 
ATOM     33  C   UNL     1      10.246   5.439  -1.013  0.00  0.00    -0.097 C 
ATOM     34  C   UNL     1       8.517   4.945   0.575  0.00  0.00    -0.097 C 
ATOM     35  H   UNL     1       9.769   3.590  -0.296  0.00  0.00    -0.083 HD
ENDBRANCH  31  32
ENDBRANCH  30  31
ENDBRANCH  28  30
ENDBRANCH  25  26
ENDBRANCH   7  25
TORSDOF 8
