REMARK  Name = ZINC09367903
REMARK  6 active torsions:
REMARK  status: ('A' for Active; 'I' for Inactive)
REMARK    1  A    between atoms: C_1  and  C_2
REMARK    2  A    between atoms: C_5  and  N_16
REMARK    3  A    between atoms: C_6  and  C_8
REMARK    4  A    between atoms: C_8  and  C_10
REMARK    5  A    between atoms: C_17  and  C_19
REMARK    6  A    between atoms: C_23  and  N_28
REMARK                            x       y       z     vdW  Elec       q    Type
REMARK                         _______ _______ _______ _____ _____    ______ ____
ROOT
ATOM      1  N   UNL     1      -1.186   1.875  -0.027  0.00  0.00    -0.280 N 
ATOM      2  C   UNL     1      -0.074   1.348   0.524  0.00  0.00    +0.255 C 
ATOM      3  O   UNL     1      -0.118   0.256   1.058  0.00  0.00    -0.269 OA
ATOM      4  H   UNL     1      -1.172   2.779  -0.376  0.00  0.00    +0.155 HD
ENDROOT
BRANCH   2   5
ATOM      5  C   UNL     1       1.192   2.092   0.476  0.00  0.00    +0.075 A 
ATOM      6  C   UNL     1       2.406   1.730   0.972  0.00  0.00    +0.029 A 
ATOM      7  C   UNL     1       3.510   2.588   0.818  0.00  0.00    -0.008 A 
ATOM      8  C   UNL     1       4.845   2.389   1.256  0.00  0.00    +0.041 A 
ATOM      9  C   UNL     1       5.798   3.329   1.030  0.00  0.00    +0.127 A 
ATOM     10  C   UNL     1       5.508   4.515   0.366  0.00  0.00    +0.034 A 
ATOM     11  C   UNL     1       4.223   4.750  -0.077  0.00  0.00    +0.018 A 
ATOM     12  C   UNL     1       3.244   3.804   0.145  0.00  0.00    +0.020 A 
ATOM     13  S   UNL     1       1.515   3.694  -0.240  0.00  0.00    -0.084 S 
BRANCH   9  14
ATOM     14  N   UNL     1       7.179   3.085   1.504  0.00  0.00    +0.056 N 
ATOM     15  O   UNL     1       7.449   2.051   2.088  0.00  0.00    -0.126 OA
ATOM     16  O   UNL     1       8.046   3.919   1.309  0.00  0.00    -0.126 OA
ENDBRANCH   9  14
ENDBRANCH   2   5
BRANCH   1  21
ATOM     17  C   UNL     1      -5.938  -1.218  -0.304  0.00  0.00    +0.044 C 
ATOM     18  C   UNL     1      -4.681  -0.389  -0.231  0.00  0.00    -0.050 A 
ATOM     19  C   UNL     1      -3.446  -1.014  -0.164  0.00  0.00    +0.005 A 
ATOM     20  C   UNL     1      -2.287  -0.267  -0.097  0.00  0.00    +0.024 A 
ATOM     21  C   UNL     1      -2.352   1.120  -0.096  0.00  0.00    +0.045 A 
ATOM     22  C   UNL     1      -3.602   1.757  -0.159  0.00  0.00    +0.044 A 
ATOM     23  C   UNL     1      -4.766   0.986  -0.232  0.00  0.00    +0.017 A 
BRANCH  22  24
ATOM     24  C   UNL     1      -3.686   3.228  -0.153  0.00  0.00    +0.195 C 
ATOM     25  O   UNL     1      -4.005   3.823  -1.165  0.00  0.00    -0.287 OA
BRANCH  24  26
ATOM     26  C   UNL     1      -3.383   3.980   1.082  0.00  0.00    +0.022 A 
ATOM     27  C   UNL     1      -3.126   3.299   2.274  0.00  0.00    +0.012 A 
ATOM     28  C   UNL     1      -2.839   4.007   3.422  0.00  0.00    +0.001 A 
ATOM     29  C   UNL     1      -2.815   5.390   3.397  0.00  0.00    +0.000 A 
ATOM     30  C   UNL     1      -3.074   6.072   2.222  0.00  0.00    +0.001 A 
ATOM     31  C   UNL     1      -3.357   5.377   1.065  0.00  0.00    +0.012 A 
ENDBRANCH  24  26
ENDBRANCH  22  24
ENDBRANCH   1  21
TORSDOF 5
