REMARK  Name = ZINC02188822
REMARK  12 active torsions:
REMARK  status: ('A' for Active; 'I' for Inactive)
REMARK    1  A    between atoms: C_1  and  C_2
REMARK    2  A    between atoms: C_2  and  C_3
REMARK    3  A    between atoms: C_6  and  C_9
REMARK    4  A    between atoms: C_11  and  C_38
REMARK    5  A    between atoms: C_12  and  N_37
REMARK    6  A    between atoms: N_13  and  C_23
REMARK    7  A    between atoms: C_19  and  C_21
REMARK    8  A    between atoms: C_19  and  C_22
REMARK    9  A    between atoms: C_24  and  C_32
REMARK   10  A    between atoms: C_32  and  O_34
REMARK   11  A    between atoms: O_34  and  C_35
REMARK   12  A    between atoms: C_35  and  C_36
REMARK                            x       y       z     vdW  Elec       q    Type
REMARK                         _______ _______ _______ _____ _____    ______ ____
ROOT
ATOM      1  C   UNL     1       0.047  -4.268  -0.025  0.00  0.00    +0.097 C 
ATOM      2  C   UNL     1       1.209  -4.926  -0.708  0.00  0.00    +0.077 C 
ATOM      3  C   UNL     1       1.109  -5.375  -1.986  0.00  0.00    +0.107 C 
ATOM      4  N   UNL     1      -0.075  -5.239  -2.675  0.00  0.00    -0.254 N 
ATOM      5  C   UNL     1      -1.253  -5.032  -2.003  0.00  0.00    +0.025 C 
ATOM      6  C   UNL     1      -1.248  -4.577  -0.733  0.00  0.00    +0.025 C 
ATOM      7  C   UNL     1      -2.450  -4.377  -0.030  0.00  0.00    +0.162 C 
ATOM      8  O   UNL     1      -2.412  -3.960   1.111  0.00  0.00    -0.292 OA
ATOM      9  C   UNL     1      -3.783  -4.671  -0.663  0.00  0.00    +0.086 C 
ATOM     10  C   UNL     1      -3.604  -5.776  -1.710  0.00  0.00    -0.023 C 
ATOM     11  C   UNL     1      -2.549  -5.321  -2.720  0.00  0.00    +0.058 C 
ATOM     12  C   UNL     1      -3.140  -7.063  -1.025  0.00  0.00    +0.011 C 
ATOM     13  C   UNL     1      -4.934  -6.025  -2.426  0.00  0.00    +0.011 C 
ENDROOT
BRANCH   4  14
ATOM     14  C   UNL     1      -0.078  -5.312  -4.061  0.00  0.00    +0.092 A 
ATOM     15  C   UNL     1      -0.157  -6.441  -4.865  0.00  0.00    +0.091 A 
ATOM     16  C   UNL     1      -0.140  -6.242  -6.304  0.00  0.00    -0.021 A 
ATOM     17  C   UNL     1      -0.045  -4.956  -6.706  0.00  0.00    -0.004 A 
ATOM     18  S   UNL     1       0.011  -4.016  -5.207  0.00  0.00    -0.077 S 
ATOM     19  C   UNL     1      -0.005  -4.450  -8.115  0.00  0.00    +0.043 C 
ATOM     20  C   UNL     1       0.291  -5.636  -9.046  0.00  0.00    +0.005 C 
ATOM     21  C   UNL     1      -0.633  -6.799  -8.672  0.00  0.00    +0.005 C 
ATOM     22  C   UNL     1      -0.220  -7.377  -7.318  0.00  0.00    +0.037 C 
BRANCH  15  23
ATOM     23  C   UNL     1      -0.256  -7.782  -4.285  0.00  0.00    +0.342 C 
ATOM     24  O   UNL     1      -1.348  -8.287  -4.103  0.00  0.00    -0.245 OA
BRANCH  23  25
ATOM     25  O   UNL     1       0.863  -8.457  -3.952  0.00  0.00    -0.461 OA
BRANCH  25  26
ATOM     26  C   UNL     1       0.690  -9.781  -3.382  0.00  0.00    +0.229 C 
ATOM     27  C   UNL     1       2.060 -10.386  -3.071  0.00  0.00    +0.048 C 
ENDBRANCH  25  26
ENDBRANCH  23  25
ENDBRANCH  15  23
ENDBRANCH   4  14
BRANCH   1  31
ATOM     28  C   UNL     1       0.651  -0.040   0.008  0.00  0.00    -0.048 A 
ATOM     29  C   UNL     1       0.577  -0.718  -1.194  0.00  0.00    +0.004 A 
ATOM     30  C   UNL     1       0.387  -2.087  -1.205  0.00  0.00    +0.005 A 
ATOM     31  C   UNL     1       0.260  -2.776  -0.013  0.00  0.00    -0.035 A 
ATOM     32  C   UNL     1       0.329  -2.097   1.189  0.00  0.00    +0.005 A 
ATOM     33  C   UNL     1       0.525  -0.729   1.200  0.00  0.00    +0.004 A 
BRANCH  28  35
ATOM     34  C   UNL     1       2.363   1.754   0.057  0.00  0.00    +0.009 C 
ATOM     35  C   UNL     1       0.864   1.452   0.020  0.00  0.00    +0.032 C 
ENDBRANCH  28  35
ENDBRANCH   1  31
BRANCH   3  36
ATOM     36  N   UNL     1       2.192  -5.967  -2.591  0.00  0.00    -0.345 N 
ATOM     37  H   UNL     1       3.048  -5.994  -2.136  0.00  0.00    +0.144 HD
ATOM     38  H   UNL     1       2.100  -6.357  -3.474  0.00  0.00    +0.144 HD
ENDBRANCH   3  36
BRANCH   2  39
ATOM     39  C   UNL     1       2.445  -5.082  -0.002  0.00  0.00    +0.099 C 
ATOM     40  N   UNL     1       3.425  -5.206   0.559  0.00  0.00    -0.191 NA
ENDBRANCH   2  39
TORSDOF 8
