REMARK  Name = ZINC09116430
REMARK  7 active torsions:
REMARK  status: ('A' for Active; 'I' for Inactive)
REMARK    1  A    between atoms: C_1  and  C_2
REMARK    2  A    between atoms: C_5  and  C_8
REMARK    3  A    between atoms: C_8  and  O_9
REMARK    4  A    between atoms: C_14  and  C_26
REMARK    5  A    between atoms: C_16  and  S_17
REMARK    6  A    between atoms: S_17  and  C_18
REMARK    7  A    between atoms: C_18  and  C_19
REMARK                            x       y       z     vdW  Elec       q    Type
REMARK                         _______ _______ _______ _____ _____    ______ ____
ROOT
ATOM      1  C   UNL     1       4.911   0.707  -0.778  0.00  0.00    +0.069 C 
ATOM      2  C   UNL     1       3.696  -0.184  -0.787  0.00  0.00    +0.081 A 
ATOM      3  C   UNL     1       2.464   0.328  -0.397  0.00  0.00    +0.155 A 
ATOM      4  C   UNL     1       1.356  -0.506  -0.411  0.00  0.00    +0.008 A 
ATOM      5  C   UNL     1       1.519  -1.821  -0.816  0.00  0.00    +0.003 A 
ATOM      6  C   UNL     1       2.776  -2.258  -1.190  0.00  0.00    +0.117 A 
ATOM      7  N   UNL     1       3.811  -1.441  -1.166  0.00  0.00    -0.256 NA
ATOM      8  C   UNL     1       0.002  -0.004   0.002  0.00  0.00    +0.082 C 
ATOM      9  C   UNL     1      -0.018   1.498   0.010  0.00  0.00    +0.051 A 
ATOM     10  C   UNL     1       1.157   2.231   0.003  0.00  0.00    +0.229 A 
ATOM     11  N   UNL     1       1.089   3.561   0.011  0.00  0.00    -0.193 NA
ATOM     12  C   UNL     1      -0.082   4.181   0.026  0.00  0.00    +0.165 A 
ATOM     13  N   UNL     1      -1.226   3.512   0.034  0.00  0.00    -0.221 NA
ATOM     14  C   UNL     1      -1.234   2.181   0.031  0.00  0.00    +0.108 A 
ATOM     15  O   UNL     1       2.362   1.621  -0.011  0.00  0.00    -0.436 OA
ENDROOT
BRANCH  12  16
ATOM     16  C   UNL     1      -0.113   5.663   0.034  0.00  0.00    +0.019 A 
ATOM     17  C   UNL     1      -1.333   6.337   0.045  0.00  0.00    +0.011 A 
ATOM     18  C   UNL     1      -1.356   7.717   0.058  0.00  0.00    +0.001 A 
ATOM     19  C   UNL     1      -0.171   8.431   0.050  0.00  0.00    +0.000 A 
ATOM     20  C   UNL     1       1.042   7.768   0.033  0.00  0.00    +0.001 A 
ATOM     21  C   UNL     1       1.077   6.388   0.026  0.00  0.00    +0.011 A 
ENDBRANCH  12  16
BRANCH   5  22
ATOM     22  C   UNL     1       0.342  -2.762  -0.847  0.00  0.00    +0.193 C 
BRANCH  22  23
ATOM     23  O   UNL     1       0.772  -4.048  -1.297  0.00  0.00    -0.390 OA
ATOM     24  H   UNL     1       0.065  -4.706  -1.342  0.00  0.00    +0.210 HD
ENDBRANCH  22  23
ENDBRANCH   5  22
BRANCH  14  25
ATOM     25  S   UNL     1      -2.757   1.295   0.047  0.00  0.00    -0.101 S 
BRANCH  25  26
ATOM     26  C   UNL     1      -3.924   2.678   0.072  0.00  0.00    +0.113 C 
BRANCH  26  27
ATOM     27  C   UNL     1      -5.334   2.145   0.089  0.00  0.00    -0.002 A 
ATOM     28  C   UNL     1      -5.999   1.913  -1.100  0.00  0.00    +0.007 A 
ATOM     29  C   UNL     1      -7.290   1.419  -1.086  0.00  0.00    +0.000 A 
ATOM     30  C   UNL     1      -7.921   1.167   0.118  0.00  0.00    +0.003 A 
ATOM     31  C   UNL     1      -7.260   1.403   1.308  0.00  0.00    +0.038 A 
ATOM     32  C   UNL     1      -5.965   1.893   1.295  0.00  0.00    +0.127 A 
ATOM     33  F   UNL     1      -5.317   2.125   2.458  0.00  0.00    -0.205 F 
ENDBRANCH  26  27
ENDBRANCH  25  26
ENDBRANCH  14  25
TORSDOF 6
