REMARK  Name = ZINC36646317
REMARK  6 active torsions:
REMARK  status: ('A' for Active; 'I' for Inactive)
REMARK    1  A    between atoms: C_1  and  C_2
REMARK    2  A    between atoms: C_2  and  C_3
REMARK    3  A    between atoms: C_6  and  C_9
REMARK    4  A    between atoms: C_11  and  C_26
REMARK    5  A    between atoms: C_12  and  N_25
REMARK    6  A    between atoms: C_22  and  C_23
REMARK                            x       y       z     vdW  Elec       q    Type
REMARK                         _______ _______ _______ _____ _____    ______ ____
ROOT
ATOM      1  C   UNL     1       2.708  -1.866  -4.745  0.00  0.00    +0.105 C 
ATOM      2  C   UNL     1       3.698  -0.803  -5.176  0.00  0.00    +0.078 C 
ATOM      3  C   UNL     1       5.007  -1.130  -5.276  0.00  0.00    +0.107 C 
ATOM      4  N   UNL     1       5.510  -2.402  -5.003  0.00  0.00    -0.249 N 
ATOM      5  C   UNL     1       6.874  -2.736  -5.109  0.00  0.00    +0.054 A 
ATOM      6  C   UNL     1       7.908  -1.866  -5.493  0.00  0.00    +0.025 A 
ATOM      7  C   UNL     1       9.208  -2.307  -5.561  0.00  0.00    +0.002 A 
ATOM      8  C   UNL     1       9.539  -3.616  -5.254  0.00  0.00    +0.001 A 
ATOM      9  C   UNL     1       8.539  -4.493  -4.872  0.00  0.00    +0.017 A 
ATOM     10  C   UNL     1       7.238  -4.049  -4.805  0.00  0.00    +0.036 A 
ATOM     11  S   UNL     1       5.696  -4.816  -4.376  0.00  0.00    -0.071 S 
ATOM     12  C   UNL     1       4.647  -3.397  -4.609  0.00  0.00    +0.093 C 
ATOM     13  C   UNL     1       3.300  -3.233  -4.457  0.00  0.00    +0.070 C 
ENDROOT
BRANCH   1  17
ATOM     14  C   UNL     1       0.728  -0.499  -1.215  0.00  0.00    -0.048 A 
ATOM     15  C   UNL     1       0.004  -0.721  -2.371  0.00  0.00    +0.004 A 
ATOM     16  C   UNL     1       0.645  -1.163  -3.514  0.00  0.00    +0.005 A 
ATOM     17  C   UNL     1       2.010  -1.383  -3.499  0.00  0.00    -0.034 A 
ATOM     18  C   UNL     1       2.733  -1.160  -2.343  0.00  0.00    +0.005 A 
ATOM     19  C   UNL     1       2.093  -0.714  -1.202  0.00  0.00    +0.004 A 
BRANCH  14  21
ATOM     20  C   UNL     1       0.012   1.512   0.046  0.00  0.00    +0.009 C 
ATOM     21  C   UNL     1       0.029  -0.017   0.031  0.00  0.00    +0.032 C 
ENDBRANCH  14  21
ENDBRANCH   1  17
BRANCH   3  22
ATOM     22  N   UNL     1       5.891  -0.154  -5.669  0.00  0.00    -0.345 N 
ATOM     23  H   UNL     1       5.931   0.687  -5.186  0.00  0.00    +0.144 HD
ATOM     24  H   UNL     1       6.474  -0.305  -6.429  0.00  0.00    +0.144 HD
ENDBRANCH   3  22
BRANCH  13  25
ATOM     25  C   UNL     1       2.471  -4.323  -4.039  0.00  0.00    +0.098 C 
ATOM     26  N   UNL     1       1.813  -5.188  -3.708  0.00  0.00    -0.191 NA
ENDBRANCH  13  25
BRANCH   2  27
ATOM     27  C   UNL     1       3.255   0.526  -5.473  0.00  0.00    +0.099 C 
ATOM     28  N   UNL     1       2.903   1.581  -5.708  0.00  0.00    -0.191 NA
ENDBRANCH   2  27
TORSDOF 5
