REMARK  Name = ZINC39598153
REMARK  6 active torsions:
REMARK  status: ('A' for Active; 'I' for Inactive)
REMARK    1  A    between atoms: C_1  and  C_2
REMARK    2  A    between atoms: C_6  and  C_9
REMARK    3  A    between atoms: C_13  and  C_22
REMARK    4  A    between atoms: N_24  and  C_25
REMARK    5  A    between atoms: N_28  and  C_31
REMARK    6  A    between atoms: C_31  and  C_32
REMARK                            x       y       z     vdW  Elec       q    Type
REMARK                         _______ _______ _______ _____ _____    ______ ____
ROOT
ATOM      1  C   UNL     1       0.085  -2.895   2.598  0.00  0.00    +0.252 C 
ATOM      2  O   UNL     1       1.130  -3.246   3.111  0.00  0.00    -0.270 OA
ATOM      3  N   UNL     1      -1.091  -3.267   3.141  0.00  0.00    -0.296 N 
ATOM      4  C   UNL     1      -2.455  -2.945   2.660  0.00  0.00    +0.121 C 
ATOM      5  C   UNL     1      -3.264  -4.243   2.884  0.00  0.00    +0.100 C 
ATOM      6  C   UNL     1      -2.510  -4.988   3.998  0.00  0.00    -0.004 C 
ATOM      7  C   UNL     1      -1.312  -4.094   4.351  0.00  0.00    +0.115 C 
ATOM      8  C   UNL     1      -2.019  -6.341   3.490  0.00  0.00    -0.010 C 
ATOM      9  C   UNL     1      -1.322  -7.087   4.632  0.00  0.00    -0.082 C 
ATOM     10  N   UNL     1      -2.262  -7.270   5.745  0.00  0.00    +0.379 N 
ATOM     11  C   UNL     1      -2.657  -5.965   6.287  0.00  0.00    -0.082 C 
ATOM     12  C   UNL     1      -3.410  -5.171   5.215  0.00  0.00    -0.010 C 
ATOM     13  H   UNL     1      -3.082  -7.757   5.414  0.00  0.00    -0.086 HD
ATOM     14  H   UNL     1      -1.820  -7.814   6.470  0.00  0.00    -0.086 HD
ENDROOT
BRANCH   1  20
ATOM     15  C   UNL     1       0.142   1.609   0.444  0.00  0.00    +0.047 C 
ATOM     16  C   UNL     1       0.133   0.106   0.337  0.00  0.00    -0.014 A 
ATOM     17  C   UNL     1       0.142  -0.496  -0.909  0.00  0.00    +0.009 A 
ATOM     18  C   UNL     1       0.133  -1.875  -1.019  0.00  0.00    +0.039 A 
ATOM     19  C   UNL     1       0.114  -2.663   0.117  0.00  0.00    +0.138 A 
ATOM     20  C   UNL     1       0.105  -2.062   1.380  0.00  0.00    +0.107 A 
ATOM     21  C   UNL     1       0.120  -0.667   1.482  0.00  0.00    +0.141 A 
ATOM     22  F   UNL     1       0.117  -0.076   2.697  0.00  0.00    -0.204 F 
ATOM     23  F   UNL     1       0.105  -4.009   0.007  0.00  0.00    -0.205 F 
ENDBRANCH   1  20
BRANCH   5  24
ATOM     24  C   UNL     1      -4.668  -3.917   3.324  0.00  0.00    +0.218 C 
ATOM     25  O   UNL     1      -4.882  -2.917   3.976  0.00  0.00    -0.275 OA
ATOM     26  N   UNL     1      -5.685  -4.737   2.994  0.00  0.00    -0.312 N 
ATOM     27  H   UNL     1      -5.513  -5.537   2.473  0.00  0.00    +0.149 HD
BRANCH  26  28
ATOM     28  C   UNL     1      -7.050  -4.421   3.422  0.00  0.00    +0.069 C 
ATOM     29  C   UNL     1      -7.280  -4.960   4.837  0.00  0.00    +0.003 C 
ATOM     30  C   UNL     1      -8.731  -4.696   5.247  0.00  0.00    -0.077 C 
ATOM     31  N   UNL     1      -9.638  -5.370   4.311  0.00  0.00    +0.382 N 
ATOM     32  C   UNL     1      -9.473  -4.808   2.965  0.00  0.00    -0.077 C 
ATOM     33  C   UNL     1      -8.051  -5.076   2.467  0.00  0.00    +0.003 C 
ATOM     34  H   UNL     1      -9.427  -6.357   4.290  0.00  0.00    -0.081 HD
BRANCH  31  35
ATOM     35  C   UNL     1     -11.026  -5.179   4.753  0.00  0.00    -0.043 C 
BRANCH  35  36
ATOM     36  C   UNL     1     -11.950  -5.971   3.864  0.00  0.00    -0.064 A 
ATOM     37  C   UNL     1     -12.473  -5.395   2.722  0.00  0.00    +0.002 A 
ATOM     38  C   UNL     1     -13.320  -6.122   1.907  0.00  0.00    +0.000 A 
ATOM     39  C   UNL     1     -13.645  -7.425   2.233  0.00  0.00    +0.000 A 
ATOM     40  C   UNL     1     -13.121  -8.002   3.376  0.00  0.00    +0.000 A 
ATOM     41  C   UNL     1     -12.270  -7.277   4.188  0.00  0.00    +0.002 A 
ENDBRANCH  35  36
ENDBRANCH  31  35
ENDBRANCH  26  28
ENDBRANCH   5  24
TORSDOF 5
