REMARK  Name = ZINC08876817
REMARK  9 active torsions:
REMARK  status: ('A' for Active; 'I' for Inactive)
REMARK    1  A    between atoms: C_1  and  C_2
REMARK    2  A    between atoms: C_4  and  C_33
REMARK    3  A    between atoms: C_9  and  C_18
REMARK    4  A    between atoms: C_12  and  C_14
REMARK    5  A    between atoms: C_14  and  C_16
REMARK    6  A    between atoms: C_14  and  O_17
REMARK    7  A    between atoms: N_20  and  C_21
REMARK    8  A    between atoms: C_26  and  O_27
REMARK    9  A    between atoms: O_27  and  C_28
REMARK                            x       y       z     vdW  Elec       q    Type
REMARK                         _______ _______ _______ _____ _____    ______ ____
ROOT
ATOM      1  C   UNL     1      -1.356  -2.888  -0.505  0.00  0.00    +0.044 C 
ATOM      2  C   UNL     1       0.077  -3.137  -0.899  0.00  0.00    -0.050 A 
ATOM      3  C   UNL     1       0.368  -3.947  -1.981  0.00  0.00    +0.008 A 
ATOM      4  C   UNL     1       1.679  -4.178  -2.346  0.00  0.00    -0.029 A 
ATOM      5  C   UNL     1       2.719  -3.597  -1.625  0.00  0.00    +0.039 A 
ATOM      6  C   UNL     1       2.414  -2.784  -0.538  0.00  0.00    -0.027 A 
ATOM      7  C   UNL     1       1.105  -2.556  -0.177  0.00  0.00    +0.008 A 
ATOM      8  C   UNL     1       3.734  -2.319   0.016  0.00  0.00    +0.049 C 
ATOM      9  C   UNL     1       3.841  -0.787  -0.043  0.00  0.00    +0.076 C 
ATOM     10  C   UNL     1       4.623  -0.446   1.255  0.00  0.00    -0.001 C 
ATOM     11  C   UNL     1       4.082  -1.515   2.239  0.00  0.00    -0.040 C 
ATOM     12  C   UNL     1       4.770  -2.959  -0.872  0.00  0.00    +0.211 C 
ATOM     13  O   UNL     1       5.974  -2.846  -0.775  0.00  0.00    -0.277 OA
ATOM     14  N   UNL     1       4.103  -3.679  -1.793  0.00  0.00    -0.286 N 
ATOM     15  C   UNL     1       1.985  -5.062  -3.527  0.00  0.00    +0.045 C 
ATOM     16  H   UNL     1       4.533  -4.194  -2.493  0.00  0.00    +0.155 HD
ATOM     17  N   UNL     1       3.902  -2.724   1.411  0.00  0.00    +0.395 N 
ATOM     18  H   UNL     1       4.728  -3.327   1.498  0.00  0.00    -0.083 HD
ATOM     19  H   UNL     1       3.070  -3.236   1.725  0.00  0.00    -0.083 HD
ENDROOT
BRANCH   9  20
ATOM     20  C   UNL     1       2.473  -0.155  -0.022  0.00  0.00    +0.220 C 
ATOM     21  O   UNL     1       1.931   0.085   1.036  0.00  0.00    -0.275 OA
ATOM     22  N   UNL     1       1.852   0.145  -1.181  0.00  0.00    -0.282 N 
ATOM     23  H   UNL     1       2.260  -0.099  -2.026  0.00  0.00    +0.155 HD
BRANCH  22  24
ATOM     24  C   UNL     1       0.618   0.808  -1.163  0.00  0.00    +0.077 A 
ATOM     25  C   UNL     1      -0.222   0.685  -0.065  0.00  0.00    +0.047 A 
ATOM     26  C   UNL     1      -1.441   1.337  -0.052  0.00  0.00    +0.043 A 
ATOM     27  C   UNL     1      -1.821   2.122  -1.127  0.00  0.00    +0.024 A 
ATOM     28  C   UNL     1      -0.989   2.248  -2.223  0.00  0.00    +0.049 A 
ATOM     29  C   UNL     1       0.232   1.594  -2.246  0.00  0.00    +0.141 A 
ATOM     30 CL   UNL     1      -2.494   1.177   1.319  0.00  0.00    -0.083 Cl
BRANCH  29  31
ATOM     31  O   UNL     1       1.051   1.718  -3.324  0.00  0.00    -0.493 OA
ATOM     32  C   UNL     1       0.590   2.539  -4.399  0.00  0.00    +0.277 C 
ENDBRANCH  29  31
ENDBRANCH  22  24
ENDBRANCH   9  20
BRANCH  11  33
ATOM     33  C   UNL     1       5.097  -1.774   3.354  0.00  0.00    +0.098 C 
ATOM     34  C   UNL     1       4.599  -2.918   4.241  0.00  0.00    +0.036 C 
BRANCH  33  35
ATOM     35  O   UNL     1       6.356  -2.129   2.780  0.00  0.00    -0.394 OA
ATOM     36  H   UNL     1       6.328  -2.924   2.231  0.00  0.00    +0.210 HD
ENDBRANCH  33  35
ENDBRANCH  11  33
TORSDOF 5
