REMARK  Name = ZINC44464385
REMARK  14 active torsions:
REMARK  status: ('A' for Active; 'I' for Inactive)
REMARK    1  A    between atoms: C_1  and  C_2
REMARK    2  A    between atoms: C_2  and  C_3
REMARK    3  A    between atoms: C_2  and  C_4
REMARK    4  A    between atoms: C_2  and  C_5
REMARK    5  A    between atoms: C_8  and  C_11
REMARK    6  A    between atoms: C_11  and  S_12
REMARK    7  A    between atoms: S_12  and  C_13
REMARK    8  A    between atoms: C_14  and  C_23
REMARK    9  A    between atoms: C_15  and  C_19
REMARK   10  A    between atoms: N_17  and  C_18
REMARK   11  A    between atoms: C_23  and  CA_24
REMARK   12  A    between atoms: CA_24  and  C_26
REMARK   13  A    between atoms: CA_24  and  N_28
REMARK   14  A    between atoms: C_26  and  O_27
REMARK                            x       y       z     vdW  Elec       q    Type
REMARK                         _______ _______ _______ _____ _____    ______ ____
ROOT
ATOM      1  C   UNL     1       3.348  -1.370  -7.451  0.00  0.00    +0.098 A 
ATOM      2  C   UNL     1       4.400  -0.810  -8.110  0.00  0.00    +0.014 A 
ATOM      3  C   UNL     1       4.793  -1.694  -9.118  0.00  0.00    +0.169 A 
ATOM      4  N   UNL     1       4.015  -2.745  -9.075  0.00  0.00    -0.166 NA
ATOM      5  N   UNL     1       3.097  -2.573  -8.030  0.00  0.00    -0.260 N 
ATOM      6  C   UNL     1       2.052  -3.521  -7.636  0.00  0.00    +0.173 C 
ENDROOT
BRANCH   3   7
ATOM      7  C   UNL     1       5.922  -1.475 -10.092  0.00  0.00    +0.436 C 
ATOM      8  F   UNL     1       7.107  -1.990  -9.556  0.00  0.00    -0.164 F 
ATOM      9  F   UNL     1       5.633  -2.126 -11.296  0.00  0.00    -0.164 F 
ATOM     10  F   UNL     1       6.075  -0.104 -10.328  0.00  0.00    -0.164 F 
ENDBRANCH   3   7
BRANCH   1  11
ATOM     11  S   UNL     1       2.476  -0.666  -6.091  0.00  0.00    -0.101 S 
BRANCH  11  12
ATOM     12  C   UNL     1       2.707  -1.868  -4.752  0.00  0.00    +0.111 C 
BRANCH  12  16
ATOM     13  C   UNL     1       0.707  -0.490  -1.238  0.00  0.00    -0.042 A 
ATOM     14  C   UNL     1       0.036  -1.284  -2.148  0.00  0.00    +0.004 A 
ATOM     15  C   UNL     1       0.683  -1.730  -3.286  0.00  0.00    +0.005 A 
ATOM     16  C   UNL     1       2.001  -1.381  -3.513  0.00  0.00    -0.037 A 
ATOM     17  C   UNL     1       2.672  -0.586  -2.603  0.00  0.00    +0.005 A 
ATOM     18  C   UNL     1       2.024  -0.137  -1.467  0.00  0.00    +0.004 A 
BRANCH  13  20
ATOM     19  C   UNL     1      -0.019   1.526   0.010  0.00  0.00    +0.015 C 
ATOM     20  C   UNL     1       0.002  -0.004   0.002  0.00  0.00    -0.013 C 
ATOM     21  C   UNL     1       0.742  -0.511   1.242  0.00  0.00    +0.015 C 
ATOM     22  C   UNL     1      -1.433  -0.534   0.013  0.00  0.00    +0.015 C 
ENDBRANCH  13  20
ENDBRANCH  12  16
ENDBRANCH  11  12
ENDBRANCH   1  11
BRANCH   2  23
ATOM     23  C   UNL     1       5.029   0.525  -7.806  0.00  0.00    +0.026 C 
BRANCH  23  24
ATOM     24  CA  UNL     1       6.155   0.339  -6.788  0.00  0.00    -0.045 C 
BRANCH  24  25
ATOM     25  N   UNL     1       7.227  -0.469  -7.385  0.00  0.00    +0.382 N 
ATOM     26  H1  UNL     1       6.861  -1.371  -7.650  0.00  0.00    -0.090 HD
ATOM     27  H2  UNL     1       7.587   0.002  -8.202  0.00  0.00    -0.090 HD
ATOM     28  H3  UNL     1       7.970  -0.592  -6.713  0.00  0.00    -0.090 HD
ENDBRANCH  24  25
BRANCH  24  29
ATOM     29  C   UNL     1       6.710   1.706  -6.385  0.00  0.00    +0.140 C 
BRANCH  29  30
ATOM     30  O   UNL     1       7.681   1.540  -5.349  0.00  0.00    -0.397 OA
ATOM     31  H   UNL     1       8.076   2.368  -5.044  0.00  0.00    +0.209 HD
ENDBRANCH  29  30
ENDBRANCH  24  29
ENDBRANCH  23  24
ENDBRANCH   2  23
TORSDOF 10
