REMARK  Name = ZINC09223932
REMARK  5 active torsions:
REMARK  status: ('A' for Active; 'I' for Inactive)
REMARK    1  A    between atoms: C_1  and  C_2
REMARK    2  A    between atoms: N_5  and  C_7
REMARK    3  A    between atoms: C_16  and  N_30
REMARK    4  A    between atoms: C_18  and  C_20
REMARK    5  A    between atoms: C_31  and  C_33
REMARK                            x       y       z     vdW  Elec       q    Type
REMARK                         _______ _______ _______ _____ _____    ______ ____
ROOT
ATOM      1  C   UNL     1       1.569   4.711   0.000  0.00  0.00    +0.068 C 
ATOM      2  C   UNL     1       0.690   3.487   0.007  0.00  0.00    +0.066 A 
ATOM      3  C   UNL     1      -0.697   3.483   0.017  0.00  0.00    +0.025 A 
ATOM      4  C   UNL     1      -1.116   2.178   0.018  0.00  0.00    +0.133 A 
ATOM      5  N   UNL     1      -0.017   1.397   0.010  0.00  0.00    -0.218 N 
ATOM      6  N   UNL     1       1.106   2.241   0.004  0.00  0.00    -0.170 NA
ATOM      7  N   UNL     1      -2.469   1.841   0.028  0.00  0.00    -0.268 N 
ATOM      8  C   UNL     1      -3.368   2.822   0.260  0.00  0.00    +0.240 C 
ATOM      9  O   UNL     1      -4.547   2.588   0.099  0.00  0.00    -0.273 OA
ATOM     10  C   UNL     1      -2.951   4.193   0.713  0.00  0.00    +0.171 C 
ATOM     11  C   UNL     1      -1.663   4.640   0.014  0.00  0.00    +0.083 C 
ATOM     12  H   UNL     1      -2.757   0.928  -0.132  0.00  0.00    +0.156 HD
ENDROOT
BRANCH  11  13
ATOM     13  C   UNL     1      -1.968   5.045  -1.405  0.00  0.00    -0.034 A 
ATOM     14  C   UNL     1      -2.534   4.132  -2.276  0.00  0.00    +0.008 A 
ATOM     15  C   UNL     1      -2.819   4.500  -3.577  0.00  0.00    +0.050 A 
ATOM     16  C   UNL     1      -2.527   5.784  -4.016  0.00  0.00    +0.162 A 
ATOM     17  C   UNL     1      -1.956   6.700  -3.141  0.00  0.00    +0.162 A 
ATOM     18  C   UNL     1      -1.676   6.325  -1.835  0.00  0.00    +0.053 A 
ATOM     19  O   UNL     1      -1.669   7.966  -3.549  0.00  0.00    -0.485 OA
ATOM     20  C   UNL     1      -1.618   8.192  -4.962  0.00  0.00    +0.270 C 
ATOM     21  C   UNL     1      -2.846   7.529  -5.599  0.00  0.00    +0.270 C 
ATOM     22  O   UNL     1      -2.803   6.128  -5.303  0.00  0.00    -0.485 OA
ENDBRANCH  11  13
BRANCH   5  23
ATOM     23  C   UNL     1       0.002  -0.004   0.002  0.00  0.00    +0.067 A 
ATOM     24  C   UNL     1      -0.963  -0.717   0.701  0.00  0.00    +0.028 A 
ATOM     25  C   UNL     1      -0.945  -2.098   0.686  0.00  0.00    +0.002 A 
ATOM     26  C   UNL     1       0.040  -2.771  -0.013  0.00  0.00    +0.000 A 
ATOM     27  C   UNL     1       1.006  -2.064  -0.706  0.00  0.00    +0.002 A 
ATOM     28  C   UNL     1       0.989  -0.682  -0.700  0.00  0.00    +0.028 A 
ENDBRANCH   5  23
BRANCH  10  29
ATOM     29  N   UNL     1      -2.730   4.173   2.161  0.00  0.00    -0.299 N 
ATOM     30  C   UNL     1      -3.773   4.311   3.004  0.00  0.00    +0.245 C 
ATOM     31  O   UNL     1      -4.896   4.453   2.562  0.00  0.00    -0.270 OA
ATOM     32  H   UNL     1      -1.834   4.059   2.513  0.00  0.00    +0.150 HD
BRANCH  30  33
ATOM     33  C   UNL     1      -3.550   4.291   4.465  0.00  0.00    +0.037 A 
ATOM     34  C   UNL     1      -2.261   4.122   4.975  0.00  0.00    +0.013 A 
ATOM     35  C   UNL     1      -2.059   4.109   6.340  0.00  0.00    +0.001 A 
ATOM     36  C   UNL     1      -3.132   4.252   7.202  0.00  0.00    +0.000 A 
ATOM     37  C   UNL     1      -4.412   4.414   6.703  0.00  0.00    +0.001 A 
ATOM     38  C   UNL     1      -4.627   4.434   5.341  0.00  0.00    +0.013 A 
ENDBRANCH  30  33
ENDBRANCH  10  29
TORSDOF 4
