REMARK  Name = ZINC39437214
REMARK  12 active torsions:
REMARK  status: ('A' for Active; 'I' for Inactive)
REMARK    1  A    between atoms: C_1  and  C_2
REMARK    2  A    between atoms: C_4  and  C_9
REMARK    3  A    between atoms: C_5  and  C_8
REMARK    4  A    between atoms: C_9  and  C_10
REMARK    5  A    between atoms: C_10  and  N_11
REMARK    6  A    between atoms: N_11  and  C_12
REMARK    7  A    between atoms: N_11  and  C_13
REMARK    8  A    between atoms: C_13  and  C_14
REMARK    9  A    between atoms: N_16  and  C_29
REMARK   10  A    between atoms: C_18  and  C_20
REMARK   11  A    between atoms: C_23  and  O_27
REMARK   12  A    between atoms: O_27  and  C_28
REMARK                            x       y       z     vdW  Elec       q    Type
REMARK                         _______ _______ _______ _____ _____    ______ ____
ROOT
ATOM      1  C   UNL     1      -5.790   2.619  -2.061  0.00  0.00    -0.048 C 
ATOM      2  C   UNL     1      -6.997   2.147  -1.821  0.00  0.00    +0.093 C 
ATOM      3  N   UNL     1      -7.823   2.273  -2.921  0.00  0.00    -0.242 N 
ATOM      4  N   UNL     1      -7.165   2.857  -3.966  0.00  0.00    -0.225 NA
ATOM      5  C   UNL     1      -5.796   3.132  -3.485  0.00  0.00    +0.131 C 
ATOM      6  H   UNL     1      -7.154   2.249  -4.771  0.00  0.00    +0.146 HD
ENDROOT
BRANCH   5   7
ATOM      7  C   UNL     1      -4.787   2.383  -4.319  0.00  0.00    +0.010 A 
ATOM      8  C   UNL     1      -4.288   1.173  -3.876  0.00  0.00    +0.012 A 
ATOM      9  C   UNL     1      -3.364   0.484  -4.637  0.00  0.00    +0.046 A 
ATOM     10  C   UNL     1      -2.935   1.008  -5.849  0.00  0.00    +0.123 A 
ATOM     11  C   UNL     1      -3.436   2.223  -6.293  0.00  0.00    +0.084 A 
ATOM     12  C   UNL     1      -4.366   2.906  -5.530  0.00  0.00    +0.132 A 
ATOM     13  F   UNL     1      -4.860   4.087  -5.964  0.00  0.00    -0.205 F 
BRANCH  10  14
ATOM     14  O   UNL     1      -2.026   0.333  -6.599  0.00  0.00    -0.495 OA
ATOM     15  C   UNL     1      -1.630   0.931  -7.835  0.00  0.00    +0.277 C 
ENDBRANCH  10  14
ENDBRANCH   5   7
BRANCH   3  16
ATOM     16  C   UNL     1      -9.156   1.859  -2.960  0.00  0.00    +0.049 A 
ATOM     17  C   UNL     1      -9.904   2.025  -4.119  0.00  0.00    +0.025 A 
ATOM     18  C   UNL     1     -11.222   1.614  -4.154  0.00  0.00    +0.002 A 
ATOM     19  C   UNL     1     -11.798   1.038  -3.036  0.00  0.00    +0.000 A 
ATOM     20  C   UNL     1     -11.057   0.871  -1.881  0.00  0.00    +0.002 A 
ATOM     21  C   UNL     1      -9.737   1.274  -1.841  0.00  0.00    +0.025 A 
ENDBRANCH   3  16
BRANCH   1  22
ATOM     22  C   UNL     1      -4.630   2.650  -1.100  0.00  0.00    -0.045 C 
BRANCH  22  23
ATOM     23  N   UNL     1      -4.551   3.974  -0.470  0.00  0.00    +0.381 N 
ATOM     24  C   UNL     1      -5.740   4.192   0.364  0.00  0.00    -0.096 C 
ATOM     25  H   UNL     1      -4.507   4.685  -1.185  0.00  0.00    -0.082 HD
BRANCH  23  26
ATOM     26  C   UNL     1      -3.346   4.047   0.367  0.00  0.00    -0.074 C 
BRANCH  26  27
ATOM     27  C   UNL     1      -3.196   5.465   0.924  0.00  0.00    +0.016 C 
BRANCH  27  30
ATOM     28  C   UNL     1      -2.133   3.698   3.477  0.00  0.00    +0.039 C 
ATOM     29  C   UNL     1      -1.818   5.178   3.251  0.00  0.00    +0.153 C 
ATOM     30  C   UNL     1      -1.960   5.539   1.783  0.00  0.00    -0.023 C 
ATOM     31  C   UNL     1      -0.736   5.938   1.430  0.00  0.00    +0.061 C 
ATOM     32  N   UNL     1       0.114   5.865   2.478  0.00  0.00    -0.159 NA
ATOM     33  N   UNL     1      -0.398   5.457   3.528  0.00  0.00    -0.180 NA
ATOM     34  C   UNL     1      -0.353   6.405   0.049  0.00  0.00    +0.067 C 
ENDBRANCH  27  30
ENDBRANCH  26  27
ENDBRANCH  23  26
ENDBRANCH  22  23
ENDBRANCH   1  22
TORSDOF 8
