REMARK  Name = ZINC21036842
REMARK  7 active torsions:
REMARK  status: ('A' for Active; 'I' for Inactive)
REMARK    1  A    between atoms: C_4  and  C_7
REMARK    2  A    between atoms: C_10  and  C_12
REMARK    3  A    between atoms: C_12  and  C_14
REMARK    4  A    between atoms: C_12  and  N_20
REMARK    5  A    between atoms: N_20  and  S_21
REMARK    6  A    between atoms: S_21  and  C_24
REMARK    7  A    between atoms: C_27  and  C_30
REMARK                            x       y       z     vdW  Elec       q    Type
REMARK                         _______ _______ _______ _____ _____    ______ ____
ROOT
ATOM      1  C   UNL     1       3.672   2.182  -0.024  0.00  0.00    +0.194 C 
ENDROOT
BRANCH   1   2
ATOM      2  C   UNL     1       2.377   1.411  -0.015  0.00  0.00    -0.020 A 
ATOM      3  C   UNL     1       1.171   2.086   0.002  0.00  0.00    +0.006 A 
ATOM      4  C   UNL     1      -0.017   1.378   0.010  0.00  0.00    +0.000 A 
ATOM      5  C   UNL     1       0.002  -0.004   0.002  0.00  0.00    +0.000 A 
ATOM      6  C   UNL     1       1.208  -0.679  -0.013  0.00  0.00    +0.000 A 
ATOM      7  C   UNL     1       2.396   0.029  -0.022  0.00  0.00    +0.006 A 
ENDBRANCH   1   2
BRANCH   1  11
ATOM      8  C   UNL     1       4.870   2.834   3.333  0.00  0.00    +0.248 A 
ATOM      9  N   UNL     1       3.933   3.741   3.183  0.00  0.00    -0.107 NA
ATOM     10  N   UNL     1       3.412   3.623   2.012  0.00  0.00    -0.110 NA
ATOM     11  C   UNL     1       3.991   2.644   1.374  0.00  0.00    +0.240 A 
ATOM     12  O   UNL     1       4.920   2.119   2.191  0.00  0.00    -0.418 OA
BRANCH   8  16
ATOM     13  C   UNL     1       7.282   2.249   6.780  0.00  0.00    +0.000 A 
ATOM     14  C   UNL     1       6.330   3.253   6.768  0.00  0.00    +0.001 A 
ATOM     15  C   UNL     1       5.543   3.448   5.651  0.00  0.00    +0.013 A 
ATOM     16  C   UNL     1       5.710   2.631   4.532  0.00  0.00    +0.038 A 
ATOM     17  C   UNL     1       6.669   1.617   4.553  0.00  0.00    +0.013 A 
ATOM     18  C   UNL     1       7.453   1.436   5.674  0.00  0.00    +0.001 A 
ENDBRANCH   8  16
ENDBRANCH   1  11
BRANCH   1  19
ATOM     19  N   UNL     1       3.541   3.345  -0.905  0.00  0.00    -0.173 NA
ATOM     20  H   UNL     1       2.964   4.222  -0.577  0.00  0.00    +0.149 HD
BRANCH  19  21
ATOM     21  S   UNL     1       4.044   3.251  -2.480  0.00  0.00    +0.059 S 
ATOM     22  O   UNL     1       3.764   4.513  -3.072  0.00  0.00    -0.153 OA
ATOM     23  O   UNL     1       5.351   2.695  -2.457  0.00  0.00    -0.153 OA
BRANCH  21  24
ATOM     24  C   UNL     1       3.010   2.075  -3.288  0.00  0.00    +0.105 A 
ATOM     25  C   UNL     1       3.371   0.741  -3.314  0.00  0.00    +0.029 A 
ATOM     26  C   UNL     1       2.557  -0.182  -3.944  0.00  0.00    +0.006 A 
ATOM     27  C   UNL     1       1.389   0.230  -4.557  0.00  0.00    -0.044 A 
ATOM     28  C   UNL     1       1.031   1.565  -4.535  0.00  0.00    +0.006 A 
ATOM     29  C   UNL     1       1.842   2.488  -3.901  0.00  0.00    +0.029 A 
BRANCH  27  30
ATOM     30  C   UNL     1       0.505  -0.776  -5.248  0.00  0.00    +0.019 C 
ATOM     31  C   UNL     1       0.041  -1.827  -4.238  0.00  0.00    +0.008 C 
ATOM     32  C   UNL     1      -0.856  -2.848  -4.940  0.00  0.00    +0.001 C 
ATOM     33  C   UNL     1      -0.071  -3.531  -6.062  0.00  0.00    +0.000 C 
ATOM     34  C   UNL     1       0.392  -2.479  -7.072  0.00  0.00    +0.001 C 
ATOM     35  C   UNL     1       1.290  -1.458  -6.370  0.00  0.00    +0.008 C 
ENDBRANCH  27  30
ENDBRANCH  21  24
ENDBRANCH  19  21
ENDBRANCH   1  19
TORSDOF 7
