REMARK  Name = ZINC39495769
REMARK  11 active torsions:
REMARK  status: ('A' for Active; 'I' for Inactive)
REMARK    1  A    between atoms: C_4  and  O_7
REMARK    2  A    between atoms: O_7  and  S_8
REMARK    3  A    between atoms: S_8  and  C_11
REMARK    4  A    between atoms: C_12  and  C_32
REMARK    5  A    between atoms: C_15  and  C_24
REMARK    6  A    between atoms: C_16  and  C_17
REMARK    7  A    between atoms: C_22  and  O_23
REMARK    8  A    between atoms: C_24  and  C_26
REMARK    9  A    between atoms: C_24  and  N_29
REMARK   10  A    between atoms: C_26  and  C_27
REMARK   11  A    between atoms: C_37  and  O_38
REMARK                            x       y       z     vdW  Elec       q    Type
REMARK                         _______ _______ _______ _____ _____    ______ ____
ROOT
ATOM      1  C   UNL     1       3.382  -2.292   2.662  0.00  0.00    +0.144 A 
ATOM      2  C   UNL     1       2.031  -1.963   2.593  0.00  0.00    +0.015 A 
ATOM      3  C   UNL     1       1.091  -2.949   2.298  0.00  0.00    +0.011 A 
ATOM      4  C   UNL     1       1.497  -4.250   2.075  0.00  0.00    +0.007 A 
ATOM      5  C   UNL     1       2.836  -4.582   2.143  0.00  0.00    -0.017 A 
ATOM      6  C   UNL     1       3.786  -3.603   2.431  0.00  0.00    +0.019 A 
ENDROOT
BRANCH   6   7
ATOM      7  C   UNL     1       5.224  -3.960   2.498  0.00  0.00    +0.026 A 
ATOM      8  C   UNL     1       5.787  -4.376   3.702  0.00  0.00    +0.012 A 
ATOM      9  C   UNL     1       7.125  -4.706   3.759  0.00  0.00    +0.001 A 
ATOM     10  C   UNL     1       7.912  -4.627   2.623  0.00  0.00    +0.004 A 
ATOM     11  C   UNL     1       7.364  -4.215   1.423  0.00  0.00    +0.046 A 
ATOM     12  C   UNL     1       6.020  -3.886   1.351  0.00  0.00    +0.125 A 
BRANCH  12  13
ATOM     13  O   UNL     1       5.479  -3.486   0.170  0.00  0.00    -0.506 OA
ATOM     14  H   UNL     1       5.521  -2.532   0.021  0.00  0.00    +0.292 HD
ENDBRANCH  12  13
ENDBRANCH   6   7
BRANCH   2  15
ATOM     15  C   UNL     1       1.593  -0.566   2.833  0.00  0.00    +0.026 A 
ATOM     16  C   UNL     1       1.039  -0.208   4.060  0.00  0.00    +0.012 A 
ATOM     17  C   UNL     1       0.633   1.093   4.278  0.00  0.00    +0.001 A 
ATOM     18  C   UNL     1       0.774   2.043   3.282  0.00  0.00    +0.004 A 
ATOM     19  C   UNL     1       1.322   1.699   2.062  0.00  0.00    +0.046 A 
ATOM     20  C   UNL     1       1.739   0.397   1.831  0.00  0.00    +0.125 A 
BRANCH  20  21
ATOM     21  O   UNL     1       2.283   0.058   0.633  0.00  0.00    -0.506 OA
ATOM     22  H   UNL     1       1.631  -0.165  -0.046  0.00  0.00    +0.292 HD
ENDBRANCH  20  21
ENDBRANCH   2  15
BRANCH   1  23
ATOM     23  S   UNL     1       4.576  -1.050   3.034  0.00  0.00    +0.152 S 
ATOM     24  O   UNL     1       4.186   0.115   2.320  0.00  0.00    -0.131 OA
ATOM     25  O   UNL     1       5.852  -1.653   2.870  0.00  0.00    -0.131 OA
BRANCH  23  26
ATOM     26  O   UNL     1       4.437  -0.721   4.513  0.00  0.00    -0.342 OA
BRANCH  26  30
ATOM     27  C   UNL     1       6.021  -3.582   7.027  0.00  0.00    +0.000 A 
ATOM     28  C   UNL     1       6.835  -2.593   6.508  0.00  0.00    +0.004 A 
ATOM     29  C   UNL     1       6.307  -1.633   5.666  0.00  0.00    +0.048 A 
ATOM     30  C   UNL     1       4.959  -1.664   5.341  0.00  0.00    +0.157 A 
ATOM     31  C   UNL     1       4.144  -2.658   5.863  0.00  0.00    +0.048 A 
ATOM     32  C   UNL     1       4.677  -3.614   6.705  0.00  0.00    +0.004 A 
ENDBRANCH  26  30
ENDBRANCH  23  26
ENDBRANCH   1  23
BRANCH   5  33
ATOM     33  C   UNL     1       3.271  -6.004   1.899  0.00  0.00    +0.110 C 
BRANCH  33  34
ATOM     34  N   UNL     1       2.214  -6.920   2.334  0.00  0.00    -0.311 N 
ATOM     35  C   UNL     1       2.535  -8.121   2.854  0.00  0.00    +0.326 C 
ATOM     36  O   UNL     1       3.699  -8.443   2.963  0.00  0.00    -0.280 OA
ATOM     37  H   UNL     1       1.283  -6.662   2.247  0.00  0.00    +0.149 HD
ENDBRANCH  33  34
BRANCH  33  38
ATOM     38  C   UNL     1       3.539  -6.207   0.406  0.00  0.00    +0.097 C 
BRANCH  38  39
ATOM     39  C   UNL     1       4.092  -7.590   0.178  0.00  0.00    +0.225 C 
ATOM     40  O   UNL     1       3.551  -8.335  -0.604  0.00  0.00    -0.301 OA
ENDBRANCH  38  39
ENDBRANCH  33  38
ENDBRANCH   5  33
TORSDOF 11
