REMARK  Name = ZINC16779618
REMARK  12 active torsions:
REMARK  status: ('A' for Active; 'I' for Inactive)
REMARK    1  A    between atoms: C_1  and  C_2
REMARK    2  A    between atoms: C_2  and  O_3
REMARK    3  A    between atoms: O_3  and  C_4
REMARK    4  A    between atoms: C_4  and  C_6
REMARK    5  A    between atoms: C_7  and  C_34
REMARK    6  A    between atoms: N_8  and  C_27
REMARK    7  A    between atoms: C_12  and  N_16
REMARK    8  A    between atoms: C_14  and  C_15
REMARK    9  A    between atoms: N_16  and  S_17
REMARK   10  A    between atoms: S_17  and  C_20
REMARK   11  A    between atoms: C_23  and  C_26
REMARK   12  A    between atoms: C_30  and  C_33
REMARK                            x       y       z     vdW  Elec       q    Type
REMARK                         _______ _______ _______ _____ _____    ______ ____
ROOT
ATOM      1  C   UNL     1       0.698   3.512   0.491  0.00  0.00    +0.087 A 
ATOM      2  C   UNL     1       1.065   2.203   0.614  0.00  0.00    +0.036 A 
ATOM      3  N   UNL     1      -0.026   1.408   0.492  0.00  0.00    -0.312 N 
ATOM      4  C   UNL     1      -1.159   2.174   0.278  0.00  0.00    +0.058 A 
ATOM      5  C   UNL     1      -0.761   3.520   0.274  0.00  0.00    +0.017 A 
ATOM      6  C   UNL     1      -1.703   4.527   0.081  0.00  0.00    +0.035 A 
ATOM      7  C   UNL     1      -3.032   4.192  -0.115  0.00  0.00    +0.049 A 
ATOM      8  C   UNL     1      -3.425   2.855  -0.107  0.00  0.00    +0.030 A 
ATOM      9  C   UNL     1      -2.499   1.854   0.088  0.00  0.00    -0.024 A 
ATOM     10  C   UNL     1      -2.938   0.413   0.095  0.00  0.00    +0.046 C 
ATOM     11  C   UNL     1       2.471   1.716   0.848  0.00  0.00    +0.065 C 
ENDROOT
BRANCH   3  12
ATOM     12  C   UNL     1      -0.009   0.010   0.567  0.00  0.00    +0.047 A 
ATOM     13  C   UNL     1      -0.589  -0.637   1.650  0.00  0.00    +0.026 A 
ATOM     14  C   UNL     1      -0.574  -2.016   1.718  0.00  0.00    +0.005 A 
ATOM     15  C   UNL     1       0.027  -2.753   0.714  0.00  0.00    -0.050 A 
ATOM     16  C   UNL     1       0.610  -2.112  -0.364  0.00  0.00    +0.005 A 
ATOM     17  C   UNL     1       0.594  -0.733  -0.440  0.00  0.00    +0.026 A 
ATOM     18  C   UNL     1       0.046  -4.258   0.794  0.00  0.00    +0.044 C 
ENDBRANCH   3  12
BRANCH   1  19
ATOM     19  C   UNL     1       1.581   4.682   0.563  0.00  0.00    +0.342 C 
ATOM     20  O   UNL     1       2.102   5.113  -0.447  0.00  0.00    -0.245 OA
BRANCH  19  21
ATOM     21  O   UNL     1       1.814   5.278   1.750  0.00  0.00    -0.461 OA
BRANCH  21  23
ATOM     22  C   UNL     1       2.842   6.968   3.171  0.00  0.00    +0.048 C 
ATOM     23  C   UNL     1       2.698   6.430   1.746  0.00  0.00    +0.229 C 
ENDBRANCH  21  23
ENDBRANCH  19  21
ENDBRANCH   1  19
BRANCH   7  24
ATOM     24  N   UNL     1      -3.984   5.198  -0.313  0.00  0.00    -0.216 N 
ATOM     25  H   UNL     1      -3.797   5.928  -0.923  0.00  0.00    +0.174 HD
BRANCH  24  26
ATOM     26  S   UNL     1      -5.428   5.142   0.495  0.00  0.00    +0.072 S 
ATOM     27  O   UNL     1      -6.155   6.299   0.107  0.00  0.00    -0.150 OA
ATOM     28  O   UNL     1      -5.940   3.827   0.322  0.00  0.00    -0.150 OA
BRANCH  26  29
ATOM     29  C   UNL     1      -5.073   5.321   2.211  0.00  0.00    +0.109 A 
ATOM     30  C   UNL     1      -4.835   4.203   2.989  0.00  0.00    +0.029 A 
ATOM     31  C   UNL     1      -4.552   4.345   4.334  0.00  0.00    +0.005 A 
ATOM     32  C   UNL     1      -4.515   5.603   4.905  0.00  0.00    -0.050 A 
ATOM     33  C   UNL     1      -4.758   6.721   4.128  0.00  0.00    +0.005 A 
ATOM     34  C   UNL     1      -5.037   6.580   2.782  0.00  0.00    +0.029 A 
ATOM     35  C   UNL     1      -4.211   5.757   6.372  0.00  0.00    +0.044 C 
ENDBRANCH  26  29
ENDBRANCH  24  26
ENDBRANCH   7  24
TORSDOF 7
