REMARK  Name = ZINC39545415
REMARK  5 active torsions:
REMARK  status: ('A' for Active; 'I' for Inactive)
REMARK    1  A    between atoms: C_9  and  C_16
REMARK    2  A    between atoms: N_18  and  C_19
REMARK    3  A    between atoms: N_18  and  C_26
REMARK    4  A    between atoms: C_24  and  O_25
REMARK    5  A    between atoms: C_31  and  O_32
REMARK                            x       y       z     vdW  Elec       q    Type
REMARK                         _______ _______ _______ _____ _____    ______ ____
ROOT
ATOM      1  C   UNL     1       2.692  -5.001   1.365  0.00  0.00    +0.244 C 
ATOM      2  O   UNL     1       2.691  -4.467   2.454  0.00  0.00    -0.273 OA
ATOM      3  N   UNL     1       2.805  -6.341   1.272  0.00  0.00    -0.232 N 
ENDROOT
BRANCH   1  12
ATOM      4  C   UNL     1      -0.017   1.377   0.010  0.00  0.00    +0.000 A 
ATOM      5  C   UNL     1       1.167   2.092   0.002  0.00  0.00    +0.002 A 
ATOM      6  C   UNL     1       2.375   1.422  -0.008  0.00  0.00    +0.023 A 
ATOM      7  C   UNL     1       2.394   0.034  -0.014  0.00  0.00    +0.037 A 
ATOM      8  C   UNL     1       1.208  -0.686  -0.015  0.00  0.00    -0.010 A 
ATOM      9  C   UNL     1       0.002  -0.004   0.002  0.00  0.00    +0.007 A 
ATOM     10  C   UNL     1       1.195  -2.192  -0.048  0.00  0.00    +0.124 C 
ATOM     11  N   UNL     1       2.458  -2.739   0.459  0.00  0.00    -0.369 NA
ATOM     12  C   UNL     1       2.568  -4.167   0.116  0.00  0.00    +0.150 C 
ATOM     13  C   UNL     1       3.857  -4.252  -0.724  0.00  0.00    +0.076 C 
ATOM     14  C   UNL     1       4.342  -2.822  -0.801  0.00  0.00    +0.032 C 
ATOM     15  C   UNL     1       3.522  -2.048  -0.138  0.00  0.00    +0.085 C 
ATOM     16  N   UNL     1       3.622  -0.648  -0.013  0.00  0.00    -0.303 N 
ATOM     17 BR   UNL     1       5.894  -2.243  -1.714  0.00  0.00    -0.052 Br
ATOM     18  H   UNL     1       4.473  -0.191   0.067  0.00  0.00    +0.153 HD
ATOM     19  H   UNL     1       2.500  -2.629   1.461  0.00  0.00    +0.129 HD
ENDBRANCH   1  12
BRANCH   3  20
ATOM     20  C   UNL     1       2.806  -6.958   0.013  0.00  0.00    +0.083 A 
ATOM     21  C   UNL     1       4.002  -7.166  -0.659  0.00  0.00    +0.027 A 
ATOM     22  C   UNL     1       4.001  -7.775  -1.899  0.00  0.00    +0.002 A 
ATOM     23  C   UNL     1       2.810  -8.178  -2.474  0.00  0.00    +0.004 A 
ATOM     24  C   UNL     1       1.614  -7.974  -1.811  0.00  0.00    +0.047 A 
ATOM     25  C   UNL     1       1.607  -7.370  -0.565  0.00  0.00    +0.138 A 
BRANCH  25  26
ATOM     26  O   UNL     1       0.432  -7.174   0.091  0.00  0.00    -0.505 OA
ATOM     27  H   UNL     1       0.008  -6.327  -0.107  0.00  0.00    +0.292 HD
ENDBRANCH  25  26
ENDBRANCH   3  20
BRANCH   3  28
ATOM     28  C   UNL     1       2.921  -7.117   2.433  0.00  0.00    +0.083 A 
ATOM     29  C   UNL     1       1.783  -7.611   3.056  0.00  0.00    +0.027 A 
ATOM     30  C   UNL     1       1.900  -8.377   4.200  0.00  0.00    +0.002 A 
ATOM     31  C   UNL     1       3.148  -8.652   4.728  0.00  0.00    +0.004 A 
ATOM     32  C   UNL     1       4.286  -8.163   4.113  0.00  0.00    +0.047 A 
ATOM     33  C   UNL     1       4.178  -7.400   2.962  0.00  0.00    +0.138 A 
BRANCH  33  34
ATOM     34  O   UNL     1       5.296  -6.923   2.353  0.00  0.00    -0.505 OA
ATOM     35  H   UNL     1       5.576  -6.054   2.671  0.00  0.00    +0.292 HD
ENDBRANCH  33  34
ENDBRANCH   3  28
TORSDOF 5
