REMARK  Name = ZINC11841380
REMARK  7 active torsions:
REMARK  status: ('A' for Active; 'I' for Inactive)
REMARK    1  A    between atoms: C_4  and  C_7
REMARK    2  A    between atoms: C_18  and  C_19
REMARK    3  A    between atoms: C_18  and  N_62
REMARK    4  A    between atoms: C_19  and  C_20
REMARK    5  A    between atoms: N_22  and  C_23
REMARK    6  A    between atoms: C_23  and  C_24
REMARK    7  A    between atoms: C_24  and  C_25
REMARK                            x       y       z     vdW  Elec       q    Type
REMARK                         _______ _______ _______ _____ _____    ______ ____
ROOT
ATOM      1  C   UNL     1       1.629  -1.019   3.248  0.00  0.00    -0.069 C 
ENDROOT
BRANCH   1  12
ATOM      2  C   UNL     1       0.002  -0.004   0.002  0.00  0.00    +0.187 C 
ATOM      3  C   UNL     1       0.139  -0.544   1.409  0.00  0.00    -0.028 C 
ATOM      4  C   UNL     1       1.527   1.224   2.348  0.00  0.00    -0.039 C 
ATOM      5  C   UNL     1       2.025   1.947   1.110  0.00  0.00    -0.022 A 
ATOM      6  C   UNL     1       3.279   2.520   1.098  0.00  0.00    +0.005 A 
ATOM      7  C   UNL     1       3.712   3.196  -0.030  0.00  0.00    +0.000 A 
ATOM      8  C   UNL     1       2.887   3.298  -1.135  0.00  0.00    +0.004 A 
ATOM      9  C   UNL     1       1.634   2.716  -1.125  0.00  0.00    +0.046 A 
ATOM     10  C   UNL     1       1.204   2.027   0.002  0.00  0.00    +0.123 A 
ATOM     11  O   UNL     1      -0.017   1.429   0.010  0.00  0.00    -0.486 OA
ATOM     12  N   UNL     1       1.444  -0.220   2.026  0.00  0.00    +0.385 N 
ATOM     13  H   UNL     1       2.190  -0.453   1.361  0.00  0.00    -0.081 HD
BRANCH   2  17
ATOM     14  C   UNL     1      -3.633  -1.452  -1.712  0.00  0.00    +0.000 A 
ATOM     15  C   UNL     1      -2.449  -2.133  -1.925  0.00  0.00    +0.000 A 
ATOM     16  C   UNL     1      -1.272  -1.664  -1.371  0.00  0.00    +0.007 A 
ATOM     17  C   UNL     1      -1.280  -0.515  -0.603  0.00  0.00    -0.009 A 
ATOM     18  C   UNL     1      -2.465   0.163  -0.385  0.00  0.00    +0.007 A 
ATOM     19  C   UNL     1      -3.640  -0.303  -0.944  0.00  0.00    +0.000 A 
ENDBRANCH   2  17
ENDBRANCH   1  12
BRANCH   1  20
ATOM     20  C   UNL     1       3.064  -0.822   3.743  0.00  0.00    +0.077 C 
BRANCH  20  21
ATOM     21  C   UNL     1       3.289  -1.655   4.977  0.00  0.00    +0.211 C 
ATOM     22  O   UNL     1       2.391  -2.341   5.418  0.00  0.00    -0.276 OA
ATOM     23  N   UNL     1       4.489  -1.640   5.591  0.00  0.00    -0.315 N 
ATOM     24  H   UNL     1       5.207  -1.092   5.239  0.00  0.00    +0.149 HD
BRANCH  23  25
ATOM     25  C   UNL     1       4.707  -2.451   6.792  0.00  0.00    +0.109 C 
BRANCH  25  26
ATOM     26  C   UNL     1       6.142  -2.253   7.286  0.00  0.00    +0.056 C 
BRANCH  26  27
ATOM     27  C   UNL     1       6.367  -3.087   8.521  0.00  0.00    -0.021 A 
ATOM     28  C   UNL     1       6.256  -2.675   9.794  0.00  0.00    +0.087 A 
ATOM     29  N   UNL     1       6.533  -3.710  10.645  0.00  0.00    -0.360 N 
ATOM     30  H   UNL     1       6.516  -3.655  11.613  0.00  0.00    +0.165 HD
ATOM     31  C   UNL     1       6.845  -4.840   9.922  0.00  0.00    +0.047 A 
ATOM     32  C   UNL     1       6.755  -4.499   8.560  0.00  0.00    +0.003 A 
ATOM     33  C   UNL     1       7.021  -5.460   7.582  0.00  0.00    +0.010 A 
ATOM     34  C   UNL     1       7.367  -6.728   7.954  0.00  0.00    +0.001 A 
ATOM     35  C   UNL     1       7.458  -7.069   9.297  0.00  0.00    +0.002 A 
ATOM     36  C   UNL     1       7.200  -6.137  10.278  0.00  0.00    +0.026 A 
ENDBRANCH  26  27
ENDBRANCH  25  26
ENDBRANCH  23  25
ENDBRANCH  20  21
ENDBRANCH   1  20
TORSDOF 7
