REMARK  Name = ZINC10021274
REMARK  8 active torsions:
REMARK  status: ('A' for Active; 'I' for Inactive)
REMARK    1  A    between atoms: C_3  and  N_11
REMARK    2  A    between atoms: C_4  and  N_8
REMARK    3  A    between atoms: C_12  and  C_14
REMARK    4  A    between atoms: C_14  and  O_15
REMARK    5  A    between atoms: O_15  and  C_16
REMARK    6  A    between atoms: C_16  and  C_18
REMARK    7  A    between atoms: N_21  and  C_24
REMARK    8  A    between atoms: C_27  and  C_29
REMARK                            x       y       z     vdW  Elec       q    Type
REMARK                         _______ _______ _______ _____ _____    ______ ____
ROOT
ATOM      1  C   UNL     1      -5.382   3.724   7.884  0.00  0.00    +0.311 C 
ATOM      2  O   UNL     1      -5.961   4.777   7.762  0.00  0.00    -0.251 OA
ENDROOT
BRANCH   1   3
ATOM      3  C   UNL     1      -4.723   3.083   6.690  0.00  0.00    +0.101 C 
ATOM      4  C   UNL     1      -4.934   3.964   5.455  0.00  0.00    +0.033 C 
ATOM      5  C   UNL     1      -4.213   3.338   4.259  0.00  0.00    +0.107 C 
ATOM      6  N   UNL     1      -2.780   3.218   4.557  0.00  0.00    -0.317 N 
ATOM      7  C   UNL     1      -2.550   2.339   5.710  0.00  0.00    +0.107 C 
ATOM      8  C   UNL     1      -3.221   2.935   6.950  0.00  0.00    +0.033 C 
BRANCH   6   9
ATOM      9  C   UNL     1      -2.075   2.776   3.444  0.00  0.00    +0.099 A 
ATOM     10  C   UNL     1      -0.698   2.598   3.527  0.00  0.00    +0.042 A 
ATOM     11  C   UNL     1      -0.009   2.157   2.412  0.00  0.00    +0.017 A 
ATOM     12  C   UNL     1      -0.723   1.907   1.247  0.00  0.00    +0.071 A 
ATOM     13  C   UNL     1      -2.088   2.110   1.234  0.00  0.00    +0.096 A 
ATOM     14  N   UNL     1      -2.799   2.537   2.312  0.00  0.00    -0.349 N 
ATOM     15  H   UNL     1      -3.816   2.672   2.276  0.00  0.00    +0.167 HD
BRANCH  12  16
ATOM     16  C   UNL     1      -0.013   1.425   0.008  0.00  0.00    +0.419 C 
ATOM     17  F   UNL     1       0.023   0.026   0.005  0.00  0.00    -0.166 F 
ATOM     18  F   UNL     1       1.293   1.925  -0.006  0.00  0.00    -0.166 F 
ATOM     19  F   UNL     1      -0.697   1.876  -1.126  0.00  0.00    -0.166 F 
ENDBRANCH  12  16
ENDBRANCH   6   9
ENDBRANCH   1   3
BRANCH   1  20
ATOM     20  O   UNL     1      -5.324   3.124   9.084  0.00  0.00    -0.455 OA
BRANCH  20  21
ATOM     21  C   UNL     1      -5.981   3.799  10.189  0.00  0.00    +0.328 C 
BRANCH  21  23
ATOM     22  N   UNL     1      -6.344   3.418  12.606  0.00  0.00    -0.281 N 
ATOM     23  C   UNL     1      -5.813   2.984  11.446  0.00  0.00    +0.255 C 
ATOM     24  O   UNL     1      -5.200   1.938  11.413  0.00  0.00    -0.272 OA
ATOM     25  H   UNL     1      -6.764   4.291  12.651  0.00  0.00    +0.155 HD
BRANCH  22  28
ATOM     26  C   UNL     1      -6.139   0.433  14.744  0.00  0.00    +0.022 A 
ATOM     27  C   UNL     1      -6.193   1.229  13.617  0.00  0.00    +0.027 A 
ATOM     28  C   UNL     1      -6.289   2.608  13.747  0.00  0.00    +0.064 A 
ATOM     29  C   UNL     1      -6.325   3.183  15.011  0.00  0.00    +0.149 A 
ATOM     30  C   UNL     1      -6.275   2.382  16.134  0.00  0.00    +0.054 A 
ATOM     31  C   UNL     1      -6.179   1.008  16.002  0.00  0.00    +0.043 A 
ATOM     32 CL   UNL     1      -6.111   0.004  17.416  0.00  0.00    -0.083 Cl
BRANCH  29  33
ATOM     33  N   UNL     1      -6.420   4.654  15.153  0.00  0.00    +0.058 N 
ATOM     34  O   UNL     1      -6.361   5.164  16.257  0.00  0.00    -0.126 OA
ATOM     35  O   UNL     1      -6.559   5.353  14.166  0.00  0.00    -0.126 OA
ENDBRANCH  29  33
ENDBRANCH  22  28
ENDBRANCH  21  23
ENDBRANCH  20  21
ENDBRANCH   1  20
TORSDOF 8
