REMARK  Name = ZINC02246629
REMARK  4 active torsions:
REMARK  status: ('A' for Active; 'I' for Inactive)
REMARK    1  A    between atoms: C_1  and  S_2
REMARK    2  A    between atoms: S_2  and  C_3
REMARK    3  A    between atoms: C_9  and  C_18
REMARK    4  A    between atoms: C_25  and  C_29
REMARK                            x       y       z     vdW  Elec       q    Type
REMARK                         _______ _______ _______ _____ _____    ______ ____
ROOT
ATOM      1  C   UNL     1       0.848  -0.411  -1.489  0.00  0.00    +0.196 C 
ATOM      2  N   UNL     1       1.342   0.469  -2.367  0.00  0.00    -0.190 NA
ATOM      3  C   UNL     1       1.913  -0.172  -3.369  0.00  0.00    +0.217 C 
ATOM      4  N   UNL     1       2.552   0.283  -4.505  0.00  0.00    -0.326 N 
ATOM      5  C   UNL     1       3.092  -0.572  -5.456  0.00  0.00    +0.058 C 
ATOM      6  C   UNL     1       3.024  -1.901  -5.310  0.00  0.00    +0.026 C 
ATOM      7  C   UNL     1       3.624  -2.812  -6.343  0.00  0.00    +0.234 C 
ATOM      8  O   UNL     1       3.562  -2.210  -7.637  0.00  0.00    -0.479 OA
ATOM      9  C   UNL     1       3.967  -0.919  -7.746  0.00  0.00    +0.131 A 
ATOM     10  C   UNL     1       3.753  -0.044  -6.671  0.00  0.00    +0.040 A 
ATOM     11  C   UNL     1       4.158   1.282  -6.761  0.00  0.00    +0.013 A 
ATOM     12  C   UNL     1       4.772   1.731  -7.915  0.00  0.00    +0.001 A 
ATOM     13  C   UNL     1       4.983   0.866  -8.975  0.00  0.00    +0.004 A 
ATOM     14  C   UNL     1       4.583  -0.455  -8.893  0.00  0.00    +0.046 A 
ATOM     15  C   UNL     1       2.334  -2.458  -4.087  0.00  0.00    +0.167 C 
ATOM     16  N   UNL     1       1.784  -1.493  -3.129  0.00  0.00    -0.187 N 
ATOM     17  N   UNL     1       1.102  -1.627  -1.915  0.00  0.00    -0.118 NA
ATOM     18  H   UNL     1       2.626   1.240  -4.645  0.00  0.00    +0.169 HD
ENDROOT
BRANCH   7  19
ATOM     19  C   UNL     1       5.064  -3.084  -5.992  0.00  0.00    -0.003 A 
ATOM     20  C   UNL     1       6.036  -2.148  -6.292  0.00  0.00    +0.008 A 
ATOM     21  C   UNL     1       7.357  -2.397  -5.970  0.00  0.00    +0.015 A 
ATOM     22  C   UNL     1       7.706  -3.581  -5.347  0.00  0.00    +0.018 A 
ATOM     23  C   UNL     1       6.733  -4.517  -5.046  0.00  0.00    +0.015 A 
ATOM     24  C   UNL     1       5.411  -4.266  -5.364  0.00  0.00    +0.008 A 
ATOM     25 BR   UNL     1       9.513  -3.922  -4.907  0.00  0.00    -0.050 Br
ENDBRANCH   7  19
BRANCH  15  26
ATOM     26  C   UNL     1       1.205  -3.340  -4.554  0.00  0.00    +0.016 A 
ATOM     27  C   UNL     1       1.161  -4.692  -4.649  0.00  0.00    +0.013 A 
ATOM     28  C   UNL     1       0.005  -5.294  -5.108  0.00  0.00    +0.008 A 
ATOM     29  C   UNL     1      -1.050  -4.516  -5.450  0.00  0.00    +0.045 A 
ATOM     30  S   UNL     1      -0.424  -2.878  -5.118  0.00  0.00    -0.099 S 
ENDBRANCH  15  26
BRANCH   1  32
ATOM     31  C   UNL     1      -0.022   1.810   0.012  0.00  0.00    +0.093 C 
ATOM     32  S   UNL     1       0.002  -0.004   0.002  0.00  0.00    -0.091 S 
ENDBRANCH   1  32
TORSDOF 3
