REMARK  Name = ZINC08489102
REMARK  6 active torsions:
REMARK  status: ('A' for Active; 'I' for Inactive)
REMARK    1  A    between atoms: C_1  and  C_2
REMARK    2  A    between atoms: C_8  and  C_9
REMARK    3  A    between atoms: C_8  and  N_58
REMARK    4  A    between atoms: C_10  and  O_32
REMARK    5  A    between atoms: C_17  and  C_18
REMARK    6  A    between atoms: C_27  and  C_29
REMARK                            x       y       z     vdW  Elec       q    Type
REMARK                         _______ _______ _______ _____ _____    ______ ____
ROOT
ATOM      1  C   UNL     1       7.997   0.439  -1.688  0.00  0.00    +0.020 A 
ATOM      2  C   UNL     1       9.323   0.275  -2.056  0.00  0.00    +0.122 A 
ATOM      3  C   UNL     1      10.198   1.357  -2.052  0.00  0.00    +0.046 A 
ATOM      4  C   UNL     1       9.757   2.597  -1.684  0.00  0.00    +0.019 A 
ATOM      5  C   UNL     1       8.425   2.777  -1.310  0.00  0.00    +0.068 A 
ATOM      6  C   UNL     1       7.534   1.692  -1.310  0.00  0.00    +0.144 A 
ATOM      7  O   UNL     1       6.320   2.125  -0.908  0.00  0.00    -0.451 OA
ATOM      8  C   UNL     1       6.331   3.452  -0.641  0.00  0.00    +0.176 C 
ATOM      9  C   UNL     1       5.263   4.190  -0.218  0.00  0.00    +0.057 C 
ATOM     10  C   UNL     1       7.644   3.946  -0.871  0.00  0.00    +0.231 C 
ATOM     11  O   UNL     1       8.039   5.092  -0.733  0.00  0.00    -0.283 OA
ENDROOT
BRANCH   9  12
ATOM     12  C   UNL     1       4.044   3.555   0.082  0.00  0.00    -0.003 C 
ATOM     13  C   UNL     1       4.024   2.453   0.883  0.00  0.00    +0.019 C 
ATOM     14  C   UNL     1       2.725   1.819   1.146  0.00  0.00    +0.017 A 
ATOM     15  C   UNL     1       2.554   0.913   2.194  0.00  0.00    +0.011 A 
ATOM     16  C   UNL     1       1.316   0.344   2.404  0.00  0.00    +0.001 A 
ATOM     17  C   UNL     1       0.246   0.671   1.586  0.00  0.00    +0.004 A 
ATOM     18  C   UNL     1       0.405   1.562   0.540  0.00  0.00    +0.046 A 
ATOM     19  C   UNL     1       1.639   2.144   0.313  0.00  0.00    +0.128 A 
ATOM     20  O   UNL     1       1.826   3.025  -0.701  0.00  0.00    -0.484 OA
ATOM     21  C   UNL     1       2.753   4.089  -0.482  0.00  0.00    +0.201 C 
ATOM     22  C   UNL     1       3.034   4.790  -1.813  0.00  0.00    +0.057 C 
ENDBRANCH   9  12
BRANCH   2  23
ATOM     23  O   UNL     1       9.773  -0.952  -2.424  0.00  0.00    -0.506 OA
ATOM     24  H   UNL     1      10.045  -1.510  -1.683  0.00  0.00    +0.292 HD
ENDBRANCH   2  23
BRANCH   1  25
ATOM     25  C   UNL     1       7.060  -0.741  -1.696  0.00  0.00    -0.035 C 
BRANCH  25  32
ATOM     26  C   UNL     1       4.704   0.579  -2.485  0.00  0.00    -0.013 C 
ATOM     27  C   UNL     1       5.789   0.238  -3.509  0.00  0.00    -0.071 C 
ATOM     28  C   UNL     1       5.138  -0.060  -4.862  0.00  0.00    -0.016 C 
ATOM     29  C   UNL     1       6.226  -0.420  -5.878  0.00  0.00    -0.003 C 
ATOM     30  C   UNL     1       7.021  -1.620  -5.357  0.00  0.00    -0.019 C 
ATOM     31  C   UNL     1       7.617  -1.278  -3.990  0.00  0.00    -0.078 C 
ATOM     32  N   UNL     1       6.518  -0.964  -3.053  0.00  0.00    +0.384 N 
ATOM     33  H   UNL     1       5.867  -1.758  -3.025  0.00  0.00    -0.081 HD
ENDBRANCH  25  32
ENDBRANCH   1  25
TORSDOF 4
