REMARK  Name = ZINC59155015
REMARK  11 active torsions:
REMARK  status: ('A' for Active; 'I' for Inactive)
REMARK    1  A    between atoms: C_1  and  C_2
REMARK    2  A    between atoms: C_3  and  C_19
REMARK    3  A    between atoms: C_4  and  C_18
REMARK    4  A    between atoms: N_5  and  C_7
REMARK    5  A    between atoms: C_10  and  N_15
REMARK    6  A    between atoms: C_12  and  O_13
REMARK    7  A    between atoms: O_13  and  C_14
REMARK    8  A    between atoms: N_20  and  N_21
REMARK    9  A    between atoms: C_22  and  C_24
REMARK   10  A    between atoms: C_24  and  C_25
REMARK   11  A    between atoms: C_25  and  C_26
REMARK                            x       y       z     vdW  Elec       q    Type
REMARK                         _______ _______ _______ _____ _____    ______ ____
ROOT
ATOM      1  C   UNL     1      -0.325   1.480   0.053  0.00  0.00    +0.068 C 
ATOM      2  C   UNL     1      -0.131  -0.014   0.021  0.00  0.00    +0.069 A 
ATOM      3  C   UNL     1      -0.143  -0.828  -1.135  0.00  0.00    +0.038 A 
ATOM      4  C   UNL     1       0.071  -2.128  -0.722  0.00  0.00    +0.051 A 
ATOM      5  N   UNL     1       0.206  -2.106   0.620  0.00  0.00    -0.233 N 
ATOM      6  N   UNL     1       0.082  -0.782   1.055  0.00  0.00    -0.171 NA
ATOM      7  C   UNL     1       0.140  -3.346  -1.606  0.00  0.00    +0.066 C 
ENDROOT
BRANCH   5   8
ATOM      8  C   UNL     1       0.438  -3.220   1.439  0.00  0.00    +0.107 A 
ATOM      9  C   UNL     1       1.428  -4.133   1.108  0.00  0.00    +0.034 A 
ATOM     10  C   UNL     1       1.654  -5.231   1.917  0.00  0.00    +0.035 A 
ATOM     11  C   UNL     1       0.895  -5.422   3.057  0.00  0.00    +0.130 A 
ATOM     12  C   UNL     1      -0.094  -4.517   3.394  0.00  0.00    +0.080 A 
ATOM     13  C   UNL     1      -0.323  -3.410   2.591  0.00  0.00    +0.148 A 
BRANCH  11  14
ATOM     14  N   UNL     1       1.142  -6.600   3.919  0.00  0.00    +0.057 N 
ATOM     15  O   UNL     1       2.006  -7.393   3.626  0.00  0.00    -0.126 OA
ATOM     16  O   UNL     1       0.479  -6.769   4.916  0.00  0.00    -0.126 OA
ENDBRANCH  11  14
BRANCH  13  17
ATOM     17  O   UNL     1      -1.291  -2.516   2.923  0.00  0.00    -0.493 OA
ATOM     18  C   UNL     1      -2.031  -2.776   4.118  0.00  0.00    +0.277 C 
ENDBRANCH  13  17
ENDBRANCH   5   8
BRANCH   3  19
ATOM     19  C   UNL     1      -0.346  -0.374  -2.520  0.00  0.00    +0.146 C 
ATOM     20  N   UNL     1      -0.538   0.892  -2.771  0.00  0.00    -0.153 NA
BRANCH  20  21
ATOM     21  N   UNL     1      -0.731   1.324  -4.089  0.00  0.00    -0.105 NA
ATOM     22  C   UNL     1      -0.923   2.587  -4.339  0.00  0.00    +0.340 C 
ATOM     23  O   UNL     1      -0.937   3.481  -3.326  0.00  0.00    -0.262 OA
BRANCH  22  24
ATOM     24  C   UNL     1      -1.131   3.052  -5.757  0.00  0.00    +0.398 C 
ATOM     25  F   UNL     1      -0.199   4.049  -6.062  0.00  0.00    -0.188 F 
ATOM     26  F   UNL     1      -0.963   1.973  -6.631  0.00  0.00    -0.188 F 
BRANCH  24  27
ATOM     27  C   UNL     1      -2.546   3.614  -5.907  0.00  0.00    +0.412 C 
ATOM     28  F   UNL     1      -3.479   2.617  -5.602  0.00  0.00    -0.189 F 
ATOM     29  F   UNL     1      -2.715   4.694  -5.034  0.00  0.00    -0.189 F 
BRANCH  27  30
ATOM     30  C   UNL     1      -2.757   4.086  -7.348  0.00  0.00    +0.461 C 
ATOM     31  F   UNL     1      -2.589   3.006  -8.221  0.00  0.00    -0.165 F 
ATOM     32  F   UNL     1      -4.051   4.600  -7.485  0.00  0.00    -0.165 F 
ATOM     33  F   UNL     1      -1.825   5.083  -7.653  0.00  0.00    -0.165 F 
ENDBRANCH  27  30
ENDBRANCH  24  27
ENDBRANCH  22  24
ENDBRANCH  20  21
ENDBRANCH   3  19
TORSDOF 8
