REMARK  Name = ZINC32988104
REMARK  11 active torsions:
REMARK  status: ('A' for Active; 'I' for Inactive)
REMARK    1  A    between atoms: C_1  and  C_2
REMARK    2  A    between atoms: C_2  and  C_3
REMARK    3  A    between atoms: C_2  and  C_4
REMARK    4  A    between atoms: C_7  and  N_10
REMARK    5  A    between atoms: N_10  and  C_11
REMARK    6  A    between atoms: N_10  and  S_26
REMARK    7  A    between atoms: C_11  and  C_12
REMARK    8  A    between atoms: N_14  and  C_15
REMARK    9  A    between atoms: N_19  and  C_20
REMARK   10  A    between atoms: C_20  and  C_21
REMARK   11  A    between atoms: S_26  and  C_29
REMARK                            x       y       z     vdW  Elec       q    Type
REMARK                         _______ _______ _______ _____ _____    ______ ____
ROOT
ATOM      1  N   UNL     1       1.111  -2.367   0.013  0.00  0.00    -0.194 N 
ENDROOT
BRANCH   1   5
ATOM      2  C   UNL     1       0.549   1.686   0.785  0.00  0.00    -0.045 A 
ATOM      3  C   UNL     1      -0.545   0.851   0.652  0.00  0.00    +0.006 A 
ATOM      4  C   UNL     1      -0.362  -0.494   0.395  0.00  0.00    +0.025 A 
ATOM      5  C   UNL     1       0.923  -1.008   0.272  0.00  0.00    +0.052 A 
ATOM      6  C   UNL     1       2.020  -0.166   0.407  0.00  0.00    +0.025 A 
ATOM      7  C   UNL     1       1.830   1.178   0.663  0.00  0.00    +0.006 A 
BRANCH   2   9
ATOM      8  C   UNL     1       1.018   3.517   2.391  0.00  0.00    +0.012 C 
ATOM      9  C   UNL     1       0.346   3.152   1.065  0.00  0.00    +0.013 C 
ATOM     10  C   UNL     1       0.966   3.978  -0.064  0.00  0.00    +0.012 C 
ENDBRANCH   2   9
ENDBRANCH   1   5
BRANCH   1  11
ATOM     11  S   UNL     1       2.486  -2.881  -0.754  0.00  0.00    +0.075 S 
ATOM     12  O   UNL     1       2.162  -4.111  -1.388  0.00  0.00    -0.150 OA
ATOM     13  O   UNL     1       2.993  -1.764  -1.471  0.00  0.00    -0.150 OA
BRANCH  11  14
ATOM     14  C   UNL     1       3.670  -3.256   0.496  0.00  0.00    +0.109 A 
ATOM     15  C   UNL     1       4.625  -2.320   0.847  0.00  0.00    +0.029 A 
ATOM     16  C   UNL     1       5.551  -2.612   1.831  0.00  0.00    +0.002 A 
ATOM     17  C   UNL     1       5.528  -3.845   2.457  0.00  0.00    +0.000 A 
ATOM     18  C   UNL     1       4.577  -4.783   2.102  0.00  0.00    +0.002 A 
ATOM     19  C   UNL     1       3.647  -4.488   1.122  0.00  0.00    +0.029 A 
ENDBRANCH  11  14
ENDBRANCH   1  11
BRANCH   1  20
ATOM     20  C   UNL     1       0.092  -3.338   0.419  0.00  0.00    +0.227 C 
BRANCH  20  21
ATOM     21  C   UNL     1      -0.968  -3.430  -0.648  0.00  0.00    +0.237 C 
ATOM     22  O   UNL     1      -0.882  -2.751  -1.649  0.00  0.00    -0.274 OA
ATOM     23  N   UNL     1      -2.013  -4.266  -0.489  0.00  0.00    -0.269 N 
ATOM     24  H   UNL     1      -2.092  -4.882   0.419  0.00  0.00    +0.156 HD
BRANCH  23  25
ATOM     25  C   UNL     1      -2.995  -4.351  -1.476  0.00  0.00    +0.124 A 
ATOM     26  C   UNL     1      -3.027  -3.647  -2.641  0.00  0.00    +0.065 A 
ATOM     27  C   UNL     1      -4.173  -4.033  -3.342  0.00  0.00    +0.136 A 
ATOM     28  N   UNL     1      -4.811  -4.925  -2.628  0.00  0.00    -0.178 NA
ATOM     29  N   UNL     1      -4.090  -5.144  -1.448  0.00  0.00    -0.243 N 
BRANCH  29  30
ATOM     30  C   UNL     1      -4.458  -6.068  -0.372  0.00  0.00    +0.219 C 
BRANCH  30  31
ATOM     31  C   UNL     1      -5.316  -5.349   0.637  0.00  0.00    +0.126 A 
ATOM     32  C   UNL     1      -6.658  -5.259   0.606  0.00  0.00    +0.046 A 
ATOM     33  C   UNL     1      -7.044  -4.504   1.737  0.00  0.00    +0.041 A 
ATOM     34  C   UNL     1      -5.914  -4.170   2.387  0.00  0.00    +0.195 A 
ATOM     35  O   UNL     1      -4.871  -4.685   1.716  0.00  0.00    -0.466 OA
ENDBRANCH  30  31
ENDBRANCH  29  30
ENDBRANCH  23  25
ENDBRANCH  20  21
ENDBRANCH   1  20
TORSDOF 9
