REMARK  Name = ZINC14750972
REMARK  8 active torsions:
REMARK  status: ('A' for Active; 'I' for Inactive)
REMARK    1  A    between atoms: C_1  and  C_2
REMARK    2  A    between atoms: N_5  and  C_11
REMARK    3  A    between atoms: C_7  and  C_10
REMARK    4  A    between atoms: N_14  and  C_17
REMARK    5  A    between atoms: C_23  and  C_33
REMARK    6  A    between atoms: N_25  and  C_26
REMARK    7  A    between atoms: C_26  and  C_27
REMARK    8  A    between atoms: N_35  and  C_36
REMARK                            x       y       z     vdW  Elec       q    Type
REMARK                         _______ _______ _______ _____ _____    ______ ____
ROOT
ATOM      1  C   UNL     1      -6.023  -4.871  -1.442  0.00  0.00    -0.064 C 
ATOM      2  C   UNL     1      -6.682  -4.360  -2.726  0.00  0.00    -0.009 C 
ATOM      3  C   UNL     1      -8.152  -4.798  -2.761  0.00  0.00    +0.054 C 
ATOM      4  C   UNL     1      -8.213  -6.276  -2.476  0.00  0.00    +0.043 A 
ATOM      5  C   UNL     1      -7.196  -6.982  -1.924  0.00  0.00    +0.004 A 
ATOM      6  C   UNL     1      -7.651  -8.308  -1.831  0.00  0.00    +0.150 A 
ATOM      7  N   UNL     1      -8.881  -8.320  -2.317  0.00  0.00    -0.166 NA
ATOM      8  N   UNL     1      -9.220  -7.137  -2.696  0.00  0.00    -0.267 N 
ATOM      9  C   UNL     1      -5.872  -6.396  -1.515  0.00  0.00    +0.024 C 
ENDROOT
BRANCH   1  13
ATOM     10  C   UNL     1      -2.690  -2.750   0.155  0.00  0.00    +0.053 C 
ATOM     11  C   UNL     1      -3.473  -2.150  -1.016  0.00  0.00    +0.000 C 
ATOM     12  C   UNL     1      -4.853  -2.809  -1.091  0.00  0.00    -0.077 C 
ATOM     13  N   UNL     1      -4.698  -4.255  -1.293  0.00  0.00    +0.382 N 
ATOM     14  C   UNL     1      -4.011  -4.848  -0.139  0.00  0.00    -0.077 C 
ATOM     15  C   UNL     1      -2.599  -4.268  -0.028  0.00  0.00    +0.000 C 
ATOM     16  H   UNL     1      -4.156  -4.421  -2.127  0.00  0.00    -0.081 HD
BRANCH  10  20
ATOM     17  C   UNL     1      -0.002   1.350   0.591  0.00  0.00    +0.039 C 
ATOM     18  C   UNL     1       0.037  -0.157   0.329  0.00  0.00    +0.130 C 
ATOM     19  C   UNL     1      -1.387  -0.719   0.362  0.00  0.00    +0.116 C 
ATOM     20  N   UNL     1      -1.338  -2.177   0.187  0.00  0.00    -0.295 NA
ATOM     21  C   UNL     1      -0.526  -2.801   1.242  0.00  0.00    +0.116 C 
ATOM     22  C   UNL     1       0.890  -2.219   1.200  0.00  0.00    +0.130 C 
ATOM     23  O   UNL     1       0.820  -0.798   1.340  0.00  0.00    -0.371 OA
ATOM     24  C   UNL     1       1.717  -2.806   2.345  0.00  0.00    +0.039 C 
ENDBRANCH  10  20
ENDBRANCH   1  13
BRANCH   6  25
ATOM     25  C   UNL     1      -6.902  -9.463  -1.296  0.00  0.00    +0.264 C 
ATOM     26  O   UNL     1      -5.771  -9.313  -0.878  0.00  0.00    -0.268 OA
ATOM     27  N   UNL     1      -7.474 -10.684  -1.270  0.00  0.00    -0.313 N 
ATOM     28  C   UNL     1      -6.731 -11.829  -0.739  0.00  0.00    +0.128 C 
ATOM     29  H   UNL     1      -8.377 -10.803  -1.603  0.00  0.00    +0.149 HD
ENDBRANCH   6  25
BRANCH   8  30
ATOM     30  C   UNL     1     -10.515  -6.782  -3.282  0.00  0.00    +0.147 C 
BRANCH  30  31
ATOM     31  C   UNL     1     -10.445  -6.932  -4.803  0.00  0.00    +0.010 C 
ATOM     32  C   UNL     1      -9.451  -5.915  -5.370  0.00  0.00    +0.005 C 
ATOM     33  C   UNL     1      -9.381  -6.065  -6.891  0.00  0.00    +0.000 C 
ATOM     34  C   UNL     1     -10.765  -5.816  -7.493  0.00  0.00    +0.000 C 
ATOM     35  C   UNL     1     -11.758  -6.832  -6.926  0.00  0.00    +0.000 C 
ATOM     36  C   UNL     1     -11.829  -6.682  -5.405  0.00  0.00    +0.005 C 
ENDBRANCH  30  31
ENDBRANCH   8  30
TORSDOF 5
