REMARK  Name = ZINC09348356
REMARK  7 active torsions:
REMARK  status: ('A' for Active; 'I' for Inactive)
REMARK    1  A    between atoms: C_1  and  C_2
REMARK    2  A    between atoms: C_2  and  C_36
REMARK    3  A    between atoms: C_7  and  C_35
REMARK    4  A    between atoms: C_10  and  N_11
REMARK    5  A    between atoms: C_10  and  N_67
REMARK    6  A    between atoms: N_19  and  N_20
REMARK    7  A    between atoms: C_21  and  C_23
REMARK                            x       y       z     vdW  Elec       q    Type
REMARK                         _______ _______ _______ _____ _____    ______ ____
ROOT
ATOM      1  N   UNL     1      -4.151  -0.693  -0.025  0.00  0.00    -0.282 N 
ATOM      2  C   UNL     1      -5.079   0.313   0.217  0.00  0.00    +0.044 A 
ATOM      3  C   UNL     1      -6.441   0.267   0.495  0.00  0.00    +0.024 A 
ATOM      4  C   UNL     1      -7.147   1.435   0.699  0.00  0.00    +0.002 A 
ATOM      5  C   UNL     1      -6.512   2.664   0.630  0.00  0.00    +0.001 A 
ATOM      6  C   UNL     1      -5.161   2.730   0.356  0.00  0.00    +0.012 A 
ATOM      7  C   UNL     1      -4.440   1.558   0.155  0.00  0.00    +0.028 A 
ATOM      8  C   UNL     1      -3.018   1.283  -0.158  0.00  0.00    +0.153 C 
ATOM      9  N   UNL     1      -2.051   2.155  -0.313  0.00  0.00    -0.174 NA
ATOM     10  C   UNL     1      -2.926  -0.188  -0.251  0.00  0.00    +0.270 C 
ATOM     11  O   UNL     1      -1.920  -0.829  -0.490  0.00  0.00    -0.268 OA
ENDROOT
BRANCH   9  12
ATOM     12  N   UNL     1      -0.752   1.717  -0.602  0.00  0.00    -0.201 N 
ATOM     13  C   UNL     1       0.240   2.613  -0.767  0.00  0.00    +0.282 C 
ATOM     14  O   UNL     1       0.010   3.801  -0.659  0.00  0.00    -0.267 OA
ATOM     15  H   UNL     1      -0.569   0.768  -0.688  0.00  0.00    +0.178 HD
BRANCH  13  16
ATOM     16  C   UNL     1       1.612   2.150  -1.079  0.00  0.00    +0.128 A 
ATOM     17  C   UNL     1       2.633   3.098  -1.253  0.00  0.00    +0.034 A 
ATOM     18  C   UNL     1       3.902   2.684  -1.536  0.00  0.00    +0.012 A 
ATOM     19  C   UNL     1       4.141   1.302  -1.656  0.00  0.00    +0.000 A 
ATOM     20  C   UNL     1       5.421   0.806  -1.952  0.00  0.00    +0.010 A 
ATOM     21  C   UNL     1       5.615  -0.537  -2.059  0.00  0.00    +0.001 A 
ATOM     22  C   UNL     1       4.559  -1.430  -1.881  0.00  0.00    +0.002 A 
ATOM     23  C   UNL     1       3.306  -0.987  -1.594  0.00  0.00    +0.028 A 
ATOM     24  C   UNL     1       3.064   0.395  -1.473  0.00  0.00    +0.072 A 
ATOM     25  N   UNL     1       1.846   0.857  -1.193  0.00  0.00    -0.242 NA
ENDBRANCH  13  16
ENDBRANCH   9  12
BRANCH   1  26
ATOM     26  C   UNL     1      -4.468  -2.123  -0.031  0.00  0.00    +0.039 C 
BRANCH  26  37
ATOM     27  C   UNL     1      -2.899  -6.855   0.720  0.00  0.00    +0.011 C 
ATOM     28  C   UNL     1      -3.022  -5.312   0.816  0.00  0.00    -0.036 C 
ATOM     29  C   UNL     1      -4.471  -4.963   0.561  0.00  0.00    -0.009 C 
ATOM     30  C   UNL     1      -5.109  -3.957   1.503  0.00  0.00    -0.065 C 
ATOM     31  C   UNL     1      -4.680  -4.340   2.948  0.00  0.00    -0.011 C 
ATOM     32  C   UNL     1      -3.206  -3.852   2.914  0.00  0.00    -0.048 C 
ATOM     33  C   UNL     1      -2.409  -4.899   2.138  0.00  0.00    +0.011 C 
ATOM     34  C   UNL     1      -3.267  -2.562   2.061  0.00  0.00    -0.070 C 
ATOM     35  C   UNL     1      -2.642  -3.595   4.319  0.00  0.00    +0.009 C 
ATOM     36  C   UNL     1      -2.159  -4.748  -0.330  0.00  0.00    +0.011 C 
ATOM     37  N   UNL     1      -4.569  -2.583   1.395  0.00  0.00    +0.393 N 
ATOM     38  H   UNL     1      -5.202  -1.943   1.889  0.00  0.00    -0.079 HD
ENDBRANCH  26  37
ENDBRANCH   1  26
TORSDOF 4
