REMARK  Name = ZINC02772643
REMARK  4 active torsions:
REMARK  status: ('A' for Active; 'I' for Inactive)
REMARK    1  A    between atoms: C_7  and  C_20
REMARK    2  A    between atoms: C_9  and  C_11
REMARK    3  A    between atoms: N_22  and  C_23
REMARK    4  A    between atoms: C_24  and  C_34
REMARK                            x       y       z     vdW  Elec       q    Type
REMARK                         _______ _______ _______ _____ _____    ______ ____
ROOT
ATOM      1  C   UNL     1      -3.934   0.632   4.587  0.00  0.00    +0.249 C 
ATOM      2  O   UNL     1      -3.705  -0.342   3.897  0.00  0.00    -0.270 OA
ATOM      3  N   UNL     1      -3.297   1.795   4.345  0.00  0.00    -0.275 N 
ATOM      4  H   UNL     1      -3.479   2.572   4.896  0.00  0.00    +0.156 HD
ENDROOT
BRANCH   3   5
ATOM      5  C   UNL     1      -2.381   1.880   3.309  0.00  0.00    +0.085 A 
ATOM      6  C   UNL     1      -1.640   2.971   2.905  0.00  0.00    +0.068 A 
ATOM      7  C   UNL     1      -0.708   2.803   1.783  0.00  0.00    -0.023 A 
ATOM      8  C   UNL     1      -0.749   1.585   1.219  0.00  0.00    -0.004 A 
ATOM      9  S   UNL     1      -1.890   0.645   2.200  0.00  0.00    -0.077 S 
ATOM     10  C   UNL     1      -0.013   1.085   0.007  0.00  0.00    +0.043 C 
ATOM     11  C   UNL     1      -0.788   1.591  -1.223  0.00  0.00    +0.005 C 
ATOM     12  C   UNL     1      -0.953   3.111  -1.094  0.00  0.00    +0.000 C 
ATOM     13  C   UNL     1       0.454   3.670  -1.098  0.00  0.00    +0.000 C 
ATOM     14  C   UNL     1       1.141   3.629   0.257  0.00  0.00    +0.005 C 
ATOM     15  C   UNL     1       0.198   3.975   1.402  0.00  0.00    +0.037 C 
BRANCH   6  16
ATOM     16  C   UNL     1      -1.774   4.264   3.583  0.00  0.00    +0.244 C 
ATOM     17  O   UNL     1      -2.592   5.075   3.190  0.00  0.00    -0.270 OA
ATOM     18  N   UNL     1      -0.992   4.555   4.641  0.00  0.00    -0.325 N 
ATOM     19  H   UNL     1      -0.340   3.908   4.955  0.00  0.00    +0.145 HD
ATOM     20  H   UNL     1      -1.081   5.410   5.090  0.00  0.00    +0.145 HD
ENDBRANCH   6  16
ENDBRANCH   3   5
BRANCH   1  27
ATOM     21  C   UNL     1      -6.332  -2.895   5.317  0.00  0.00    +0.001 A 
ATOM     22  C   UNL     1      -7.238  -2.926   6.375  0.00  0.00    +0.002 A 
ATOM     23  C   UNL     1      -7.392  -1.855   7.200  0.00  0.00    +0.028 A 
ATOM     24  C   UNL     1      -6.626  -0.695   6.987  0.00  0.00    +0.072 A 
ATOM     25  C   UNL     1      -5.705  -0.669   5.909  0.00  0.00    +0.013 A 
ATOM     26  C   UNL     1      -5.573  -1.788   5.080  0.00  0.00    +0.011 A 
ATOM     27  C   UNL     1      -4.912   0.541   5.693  0.00  0.00    +0.048 A 
ATOM     28  C   UNL     1      -5.109   1.598   6.570  0.00  0.00    +0.042 A 
ATOM     29  C   UNL     1      -6.051   1.470   7.602  0.00  0.00    +0.073 A 
ATOM     30  N   UNL     1      -6.755   0.371   7.779  0.00  0.00    -0.247 NA
BRANCH  29  31
ATOM     31  C   UNL     1      -6.257   2.608   8.528  0.00  0.00    +0.004 A 
ATOM     32  C   UNL     1      -5.604   3.819   8.303  0.00  0.00    +0.014 A 
ATOM     33  C   UNL     1      -5.796   4.878   9.165  0.00  0.00    +0.050 A 
ATOM     34  C   UNL     1      -6.640   4.743  10.258  0.00  0.00    +0.166 A 
ATOM     35  C   UNL     1      -7.296   3.534  10.489  0.00  0.00    +0.167 A 
ATOM     36  C   UNL     1      -7.109   2.472   9.624  0.00  0.00    +0.059 A 
ATOM     37  O   UNL     1      -8.057   3.659  11.615  0.00  0.00    -0.453 OA
ATOM     38  C   UNL     1      -8.180   5.076  11.840  0.00  0.00    +0.466 C 
ATOM     39  O   UNL     1      -6.991   5.623  11.241  0.00  0.00    -0.453 OA
ENDBRANCH  29  31
ENDBRANCH   1  27
TORSDOF 4
