REMARK  Name = ZINC21463457
REMARK  9 active torsions:
REMARK  status: ('A' for Active; 'I' for Inactive)
REMARK    1  A    between atoms: C_1  and  C_2
REMARK    2  A    between atoms: C_2  and  C_4
REMARK    3  A    between atoms: C_2  and  N_14
REMARK    4  A    between atoms: C_15  and  C_17
REMARK    5  A    between atoms: C_17  and  S_18
REMARK    6  A    between atoms: S_18  and  C_19
REMARK    7  A    between atoms: N_29  and  C_30
REMARK    8  A    between atoms: C_30  and  C_31
REMARK    9  A    between atoms: C_30  and  C_32
REMARK                            x       y       z     vdW  Elec       q    Type
REMARK                         _______ _______ _______ _____ _____    ______ ____
ROOT
ATOM      1  N   UNL     1      -1.372  -0.511   0.012  0.00  0.00    -0.312 N 
ATOM      2  C   UNL     1      -2.029  -0.655   1.181  0.00  0.00    +0.224 C 
ATOM      3  O   UNL     1      -1.481  -0.365   2.224  0.00  0.00    -0.275 OA
ATOM      4  H   UNL     1      -1.810  -0.743  -0.822  0.00  0.00    +0.149 HD
ENDROOT
BRANCH   1   6
ATOM      5  C   UNL     1      -0.019   1.526   0.010  0.00  0.00    +0.028 C 
ATOM      6  C   UNL     1       0.002  -0.004   0.002  0.00  0.00    +0.076 C 
BRANCH   6   7
ATOM      7  C   UNL     1       0.718  -0.497  -1.257  0.00  0.00    -0.010 C 
ATOM      8  C   UNL     1      -0.022   0.009  -2.496  0.00  0.00    +0.012 C 
ATOM      9  C   UNL     1       0.694  -0.484  -3.755  0.00  0.00    -0.010 C 
ATOM     10  C   UNL     1       2.130   0.045  -3.766  0.00  0.00    +0.007 C 
ATOM     11  C   UNL     1       2.870  -0.461  -2.526  0.00  0.00    -0.010 C 
ATOM     12  C   UNL     1       2.154   0.032  -1.268  0.00  0.00    +0.012 C 
ATOM     13  C   UNL     1       2.890  -1.991  -2.535  0.00  0.00    +0.007 C 
ATOM     14  C   UNL     1       1.455  -2.521  -2.524  0.00  0.00    -0.010 C 
ATOM     15  C   UNL     1       0.715  -2.014  -3.764  0.00  0.00    +0.007 C 
ATOM     16  C   UNL     1       0.739  -2.027  -1.265  0.00  0.00    +0.012 C 
ENDBRANCH   6   7
ENDBRANCH   1   6
BRANCH   2  17
ATOM     17  C   UNL     1      -3.442  -1.177   1.191  0.00  0.00    +0.173 C 
BRANCH  17  18
ATOM     18  S   UNL     1      -4.045  -1.255   2.901  0.00  0.00    -0.078 S 
BRANCH  18  19
ATOM     19  C   UNL     1      -5.687  -1.875   2.746  0.00  0.00    +0.173 A 
ATOM     20  N   UNL     1      -6.141  -2.150   1.547  0.00  0.00    -0.223 NA
ATOM     21  C   UNL     1      -7.387  -2.627   1.355  0.00  0.00    +0.079 A 
ATOM     22  C   UNL     1      -7.870  -2.920   0.077  0.00  0.00    +0.028 A 
ATOM     23  C   UNL     1      -9.140  -3.402  -0.071  0.00  0.00    +0.002 A 
ATOM     24  C   UNL     1      -9.961  -3.606   1.031  0.00  0.00    +0.001 A 
ATOM     25  C   UNL     1      -9.516  -3.329   2.294  0.00  0.00    +0.015 A 
ATOM     26  C   UNL     1      -8.225  -2.836   2.475  0.00  0.00    +0.065 A 
ATOM     27  C   UNL     1      -7.694  -2.521   3.808  0.00  0.00    +0.263 A 
ATOM     28  O   UNL     1      -8.366  -2.681   4.809  0.00  0.00    -0.267 OA
ATOM     29  N   UNL     1      -6.426  -2.053   3.881  0.00  0.00    -0.285 N 
BRANCH  29  30
ATOM     30  C   UNL     1      -5.844  -1.728   5.185  0.00  0.00    +0.087 C 
ATOM     31  C   UNL     1      -6.686  -0.646   5.864  0.00  0.00    +0.031 C 
ATOM     32  C   UNL     1      -5.823  -2.983   6.061  0.00  0.00    +0.031 C 
ENDBRANCH  29  30
ENDBRANCH  18  19
ENDBRANCH  17  18
ENDBRANCH   2  17
TORSDOF 6
