REMARK  Name = ZINC12146735
REMARK  6 active torsions:
REMARK  status: ('A' for Active; 'I' for Inactive)
REMARK    1  A    between atoms: C_4  and  C_7
REMARK    2  A    between atoms: C_12  and  N_13
REMARK    3  A    between atoms: C_14  and  C_16
REMARK    4  A    between atoms: C_16  and  N_17
REMARK    5  A    between atoms: C_20  and  N_29
REMARK    6  A    between atoms: C_22  and  C_24
REMARK                            x       y       z     vdW  Elec       q    Type
REMARK                         _______ _______ _______ _____ _____    ______ ____
ROOT
ATOM      1  N   UNL     1      -1.722   9.916  -1.597  0.00  0.00    -0.283 N 
ATOM      2  C   UNL     1      -0.833   8.930  -1.364  0.00  0.00    +0.239 C 
ATOM      3  O   UNL     1      -0.321   8.343  -2.294  0.00  0.00    -0.273 OA
ATOM      4  H   UNL     1      -2.191  10.330  -0.856  0.00  0.00    +0.155 HD
ENDROOT
BRANCH   1  10
ATOM      5  C   UNL     1      -3.190  10.938  -3.232  0.00  0.00    +0.003 A 
ATOM      6  C   UNL     1      -3.423  11.364  -4.537  0.00  0.00    +0.010 A 
ATOM      7  C   UNL     1      -2.454  11.183  -5.504  0.00  0.00    +0.001 A 
ATOM      8  C   UNL     1      -1.248  10.586  -5.180  0.00  0.00    +0.002 A 
ATOM      9  C   UNL     1      -1.003  10.165  -3.887  0.00  0.00    +0.024 A 
ATOM     10  C   UNL     1      -1.968  10.340  -2.905  0.00  0.00    +0.041 A 
BRANCH   5  14
ATOM     11  C   UNL     1      -6.173  11.470  -0.249  0.00  0.00    +0.000 A 
ATOM     12  C   UNL     1      -5.804  12.534  -1.052  0.00  0.00    +0.001 A 
ATOM     13  C   UNL     1      -4.837  12.368  -2.022  0.00  0.00    +0.008 A 
ATOM     14  C   UNL     1      -4.231  11.124  -2.191  0.00  0.00    -0.016 A 
ATOM     15  C   UNL     1      -4.610  10.054  -1.383  0.00  0.00    +0.008 A 
ATOM     16  C   UNL     1      -5.574  10.234  -0.412  0.00  0.00    +0.001 A 
ENDBRANCH   5  14
ENDBRANCH   1  10
BRANCH   2  17
ATOM     17  C   UNL     1      -0.476   8.556   0.052  0.00  0.00    +0.243 C 
BRANCH  17  18
ATOM     18  N   UNL     1       0.503   7.466   0.037  0.00  0.00    -0.218 N 
ATOM     19  C   UNL     1       1.821   7.748   0.016  0.00  0.00    +0.288 A 
ATOM     20  O   UNL     1       2.201   8.908   0.010  0.00  0.00    -0.264 OA
ATOM     21  C   UNL     1       2.763   6.687   0.002  0.00  0.00    +0.094 A 
ATOM     22  C   UNL     1       2.315   5.399   0.009  0.00  0.00    +0.058 A 
ATOM     23  C   UNL     1       0.927   5.142   0.031  0.00  0.00    +0.100 A 
ATOM     24  N   UNL     1       0.064   6.137   0.038  0.00  0.00    -0.167 NA
BRANCH  23  25
ATOM     25  C   UNL     1       0.438   3.748   0.039  0.00  0.00    +0.039 A 
ATOM     26  C   UNL     1      -0.851   3.285   0.058  0.00  0.00    +0.018 A 
ATOM     27  C   UNL     1      -1.066   1.924   0.057  0.00  0.00    +0.008 A 
ATOM     28  C   UNL     1       0.002   1.086   0.046  0.00  0.00    +0.046 A 
ATOM     29  S   UNL     1       1.374   2.228   0.025  0.00  0.00    -0.095 S 
ENDBRANCH  23  25
BRANCH  21  30
ATOM     30  N   UNL     1       4.131   6.959  -0.019  0.00  0.00    -0.354 N 
ATOM     31  H   UNL     1       4.770   6.229  -0.029  0.00  0.00    +0.142 HD
ATOM     32  H   UNL     1       4.443   7.877  -0.024  0.00  0.00    +0.142 HD
ENDBRANCH  21  30
ENDBRANCH  17  18
ENDBRANCH   2  17
TORSDOF 6
