REMARK  Name = ZINC46637196
REMARK  7 active torsions:
REMARK  status: ('A' for Active; 'I' for Inactive)
REMARK    1  A    between atoms: C_1  and  C_2
REMARK    2  A    between atoms: C_2  and  N_3
REMARK    3  A    between atoms: C_4  and  C_6
REMARK    4  A    between atoms: C_9  and  C_12
REMARK    5  A    between atoms: C_12  and  N_13
REMARK    6  A    between atoms: C_14  and  C_16
REMARK    7  A    between atoms: C_16  and  N_17
REMARK                            x       y       z     vdW  Elec       q    Type
REMARK                         _______ _______ _______ _____ _____    ______ ____
ROOT
ATOM      1  N   UNL     1       4.951  -3.806  -5.880  0.00  0.00    -0.310 N 
ATOM      2  C   UNL     1       5.785  -4.232  -6.849  0.00  0.00    +0.231 C 
ATOM      3  O   UNL     1       5.353  -4.490  -7.952  0.00  0.00    -0.274 OA
ATOM      4  H   UNL     1       5.297  -3.599  -4.998  0.00  0.00    +0.149 HD
ENDROOT
BRANCH   1   5
ATOM      5  C   UNL     1       3.521  -3.655  -6.159  0.00  0.00    +0.139 C 
BRANCH   5   9
ATOM      6  C   UNL     1       1.519  -2.275  -2.641  0.00  0.00    +0.037 A 
ATOM      7  C   UNL     1       2.034  -1.359  -3.559  0.00  0.00    +0.013 A 
ATOM      8  C   UNL     1       2.679  -1.810  -4.692  0.00  0.00    +0.006 A 
ATOM      9  C   UNL     1       2.816  -3.168  -4.920  0.00  0.00    -0.030 A 
ATOM     10  C   UNL     1       2.306  -4.082  -4.014  0.00  0.00    +0.006 A 
ATOM     11  C   UNL     1       1.665  -3.644  -2.874  0.00  0.00    +0.013 A 
BRANCH   6  13
ATOM     12  N   UNL     1       0.688  -0.476  -1.203  0.00  0.00    -0.312 N 
ATOM     13  C   UNL     1       0.827  -1.799  -1.425  0.00  0.00    +0.244 C 
ATOM     14  O   UNL     1       0.383  -2.599  -0.625  0.00  0.00    -0.270 OA
ATOM     15  H   UNL     1       1.042   0.162  -1.842  0.00  0.00    +0.149 HD
BRANCH  12  17
ATOM     16  C   UNL     1      -0.019   1.526   0.010  0.00  0.00    +0.024 C 
ATOM     17  C   UNL     1       0.002  -0.004   0.002  0.00  0.00    +0.101 C 
ENDBRANCH  12  17
ENDBRANCH   6  13
ENDBRANCH   5   9
ENDBRANCH   1   5
BRANCH   2  18
ATOM     18  C   UNL     1       7.257  -4.387  -6.561  0.00  0.00    +0.213 C 
BRANCH  18  19
ATOM     19  N   UNL     1       7.942  -4.860  -7.767  0.00  0.00    -0.215 N 
ATOM     20  C   UNL     1       8.120  -6.162  -8.078  0.00  0.00    +0.247 C 
ATOM     21  O   UNL     1       7.757  -7.127  -7.440  0.00  0.00    -0.273 OA
ATOM     22  C   UNL     1       8.864  -6.159  -9.389  0.00  0.00    +0.113 C 
ATOM     23  C   UNL     1       8.059  -6.874 -10.482  0.00  0.00    +0.035 C 
ATOM     24  C   UNL     1       9.140  -7.572 -11.348  0.00  0.00    +0.003 C 
ATOM     25  C   UNL     1      10.182  -8.029 -10.296  0.00  0.00    +0.003 C 
ATOM     26  C   UNL     1      10.210  -6.879  -9.265  0.00  0.00    +0.035 C 
ATOM     27  N   UNL     1       9.044  -4.741  -9.705  0.00  0.00    -0.285 N 
ATOM     28  C   UNL     1       8.466  -4.054  -8.700  0.00  0.00    +0.310 C 
ATOM     29  O   UNL     1       8.428  -2.841  -8.644  0.00  0.00    -0.252 OA
ATOM     30  H   UNL     1       9.488  -4.370 -10.484  0.00  0.00    +0.151 HD
ENDBRANCH  18  19
ENDBRANCH   2  18
TORSDOF 6
