REMARK  Name = ZINC38653355
REMARK  9 active torsions:
REMARK  status: ('A' for Active; 'I' for Inactive)
REMARK    1  A    between atoms: C_1  and  C_2
REMARK    2  A    between atoms: C_5  and  C_8
REMARK    3  A    between atoms: C_8  and  C_10
REMARK    4  A    between atoms: C_8  and  C_24
REMARK    5  A    between atoms: C_12  and  O_23
REMARK    6  A    between atoms: N_14  and  C_20
REMARK    7  A    between atoms: C_20  and  C_21
REMARK    8  A    between atoms: N_29  and  C_32
REMARK    9  A    between atoms: C_32  and  C_33
REMARK                            x       y       z     vdW  Elec       q    Type
REMARK                         _______ _______ _______ _____ _____    ______ ____
ROOT
ATOM      1  C   UNL     1       0.059  -4.275  -0.021  0.00  0.00    +0.076 C 
ENDROOT
BRANCH   1   2
ATOM      2  C   UNL     1      -0.985  -5.160   0.609  0.00  0.00    +0.089 A 
ATOM      3  C   UNL     1      -0.721  -5.820   1.773  0.00  0.00    +0.260 A 
ATOM      4  N   UNL     1      -1.686  -6.620   2.329  0.00  0.00    -0.302 N 
ATOM      5  C   UNL     1      -2.885  -6.756   1.734  0.00  0.00    +0.164 A 
ATOM      6  S   UNL     1      -4.072  -7.761   2.450  0.00  0.00    -0.013 S 
ATOM      7  N   UNL     1      -3.165  -6.114   0.586  0.00  0.00    -0.284 N 
ATOM      8  C   UNL     1      -2.247  -5.314   0.008  0.00  0.00    +0.262 A 
ATOM      9  O   UNL     1      -2.507  -4.730  -1.030  0.00  0.00    -0.267 OA
ATOM     10  O   UNL     1       0.481  -5.686   2.373  0.00  0.00    -0.267 OA
ATOM     11  H   UNL     1      -1.502  -7.091   3.157  0.00  0.00    +0.171 HD
BRANCH   7  12
ATOM     12  C   UNL     1      -4.479  -6.281  -0.039  0.00  0.00    +0.154 C 
BRANCH  12  13
ATOM     13  C   UNL     1      -5.423  -5.231   0.486  0.00  0.00    -0.013 C 
ATOM     14  C   UNL     1      -6.055  -4.442  -0.347  0.00  0.00    +0.005 C 
ENDBRANCH  12  13
ENDBRANCH   7  12
ENDBRANCH   1   2
BRANCH   1  15
ATOM     15  C   UNL     1       1.362  -5.061  -0.188  0.00  0.00    +0.134 C 
ATOM     16  C   UNL     1       2.352  -4.240  -1.017  0.00  0.00    +0.217 C 
ATOM     17  N   UNL     1       1.929  -4.233  -2.418  0.00  0.00    -0.282 N 
ATOM     18  C   UNL     1       1.358  -5.315  -2.972  0.00  0.00    +0.141 C 
ATOM     19  S   UNL     1       1.013  -5.312  -4.649  0.00  0.00    -0.018 S 
ATOM     20  N   UNL     1       1.050  -6.400  -2.242  0.00  0.00    -0.267 N 
ATOM     21  C   UNL     1       1.078  -6.362  -0.896  0.00  0.00    +0.227 C 
ATOM     22  O   UNL     1       0.877  -7.371  -0.255  0.00  0.00    -0.275 OA
ATOM     23  H   UNL     1       0.803  -7.224  -2.691  0.00  0.00    +0.157 HD
BRANCH  16  24
ATOM     24  O   UNL     1       2.389  -2.900  -0.524  0.00  0.00    -0.373 OA
ATOM     25  H   UNL     1       2.998  -2.321  -1.004  0.00  0.00    +0.212 HD
ENDBRANCH  16  24
BRANCH  17  26
ATOM     26  C   UNL     1       2.130  -3.029  -3.227  0.00  0.00    +0.136 C 
BRANCH  26  27
ATOM     27  C   UNL     1       3.480  -3.091  -3.894  0.00  0.00    -0.016 C 
ATOM     28  C   UNL     1       3.574  -2.969  -5.195  0.00  0.00    +0.005 C 
ENDBRANCH  26  27
ENDBRANCH  17  26
ENDBRANCH   1  15
BRANCH   1  33
ATOM     29  C   UNL     1       0.994   0.311   3.368  0.00  0.00    +0.044 C 
ATOM     30  C   UNL     1       0.750  -0.885   2.484  0.00  0.00    -0.050 A 
ATOM     31  C   UNL     1      -0.035  -0.760   1.353  0.00  0.00    +0.003 A 
ATOM     32  C   UNL     1      -0.258  -1.857   0.542  0.00  0.00    +0.004 A 
ATOM     33  C   UNL     1       0.304  -3.079   0.862  0.00  0.00    -0.039 A 
ATOM     34  C   UNL     1       1.089  -3.204   1.992  0.00  0.00    +0.004 A 
ATOM     35  C   UNL     1       1.316  -2.106   2.801  0.00  0.00    +0.003 A 
ENDBRANCH   1  33
TORSDOF 8
