REMARK  Name = ZINC02763235
REMARK  9 active torsions:
REMARK  status: ('A' for Active; 'I' for Inactive)
REMARK    1  A    between atoms: C_1  and  C_2
REMARK    2  A    between atoms: C_2  and  O_3
REMARK    3  A    between atoms: O_3  and  C_4
REMARK    4  A    between atoms: C_9  and  C_10
REMARK    5  A    between atoms: C_10  and  N_11
REMARK    6  A    between atoms: C_12  and  C_14
REMARK    7  A    between atoms: C_17  and  C_19
REMARK    8  A    between atoms: C_19  and  N_20
REMARK    9  A    between atoms: C_21  and  C_29
REMARK                            x       y       z     vdW  Elec       q    Type
REMARK                         _______ _______ _______ _____ _____    ______ ____
ROOT
ATOM      1  C   UNL     1       1.072   1.906   0.002  0.00  0.00    +0.190 A 
ATOM      2  C   UNL     1      -0.013   1.076   0.008  0.00  0.00    +0.055 A 
ATOM      3  C   UNL     1      -1.150   1.898   0.017  0.00  0.00    +0.047 A 
ATOM      4  C   UNL     1      -0.716   3.178   0.026  0.00  0.00    +0.127 A 
ATOM      5  O   UNL     1       0.624   3.178   0.013  0.00  0.00    -0.453 OA
ENDROOT
BRANCH   1   7
ATOM      6  N   UNL     1       3.456   2.413  -0.018  0.00  0.00    -0.305 N 
ATOM      7  C   UNL     1       2.477   1.487  -0.014  0.00  0.00    +0.280 C 
ATOM      8  O   UNL     1       2.760   0.303  -0.024  0.00  0.00    -0.267 OA
ATOM      9  H   UNL     1       3.231   3.357  -0.011  0.00  0.00    +0.149 HD
BRANCH   6  10
ATOM     10  C   UNL     1       4.860   1.995  -0.035  0.00  0.00    +0.143 C 
BRANCH  10  16
ATOM     11  C   UNL     1       5.999   3.890   1.148  0.00  0.00    +0.125 A 
ATOM     12  C   UNL     1       6.816   5.012   1.143  0.00  0.00    +0.046 A 
ATOM     13  C   UNL     1       7.378   5.450  -0.040  0.00  0.00    +0.004 A 
ATOM     14  C   UNL     1       7.125   4.774  -1.220  0.00  0.00    +0.001 A 
ATOM     15  C   UNL     1       6.315   3.653  -1.216  0.00  0.00    +0.009 A 
ATOM     16  C   UNL     1       5.747   3.213  -0.036  0.00  0.00    +0.011 A 
BRANCH  11  17
ATOM     17  O   UNL     1       5.446   3.456   2.311  0.00  0.00    -0.492 OA
BRANCH  17  19
ATOM     18  C   UNL     1       5.042   3.568   4.691  0.00  0.00    +0.048 C 
ATOM     19  C   UNL     1       5.748   4.203   3.491  0.00  0.00    +0.225 C 
ENDBRANCH  17  19
ENDBRANCH  11  17
ENDBRANCH  10  16
ENDBRANCH   6  10
ENDBRANCH   1   7
BRANCH   4  20
ATOM     20  C   UNL     1      -1.593   4.403   0.041  0.00  0.00    +0.218 C 
BRANCH  20  21
ATOM     21  N   UNL     1      -1.865   4.792   1.427  0.00  0.00    -0.258 N 
ATOM     22  C   UNL     1      -2.903   4.371   2.181  0.00  0.00    +0.057 A 
ATOM     23  C   UNL     1      -2.793   4.956   3.397  0.00  0.00    +0.112 A 
ATOM     24  C   UNL     1      -1.654   5.769   3.382  0.00  0.00    +0.254 A 
ATOM     25  N   UNL     1      -1.098   5.671   2.202  0.00  0.00    -0.144 NA
ATOM     26  N   UNL     1      -1.164   6.597   4.507  0.00  0.00    +0.078 N 
ATOM     27  O   UNL     1      -0.155   7.266   4.375  0.00  0.00    -0.125 OA
ATOM     28  O   UNL     1      -1.769   6.608   5.564  0.00  0.00    -0.125 OA
ATOM     29 CL   UNL     1      -3.878   4.742   4.736  0.00  0.00    -0.078 Cl
ATOM     30  C   UNL     1      -3.987   3.418   1.749  0.00  0.00    +0.067 C 
ENDBRANCH  20  21
ENDBRANCH   4  20
TORSDOF 7
