REMARK  Name = ZINC59145637
REMARK  8 active torsions:
REMARK  status: ('A' for Active; 'I' for Inactive)
REMARK    1  A    between atoms: C_1  and  C_2
REMARK    2  A    between atoms: C_2  and  O_3
REMARK    3  A    between atoms: O_3  and  C_4
REMARK    4  A    between atoms: C_4  and  C_6
REMARK    5  A    between atoms: C_10  and  N_11
REMARK    6  A    between atoms: N_13  and  C_27
REMARK    7  A    between atoms: C_17  and  C_18
REMARK    8  A    between atoms: C_23  and  O_24
REMARK                            x       y       z     vdW  Elec       q    Type
REMARK                         _______ _______ _______ _____ _____    ______ ____
ROOT
ATOM      1  N   UNL     1       4.299  -1.962   2.142  0.00  0.00    -0.217 NA
ATOM      2  C   UNL     1       4.748  -0.803   1.698  0.00  0.00    +0.169 C 
ATOM      3  N   UNL     1       4.628   0.439   2.276  0.00  0.00    -0.249 N 
ATOM      4  C   UNL     1       5.141   1.508   1.692  0.00  0.00    +0.259 C 
ATOM      5  O   UNL     1       5.043   2.615   2.191  0.00  0.00    -0.269 OA
ATOM      6  C   UNL     1       5.840   1.300   0.410  0.00  0.00    +0.078 C 
ATOM      7  C   UNL     1       6.453   2.205  -0.395  0.00  0.00    +0.032 C 
ATOM      8  S   UNL     1       5.667  -0.467   0.205  0.00  0.00    -0.049 S 
ATOM      9  C   UNL     1       3.921   0.579   3.552  0.00  0.00    +0.140 C 
ENDROOT
BRANCH   1  14
ATOM     10  C   UNL     1       2.131  -1.933   3.345  0.00  0.00    +0.095 A 
ATOM     11  C   UNL     1       1.548  -2.014   4.675  0.00  0.00    -0.021 A 
ATOM     12  C   UNL     1       2.414  -2.150   5.702  0.00  0.00    -0.004 A 
ATOM     13  S   UNL     1       4.019  -2.175   4.951  0.00  0.00    -0.073 S 
ATOM     14  C   UNL     1       3.527  -2.007   3.245  0.00  0.00    +0.118 A 
ATOM     15  C   UNL     1       2.083  -2.255   7.159  0.00  0.00    +0.043 C 
ATOM     16  C   UNL     1       0.626  -1.813   7.359  0.00  0.00    +0.005 C 
ATOM     17  C   UNL     1      -0.248  -2.518   6.317  0.00  0.00    +0.005 C 
ATOM     18  C   UNL     1       0.044  -1.953   4.927  0.00  0.00    +0.037 C 
BRANCH  10  19
ATOM     19  C   UNL     1       1.317  -1.789   2.193  0.00  0.00    +0.342 C 
ATOM     20  O   UNL     1       0.906  -2.776   1.612  0.00  0.00    -0.245 OA
BRANCH  19  21
ATOM     21  O   UNL     1       0.999  -0.558   1.741  0.00  0.00    -0.461 OA
BRANCH  21  23
ATOM     22  C   UNL     1      -0.077   0.978   0.216  0.00  0.00    +0.048 C 
ATOM     23  C   UNL     1       0.175  -0.488   0.575  0.00  0.00    +0.229 C 
ENDBRANCH  21  23
ENDBRANCH  19  21
ENDBRANCH  10  19
ENDBRANCH   1  14
BRANCH   7  24
ATOM     24  C   UNL     1       7.234   1.749  -1.551  0.00  0.00    +0.019 A 
ATOM     25  C   UNL     1       7.672   0.421  -1.626  0.00  0.00    +0.031 A 
ATOM     26  C   UNL     1       8.404   0.001  -2.716  0.00  0.00    +0.042 A 
ATOM     27  C   UNL     1       8.710   0.887  -3.737  0.00  0.00    +0.023 A 
ATOM     28  C   UNL     1       8.284   2.200  -3.676  0.00  0.00    +0.047 A 
ATOM     29  C   UNL     1       7.542   2.641  -2.592  0.00  0.00    +0.124 A 
ATOM     30 CL   UNL     1       8.947  -1.645  -2.809  0.00  0.00    -0.084 Cl
BRANCH  29  31
ATOM     31  O   UNL     1       7.119   3.929  -2.534  0.00  0.00    -0.506 OA
ATOM     32  H   UNL     1       7.743   4.529  -2.102  0.00  0.00    +0.292 HD
ENDBRANCH  29  31
ENDBRANCH   7  24
TORSDOF 6
