REMARK  Name = ZINC09969664
REMARK  11 active torsions:
REMARK  status: ('A' for Active; 'I' for Inactive)
REMARK    1  A    between atoms: C_1  and  C_2
REMARK    2  A    between atoms: C_5  and  N_9
REMARK    3  A    between atoms: C_7  and  C_8
REMARK    4  A    between atoms: N_9  and  C_10
REMARK    5  A    between atoms: N_9  and  S_28
REMARK    6  A    between atoms: C_10  and  C_11
REMARK    7  A    between atoms: N_13  and  C_14
REMARK    8  A    between atoms: C_14  and  C_15
REMARK    9  A    between atoms: C_15  and  C_16
REMARK   10  A    between atoms: C_16  and  C_17
REMARK   11  A    between atoms: S_28  and  C_31
REMARK                            x       y       z     vdW  Elec       q    Type
REMARK                         _______ _______ _______ _____ _____    ______ ____
ROOT
ATOM      1  N   UNL     1      -2.490  -2.712   0.002  0.00  0.00    -0.194 N 
ENDROOT
BRANCH   1   6
ATOM      2  C   UNL     1      -5.184  -3.329   4.953  0.00  0.00    +0.044 C 
ATOM      3  C   UNL     1      -4.468  -3.166   3.637  0.00  0.00    -0.047 A 
ATOM      4  C   UNL     1      -4.774  -3.999   2.577  0.00  0.00    +0.005 A 
ATOM      5  C   UNL     1      -4.123  -3.848   1.368  0.00  0.00    +0.025 A 
ATOM      6  C   UNL     1      -3.153  -2.864   1.221  0.00  0.00    +0.052 A 
ATOM      7  C   UNL     1      -2.849  -2.029   2.288  0.00  0.00    +0.028 A 
ATOM      8  C   UNL     1      -3.507  -2.182   3.493  0.00  0.00    -0.046 A 
ATOM      9  C   UNL     1      -3.177  -1.276   4.651  0.00  0.00    +0.044 C 
ENDBRANCH   1   6
BRANCH   1  10
ATOM     10  S   UNL     1      -3.354  -2.419  -1.380  0.00  0.00    +0.075 S 
ATOM     11  O   UNL     1      -4.636  -1.963  -0.969  0.00  0.00    -0.150 OA
ATOM     12  O   UNL     1      -2.511  -1.655  -2.232  0.00  0.00    -0.150 OA
BRANCH  10  13
ATOM     13  C   UNL     1      -3.603  -3.970  -2.178  0.00  0.00    +0.109 A 
ATOM     14  C   UNL     1      -2.626  -4.484  -3.010  0.00  0.00    +0.029 A 
ATOM     15  C   UNL     1      -2.820  -5.703  -3.632  0.00  0.00    +0.002 A 
ATOM     16  C   UNL     1      -3.994  -6.404  -3.430  0.00  0.00    +0.000 A 
ATOM     17  C   UNL     1      -4.973  -5.887  -2.602  0.00  0.00    +0.002 A 
ATOM     18  C   UNL     1      -4.777  -4.671  -1.976  0.00  0.00    +0.029 A 
ENDBRANCH  10  13
ENDBRANCH   1  10
BRANCH   1  19
ATOM     19  C   UNL     1      -1.029  -2.812  -0.055  0.00  0.00    +0.227 C 
BRANCH  19  20
ATOM     20  C   UNL     1      -0.421  -1.474   0.278  0.00  0.00    +0.232 C 
ATOM     21  O   UNL     1      -1.137  -0.530   0.537  0.00  0.00    -0.274 OA
ATOM     22  N   UNL     1       0.919  -1.326   0.288  0.00  0.00    -0.314 N 
ATOM     23  H   UNL     1       1.491  -2.081   0.080  0.00  0.00    +0.149 HD
BRANCH  22  24
ATOM     24  C   UNL     1       1.510  -0.025   0.611  0.00  0.00    +0.104 C 
BRANCH  24  25
ATOM     25  C   UNL     1       3.035  -0.129   0.552  0.00  0.00    +0.019 C 
BRANCH  25  26
ATOM     26  C   UNL     1       3.652   1.229   0.890  0.00  0.00    +0.010 C 
BRANCH  26  27
ATOM     27  C   UNL     1       5.178   1.125   0.831  0.00  0.00    +0.048 C 
ATOM     28  C   UNL     1       5.613   0.830  -0.606  0.00  0.00    +0.009 C 
ATOM     29  C   UNL     1       7.139   0.731  -0.666  0.00  0.00    +0.001 C 
ATOM     30  C   UNL     1       7.754   2.057  -0.213  0.00  0.00    +0.005 C 
ATOM     31  C   UNL     1       7.323   2.355   1.224  0.00  0.00    +0.065 C 
ATOM     32  C   UNL     1       5.797   2.447   1.289  0.00  0.00    +0.173 C 
ATOM     33  O   UNL     1       5.392   2.722   2.640  0.00  0.00    -0.346 OA
ATOM     34  C   UNL     1       5.231   4.160   2.692  0.00  0.00    +0.191 C 
ATOM     35  C   UNL     1       4.662   4.464   1.284  0.00  0.00    +0.191 C 
ATOM     36  O   UNL     1       5.343   3.511   0.444  0.00  0.00    -0.346 OA
ENDBRANCH  26  27
ENDBRANCH  25  26
ENDBRANCH  24  25
ENDBRANCH  22  24
ENDBRANCH  19  20
ENDBRANCH   1  19
TORSDOF 9
