REMARK  Name = ZINC12106018
REMARK  9 active torsions:
REMARK  status: ('A' for Active; 'I' for Inactive)
REMARK    1  A    between atoms: C_1  and  C_2
REMARK    2  A    between atoms: C_2  and  C_4
REMARK    3  A    between atoms: C_2  and  S_19
REMARK    4  A    between atoms: C_16  and  C_17
REMARK    5  A    between atoms: C_16  and  C_18
REMARK    6  A    between atoms: S_19  and  C_20
REMARK    7  A    between atoms: C_23  and  C_31
REMARK    8  A    between atoms: N_24  and  C_25
REMARK    9  A    between atoms: C_31  and  C_32
REMARK                            x       y       z     vdW  Elec       q    Type
REMARK                         _______ _______ _______ _____ _____    ______ ____
ROOT
ATOM      1  S   UNL     1      -0.645  -2.995  -0.036  0.00  0.00    -0.073 S 
ENDROOT
BRANCH   1   2
ATOM      2  C   UNL     1       0.573  -1.839   0.499  0.00  0.00    +0.197 A 
ATOM      3  N   UNL     1       1.721  -2.122   1.070  0.00  0.00    -0.122 NA
ATOM      4  N   UNL     1       2.362  -1.038   1.323  0.00  0.00    -0.133 NA
ATOM      5  C   UNL     1       1.666  -0.004   0.941  0.00  0.00    +0.143 A 
ATOM      6  N   UNL     1       0.501  -0.477   0.398  0.00  0.00    -0.274 N 
BRANCH   6   7
ATOM      7  C   UNL     1      -0.547   0.278  -0.147  0.00  0.00    +0.050 A 
ATOM      8  C   UNL     1      -1.347   1.057   0.678  0.00  0.00    +0.026 A 
ATOM      9  C   UNL     1      -2.375   1.804   0.138  0.00  0.00    +0.002 A 
ATOM     10  C   UNL     1      -2.615   1.768  -1.224  0.00  0.00    +0.000 A 
ATOM     11  C   UNL     1      -1.824   0.990  -2.048  0.00  0.00    +0.002 A 
ATOM     12  C   UNL     1      -0.791   0.245  -1.514  0.00  0.00    +0.026 A 
ENDBRANCH   6   7
BRANCH   5  13
ATOM     13  C   UNL     1       2.071   1.442   1.067  0.00  0.00    +0.111 C 
BRANCH  13  14
ATOM     14  C   UNL     1       2.935   1.825  -0.107  0.00  0.00    -0.040 A 
ATOM     15  C   UNL     1       4.296   1.583  -0.072  0.00  0.00    +0.004 A 
ATOM     16  C   UNL     1       5.088   1.930  -1.151  0.00  0.00    +0.000 A 
ATOM     17  C   UNL     1       4.520   2.530  -2.259  0.00  0.00    +0.000 A 
ATOM     18  C   UNL     1       3.161   2.777  -2.292  0.00  0.00    +0.000 A 
ATOM     19  C   UNL     1       2.368   2.425  -1.216  0.00  0.00    +0.004 A 
ENDBRANCH  13  14
ENDBRANCH   5  13
ENDBRANCH   1   2
BRANCH   1  21
ATOM     20  C   UNL     1       0.300  -4.610   1.955  0.00  0.00    +0.029 C 
ATOM     21  C   UNL     1       0.166  -4.545   0.432  0.00  0.00    +0.137 C 
BRANCH  21  22
ATOM     22  C   UNL     1      -0.660  -5.709  -0.050  0.00  0.00    +0.234 C 
ATOM     23  O   UNL     1      -1.714  -5.512  -0.617  0.00  0.00    -0.274 OA
ATOM     24  N   UNL     1      -0.227  -6.970   0.149  0.00  0.00    -0.255 N 
ATOM     25  C   UNL     1      -1.068  -8.070  -0.083  0.00  0.00    +0.059 A 
ATOM     26  C   UNL     1      -2.438  -7.967   0.058  0.00  0.00    +0.025 A 
ATOM     27  C   UNL     1      -3.238  -9.070  -0.179  0.00  0.00    +0.002 A 
ATOM     28  C   UNL     1      -2.671 -10.272  -0.561  0.00  0.00    +0.002 A 
ATOM     29  C   UNL     1      -1.300 -10.381  -0.711  0.00  0.00    +0.025 A 
ATOM     30  C   UNL     1      -0.491  -9.281  -0.478  0.00  0.00    +0.055 A 
ATOM     31  N   UNL     1       0.897  -9.368  -0.629  0.00  0.00    -0.282 N 
ATOM     32  C   UNL     1       1.705  -8.406  -0.144  0.00  0.00    +0.241 C 
ATOM     33  O   UNL     1       2.902  -8.481  -0.326  0.00  0.00    -0.273 OA
ATOM     34  C   UNL     1       1.140  -7.238   0.622  0.00  0.00    +0.113 C 
ATOM     35  C   UNL     1       2.013  -6.003   0.389  0.00  0.00    +0.042 C 
ATOM     36  C   UNL     1       1.109  -7.572   2.115  0.00  0.00    +0.042 C 
ATOM     37  H   UNL     1       1.282 -10.131  -1.089  0.00  0.00    +0.155 HD
ENDBRANCH  21  22
ENDBRANCH   1  21
TORSDOF 6
