REMARK  Name = ZINC13055387
REMARK  10 active torsions:
REMARK  status: ('A' for Active; 'I' for Inactive)
REMARK    1  A    between atoms: C_1  and  C_2
REMARK    2  A    between atoms: C_2  and  C_4
REMARK    3  A    between atoms: C_2  and  S_21
REMARK    4  A    between atoms: N_6  and  C_7
REMARK    5  A    between atoms: N_6  and  C_14
REMARK    6  A    between atoms: C_7  and  C_8
REMARK    7  A    between atoms: C_14  and  C_15
REMARK    8  A    between atoms: S_21  and  C_22
REMARK    9  A    between atoms: N_32  and  C_33
REMARK   10  A    between atoms: C_33  and  C_34
REMARK                            x       y       z     vdW  Elec       q    Type
REMARK                         _______ _______ _______ _____ _____    ______ ____
ROOT
ATOM      1  C   UNL     1      -1.420   0.918  -2.795  0.00  0.00    +0.029 C 
ATOM      2  C   UNL     1      -0.180   0.137  -2.356  0.00  0.00    +0.137 C 
ENDROOT
BRANCH   2   3
ATOM      3  C   UNL     1      -0.479  -0.605  -1.079  0.00  0.00    +0.229 C 
ATOM      4  O   UNL     1      -0.854  -1.758  -1.121  0.00  0.00    -0.274 OA
ATOM      5  N   UNL     1      -0.332   0.012   0.110  0.00  0.00    -0.292 N 
BRANCH   5   6
ATOM      6  C   UNL     1       0.025   1.432   0.158  0.00  0.00    +0.143 C 
BRANCH   6   7
ATOM      7  C   UNL     1       1.514   1.570   0.346  0.00  0.00    -0.030 A 
ATOM      8  C   UNL     1       2.060   1.500   1.614  0.00  0.00    +0.005 A 
ATOM      9  C   UNL     1       3.426   1.621   1.786  0.00  0.00    +0.000 A 
ATOM     10  C   UNL     1       4.246   1.823   0.691  0.00  0.00    +0.000 A 
ATOM     11  C   UNL     1       3.699   1.898  -0.577  0.00  0.00    +0.000 A 
ATOM     12  C   UNL     1       2.334   1.771  -0.749  0.00  0.00    +0.005 A 
ENDBRANCH   6   7
ENDBRANCH   5   6
BRANCH   5  13
ATOM     13  C   UNL     1      -0.528  -0.736   1.353  0.00  0.00    +0.143 C 
BRANCH  13  14
ATOM     14  C   UNL     1      -1.973  -0.646   1.771  0.00  0.00    -0.030 A 
ATOM     15  C   UNL     1      -2.390   0.378   2.600  0.00  0.00    +0.005 A 
ATOM     16  C   UNL     1      -3.717   0.464   2.978  0.00  0.00    +0.000 A 
ATOM     17  C   UNL     1      -4.624  -0.482   2.538  0.00  0.00    +0.000 A 
ATOM     18  C   UNL     1      -4.206  -1.510   1.714  0.00  0.00    +0.000 A 
ATOM     19  C   UNL     1      -2.880  -1.592   1.330  0.00  0.00    +0.005 A 
ENDBRANCH  13  14
ENDBRANCH   5  13
ENDBRANCH   2   3
BRANCH   2  20
ATOM     20  S   UNL     1       0.277  -1.046  -3.648  0.00  0.00    -0.075 S 
BRANCH  20  21
ATOM     21  C   UNL     1       0.709   0.068  -4.943  0.00  0.00    +0.173 A 
ATOM     22  N   UNL     1       0.618   1.355  -4.717  0.00  0.00    -0.223 NA
ATOM     23  C   UNL     1       0.932   2.263  -5.662  0.00  0.00    +0.079 A 
ATOM     24  C   UNL     1       0.834   3.637  -5.421  0.00  0.00    +0.028 A 
ATOM     25  C   UNL     1       1.163   4.522  -6.408  0.00  0.00    +0.002 A 
ATOM     26  C   UNL     1       1.595   4.079  -7.651  0.00  0.00    +0.001 A 
ATOM     27  C   UNL     1       1.701   2.741  -7.918  0.00  0.00    +0.015 A 
ATOM     28  C   UNL     1       1.372   1.816  -6.929  0.00  0.00    +0.065 A 
ATOM     29  C   UNL     1       1.467   0.368  -7.159  0.00  0.00    +0.263 A 
ATOM     30  O   UNL     1       1.839  -0.079  -8.228  0.00  0.00    -0.267 OA
ATOM     31  N   UNL     1       1.130  -0.451  -6.135  0.00  0.00    -0.276 N 
BRANCH  31  32
ATOM     32  C   UNL     1       1.211  -1.903  -6.308  0.00  0.00    +0.252 C 
BRANCH  32  33
ATOM     33  C   UNL     1      -0.103  -2.421  -6.832  0.00  0.00    +0.375 C 
ATOM     34  O   UNL     1      -1.014  -1.655  -7.040  0.00  0.00    -0.244 OA
ATOM     35  O   UNL     1      -0.262  -3.733  -7.068  0.00  0.00    -0.244 OA
ENDBRANCH  32  33
ENDBRANCH  31  32
ENDBRANCH  20  21
ENDBRANCH   2  20
TORSDOF 9
