REMARK  Name = ZINC53543005
REMARK  9 active torsions:
REMARK  status: ('A' for Active; 'I' for Inactive)
REMARK    1  A    between atoms: C_1  and  C_2
REMARK    2  A    between atoms: C_5  and  N_27
REMARK    3  A    between atoms: C_6  and  O_8
REMARK    4  A    between atoms: O_8  and  C_9
REMARK    5  A    between atoms: C_9  and  C_10
REMARK    6  A    between atoms: N_12  and  C_13
REMARK    7  A    between atoms: N_16  and  C_19
REMARK    8  A    between atoms: C_19  and  C_20
REMARK    9  A    between atoms: C_25  and  C_26
REMARK                            x       y       z     vdW  Elec       q    Type
REMARK                         _______ _______ _______ _____ _____    ______ ____
ROOT
ATOM      1  C   UNL     1       0.064  -2.932   4.751  0.00  0.00    +0.251 C 
ATOM      2  O   UNL     1       0.079  -4.133   4.584  0.00  0.00    -0.272 OA
ATOM      3  N   UNL     1       0.062  -2.425   6.000  0.00  0.00    -0.310 N 
ATOM      4  H   UNL     1       0.050  -1.465   6.134  0.00  0.00    +0.149 HD
ENDROOT
BRANCH   3   5
ATOM      5  C   UNL     1       0.079  -3.326   7.156  0.00  0.00    +0.070 C 
ATOM      6  C   UNL     1      -1.352  -3.751   7.495  0.00  0.00    +0.003 C 
ATOM      7  C   UNL     1      -1.335  -4.626   8.750  0.00  0.00    -0.077 C 
ATOM      8  N   UNL     1      -0.769  -3.868   9.872  0.00  0.00    +0.382 N 
ATOM      9  C   UNL     1       0.627  -3.519   9.584  0.00  0.00    -0.077 C 
ATOM     10  C   UNL     1       0.685  -2.600   8.361  0.00  0.00    +0.003 C 
ATOM     11  H   UNL     1      -1.304  -3.024  10.010  0.00  0.00    -0.081 HD
BRANCH   8  12
ATOM     12  C   UNL     1      -0.826  -4.685  11.091  0.00  0.00    -0.043 C 
BRANCH  12  13
ATOM     13  C   UNL     1      -0.360  -3.866  12.267  0.00  0.00    -0.061 A 
ATOM     14  C   UNL     1       0.931  -4.008  12.740  0.00  0.00    +0.002 A 
ATOM     15  C   UNL     1       1.359  -3.256  13.818  0.00  0.00    +0.000 A 
ATOM     16  C   UNL     1       0.495  -2.363  14.424  0.00  0.00    +0.000 A 
ATOM     17  C   UNL     1      -0.796  -2.220  13.951  0.00  0.00    +0.003 A 
ATOM     18  C   UNL     1      -1.222  -2.969  12.870  0.00  0.00    -0.049 A 
ATOM     19  C   UNL     1      -2.628  -2.810  12.350  0.00  0.00    +0.044 C 
ENDBRANCH  12  13
ENDBRANCH   8  12
ENDBRANCH   3   5
BRANCH   1  20
ATOM     20  C   UNL     1       0.046  -2.006   3.562  0.00  0.00    +0.324 C 
BRANCH  20  21
ATOM     21  O   UNL     1       0.051  -2.776   2.358  0.00  0.00    -0.480 OA
BRANCH  21  27
ATOM     22  C   UNL     1      -0.018   1.503   0.010  0.00  0.00    +0.044 C 
ATOM     23  C   UNL     1       0.002  -0.004   0.002  0.00  0.00    -0.047 A 
ATOM     24  C   UNL     1       0.006  -0.688  -1.200  0.00  0.00    +0.006 A 
ATOM     25  C   UNL     1       0.025  -2.071  -1.211  0.00  0.00    +0.037 A 
ATOM     26  C   UNL     1       0.040  -2.772  -0.020  0.00  0.00    +0.168 A 
ATOM     27  C   UNL     1       0.036  -2.088   1.186  0.00  0.00    +0.152 A 
ATOM     28  C   UNL     1       0.023  -0.700   1.195  0.00  0.00    +0.051 A 
BRANCH  26  29
ATOM     29  N   UNL     1       0.060  -4.252  -0.033  0.00  0.00    +0.060 N 
ATOM     30  O   UNL     1       0.062  -4.847  -1.085  0.00  0.00    -0.126 OA
ATOM     31  O   UNL     1       0.073  -4.865   1.009  0.00  0.00    -0.126 OA
ENDBRANCH  26  29
ENDBRANCH  21  27
ENDBRANCH  20  21
ENDBRANCH   1  20
TORSDOF 7
