REMARK  Name = ZINC36154597
REMARK  14 active torsions:
REMARK  status: ('A' for Active; 'I' for Inactive)
REMARK    1  A    between atoms: C_1  and  C_2
REMARK    2  A    between atoms: C_5  and  C_7
REMARK    3  A    between atoms: C_7  and  N_8
REMARK    4  A    between atoms: N_8  and  C_9
REMARK    5  A    between atoms: N_8  and  C_14
REMARK    6  A    between atoms: C_9  and  C_10
REMARK    7  A    between atoms: C_10  and  C_11
REMARK    8  A    between atoms: C_11  and  O_12
REMARK    9  A    between atoms: O_12  and  C_13
REMARK   10  A    between atoms: C_14  and  C_15
REMARK   11  A    between atoms: C_18  and  C_20
REMARK   12  A    between atoms: C_20  and  C_21
REMARK   13  A    between atoms: C_20  and  C_28
REMARK   14  A    between atoms: C_20  and  O_35
REMARK                            x       y       z     vdW  Elec       q    Type
REMARK                         _______ _______ _______ _____ _____    ______ ____
ROOT
ATOM      1  C   UNL     1       3.063  -5.846  -3.030  0.00  0.00    +0.089 A 
ATOM      2  C   UNL     1       3.938  -5.678  -4.038  0.00  0.00    +0.043 A 
ATOM      3  C   UNL     1       3.284  -6.090  -5.221  0.00  0.00    +0.048 A 
ATOM      4  C   UNL     1       2.049  -6.487  -4.866  0.00  0.00    +0.146 A 
ATOM      5  O   UNL     1       1.923  -6.342  -3.537  0.00  0.00    -0.463 OA
ENDROOT
BRANCH   1   6
ATOM      6  C   UNL     1       3.321  -5.538  -1.578  0.00  0.00    -0.003 C 
BRANCH   6   7
ATOM      7  N   UNL     1       3.054  -4.115  -1.324  0.00  0.00    +0.387 N 
ATOM      8  H   UNL     1       3.601  -3.552  -1.958  0.00  0.00    -0.081 HD
BRANCH   7   9
ATOM      9  C   UNL     1       1.626  -3.841  -1.534  0.00  0.00    -0.035 C 
BRANCH   9  14
ATOM     10  C   UNL     1       0.526   1.515  -0.052  0.00  0.00    +0.051 C 
ATOM     11  C   UNL     1       0.849   0.188  -0.689  0.00  0.00    -0.013 A 
ATOM     12  C   UNL     1       1.137  -0.090  -1.984  0.00  0.00    +0.011 A 
ATOM     13  C   UNL     1       1.405  -1.397  -2.345  0.00  0.00    +0.009 A 
ATOM     14  C   UNL     1       1.373  -2.362  -1.394  0.00  0.00    -0.026 A 
ATOM     15  S   UNL     1       0.960  -1.425   0.068  0.00  0.00    -0.100 S 
ENDBRANCH   9  14
ENDBRANCH   7   9
BRANCH   7  16
ATOM     16  C   UNL     1       3.418  -3.788   0.061  0.00  0.00    -0.076 C 
BRANCH  16  17
ATOM     17  C   UNL     1       4.931  -3.924   0.236  0.00  0.00    +0.009 C 
BRANCH  17  18
ATOM     18  C   UNL     1       5.314  -3.553   1.670  0.00  0.00    +0.157 C 
BRANCH  18  19
ATOM     19  O   UNL     1       6.728  -3.680   1.834  0.00  0.00    -0.383 OA
ATOM     20  C   UNL     1       7.192  -3.355   3.146  0.00  0.00    +0.193 C 
ENDBRANCH  18  19
ENDBRANCH  17  18
ENDBRANCH  16  17
ENDBRANCH   7  16
ENDBRANCH   6   7
ENDBRANCH   1   6
BRANCH   4  21
ATOM     21  C   UNL     1       0.989  -7.009  -5.801  0.00  0.00    +0.174 C 
BRANCH  21  22
ATOM     22  C   UNL     1       0.106  -7.984  -5.064  0.00  0.00    -0.004 A 
ATOM     23  C   UNL     1       0.122  -9.324  -5.405  0.00  0.00    +0.010 A 
ATOM     24  C   UNL     1      -0.686 -10.219  -4.730  0.00  0.00    +0.039 A 
ATOM     25  C   UNL     1      -1.512  -9.773  -3.712  0.00  0.00    +0.123 A 
ATOM     26  C   UNL     1      -1.527  -8.431  -3.372  0.00  0.00    +0.039 A 
ATOM     27  C   UNL     1      -0.714  -7.539  -4.045  0.00  0.00    +0.010 A 
ATOM     28  F   UNL     1      -2.303 -10.647  -3.052  0.00  0.00    -0.205 F 
ENDBRANCH  21  22
BRANCH  21  29
ATOM     29  C   UNL     1       0.155  -5.861  -6.307  0.00  0.00    -0.004 A 
ATOM     30  C   UNL     1      -0.210  -4.841  -5.448  0.00  0.00    +0.010 A 
ATOM     31  C   UNL     1      -0.974  -3.787  -5.912  0.00  0.00    +0.039 A 
ATOM     32  C   UNL     1      -1.375  -3.753  -7.237  0.00  0.00    +0.123 A 
ATOM     33  C   UNL     1      -1.009  -4.775  -8.096  0.00  0.00    +0.039 A 
ATOM     34  C   UNL     1      -0.240  -5.825  -7.632  0.00  0.00    +0.010 A 
ATOM     35  F   UNL     1      -2.122  -2.723  -7.691  0.00  0.00    -0.205 F 
ENDBRANCH  21  29
BRANCH  21  36
ATOM     36  O   UNL     1       1.610  -7.670  -6.905  0.00  0.00    -0.372 OA
ATOM     37  H   UNL     1       2.194  -7.101  -7.425  0.00  0.00    +0.212 HD
ENDBRANCH  21  36
ENDBRANCH   4  21
TORSDOF 12
