REMARK  Name = ZINC09601708
REMARK  8 active torsions:
REMARK  status: ('A' for Active; 'I' for Inactive)
REMARK    1  A    between atoms: C_1  and  C_2
REMARK    2  A    between atoms: C_2  and  C_4
REMARK    3  A    between atoms: C_2  and  N_10
REMARK    4  A    between atoms: N_10  and  C_11
REMARK    5  A    between atoms: C_13  and  N_20
REMARK    6  A    between atoms: C_16  and  N_17
REMARK    7  A    between atoms: N_23  and  S_26
REMARK    8  A    between atoms: S_26  and  C_29
REMARK                            x       y       z     vdW  Elec       q    Type
REMARK                         _______ _______ _______ _____ _____    ______ ____
ROOT
ATOM      1  C   UNL     1       1.188   1.682   0.024  0.00  0.00    +0.060 A 
ATOM      2  C   UNL     1       1.172   3.066  -0.079  0.00  0.00    +0.048 A 
ATOM      3  C   UNL     1       2.367   3.771  -0.104  0.00  0.00    +0.032 A 
ATOM      4  C   UNL     1       3.576   3.089  -0.038  0.00  0.00    +0.025 A 
ATOM      5  C   UNL     1       3.589   1.711   0.059  0.00  0.00    +0.036 A 
ATOM      6  C   UNL     1       2.401   1.006   0.089  0.00  0.00    +0.147 A 
ENDROOT
BRANCH   3   7
ATOM      7  N   UNL     1       2.354   5.165  -0.202  0.00  0.00    -0.327 N 
ATOM      8  C   UNL     1       1.594   5.603  -1.380  0.00  0.00    +0.122 C 
ATOM      9  C   UNL     1       1.451   7.128  -1.352  0.00  0.00    +0.128 C 
ATOM     10  N   UNL     1       2.790   7.721  -1.220  0.00  0.00    -0.174 NA
ATOM     11  C   UNL     1       3.665   7.232  -0.143  0.00  0.00    +0.128 C 
ATOM     12  C   UNL     1       3.721   5.703  -0.218  0.00  0.00    +0.122 C 
BRANCH  10  13
ATOM     13  S   UNL     1       3.300   8.908  -2.256  0.00  0.00    +0.061 S 
ATOM     14  O   UNL     1       2.130   9.531  -2.768  0.00  0.00    -0.153 OA
ATOM     15  O   UNL     1       4.314   9.634  -1.575  0.00  0.00    -0.153 OA
BRANCH  13  16
ATOM     16  C   UNL     1       4.082   8.110  -3.619  0.00  0.00    +0.106 A 
ATOM     17  C   UNL     1       5.440   7.851  -3.582  0.00  0.00    +0.030 A 
ATOM     18  C   UNL     1       6.053   7.220  -4.647  0.00  0.00    +0.022 A 
ATOM     19  C   UNL     1       5.310   6.857  -5.756  0.00  0.00    +0.041 A 
ATOM     20  C   UNL     1       3.952   7.121  -5.795  0.00  0.00    +0.022 A 
ATOM     21  C   UNL     1       3.339   7.747  -4.726  0.00  0.00    +0.030 A 
ATOM     22 CL   UNL     1       6.080   6.070  -7.098  0.00  0.00    -0.084 Cl
ENDBRANCH  13  16
ENDBRANCH  10  13
ENDBRANCH   3   7
BRANCH   6  23
ATOM     23  N   UNL     1       2.419  -0.470   0.193  0.00  0.00    +0.058 N 
ATOM     24  O   UNL     1       3.474  -1.055   0.363  0.00  0.00    -0.126 OA
ATOM     25  O   UNL     1       1.380  -1.099   0.108  0.00  0.00    -0.126 OA
ENDBRANCH   6  23
BRANCH   1  26
ATOM     26  N   UNL     1      -0.012   0.969   0.055  0.00  0.00    -0.335 N 
ATOM     27  H   UNL     1      -0.001  -0.001   0.042  0.00  0.00    +0.147 HD
BRANCH  26  29
ATOM     28  C   UNL     1      -1.630   2.026   1.554  0.00  0.00    +0.033 C 
ATOM     29  C   UNL     1      -1.289   1.686   0.102  0.00  0.00    +0.098 C 
BRANCH  29  30
ATOM     30  C   UNL     1      -2.375   0.817  -0.479  0.00  0.00    -0.028 A 
ATOM     31  C   UNL     1      -2.394  -0.538  -0.208  0.00  0.00    +0.005 A 
ATOM     32  C   UNL     1      -3.392  -1.335  -0.737  0.00  0.00    +0.000 A 
ATOM     33  C   UNL     1      -4.366  -0.778  -1.544  0.00  0.00    +0.000 A 
ATOM     34  C   UNL     1      -4.344   0.577  -1.820  0.00  0.00    +0.000 A 
ATOM     35  C   UNL     1      -3.348   1.374  -1.287  0.00  0.00    +0.005 A 
ENDBRANCH  29  30
ENDBRANCH  26  29
ENDBRANCH   1  26
TORSDOF 7
