REMARK  Name = ZINC07649771
REMARK  6 active torsions:
REMARK  status: ('A' for Active; 'I' for Inactive)
REMARK    1  A    between atoms: C_1  and  C_2
REMARK    2  A    between atoms: C_2  and  C_4
REMARK    3  A    between atoms: C_2  and  O_15
REMARK    4  A    between atoms: N_6  and  N_7
REMARK    5  A    between atoms: C_8  and  C_9
REMARK    6  A    between atoms: O_15  and  C_16
REMARK                            x       y       z     vdW  Elec       q    Type
REMARK                         _______ _______ _______ _____ _____    ______ ____
ROOT
ATOM      1  C   UNL     1      -0.190   0.888   0.022  0.00  0.00    +0.062 C 
ATOM      2  C   UNL     1      -0.734   1.584   1.272  0.00  0.00    +0.257 C 
ENDROOT
BRANCH   2   3
ATOM      3  C   UNL     1      -0.534   3.072   1.145  0.00  0.00    +0.273 C 
ATOM      4  O   UNL     1       0.211   3.651   1.908  0.00  0.00    -0.270 OA
ATOM      5  N   UNL     1      -1.183   3.760   0.185  0.00  0.00    -0.204 N 
ATOM      6  H   UNL     1      -1.779   3.297  -0.425  0.00  0.00    +0.177 HD
BRANCH   5   7
ATOM      7  N   UNL     1      -0.997   5.143   0.067  0.00  0.00    -0.186 NA
ATOM      8  C   UNL     1      -1.623   5.807  -0.860  0.00  0.00    +0.156 C 
BRANCH   8   9
ATOM      9  C   UNL     1      -1.429   7.256  -0.983  0.00  0.00    +0.059 A 
ATOM     10  C   UNL     1      -0.623   8.039  -0.187  0.00  0.00    +0.028 A 
ATOM     11  C   UNL     1      -0.732   9.356  -0.656  0.00  0.00    +0.019 A 
ATOM     12  C   UNL     1      -1.590   9.353  -1.700  0.00  0.00    +0.083 A 
ATOM     13  N   UNL     1      -2.023   8.079  -1.910  0.00  0.00    -0.360 N 
ATOM     14  H   UNL     1      -2.646   7.798  -2.598  0.00  0.00    +0.165 HD
ENDBRANCH   8   9
ENDBRANCH   5   7
ENDBRANCH   2   3
BRANCH   2  15
ATOM     15  O   UNL     1      -0.038   1.106   2.425  0.00  0.00    -0.480 OA
BRANCH  15  16
ATOM     16  C   UNL     1      -0.493  -0.044   2.987  0.00  0.00    +0.122 A 
ATOM     17  C   UNL     1      -1.523  -0.756   2.365  0.00  0.00    +0.046 A 
ATOM     18  C   UNL     1      -1.999  -1.911   2.904  0.00  0.00    +0.012 A 
ATOM     19  C   UNL     1      -1.452  -2.398   4.104  0.00  0.00    -0.018 A 
ATOM     20  C   UNL     1      -1.919  -3.588   4.688  0.00  0.00    +0.008 A 
ATOM     21  C   UNL     1      -1.366  -4.031   5.849  0.00  0.00    +0.001 A 
ATOM     22  C   UNL     1      -0.339  -3.323   6.471  0.00  0.00    +0.001 A 
ATOM     23  C   UNL     1       0.140  -2.167   5.935  0.00  0.00    +0.008 A 
ATOM     24  C   UNL     1      -0.407  -1.678   4.736  0.00  0.00    -0.014 A 
ATOM     25  C   UNL     1       0.066  -0.492   4.150  0.00  0.00    +0.054 A 
ENDBRANCH  15  16
ENDBRANCH   2  15
TORSDOF 5
