REMARK  Name = ZINC20850373
REMARK  7 active torsions:
REMARK  status: ('A' for Active; 'I' for Inactive)
REMARK    1  A    between atoms: C_1  and  C_2
REMARK    2  A    between atoms: C_2  and  C_35
REMARK    3  A    between atoms: C_6  and  C_23
REMARK    4  A    between atoms: C_11  and  S_13
REMARK    5  A    between atoms: S_13  and  C_14
REMARK    6  A    between atoms: C_14  and  C_15
REMARK    7  A    between atoms: C_27  and  N_29
REMARK                            x       y       z     vdW  Elec       q    Type
REMARK                         _______ _______ _______ _____ _____    ______ ____
ROOT
ATOM      1  C   UNL     1      -0.929   8.510   2.910  0.00  0.00    +0.011 C 
ATOM      2  C   UNL     1      -1.678   7.314   3.502  0.00  0.00    -0.023 C 
ATOM      3  C   UNL     1      -2.716   6.809   2.499  0.00  0.00    +0.058 C 
ATOM      4  C   UNL     1      -2.023   6.357   1.235  0.00  0.00    +0.020 C 
ATOM      5  C   UNL     1      -0.780   5.832   1.276  0.00  0.00    +0.041 C 
ATOM      6  C   UNL     1      -0.070   5.347   0.031  0.00  0.00    +0.176 C 
ATOM      7  N   UNL     1      -0.763   5.828  -1.158  0.00  0.00    -0.220 N 
ATOM      8  C   UNL     1      -2.008   6.364  -1.132  0.00  0.00    +0.219 A 
ATOM      9  N   UNL     1      -2.339   6.683  -2.353  0.00  0.00    -0.187 NA
ATOM     10  C   UNL     1      -1.334   6.373  -3.185  0.00  0.00    +0.211 A 
ATOM     11  N   UNL     1      -0.349   5.847  -2.489  0.00  0.00    -0.141 NA
ATOM     12  N   UNL     1      -2.712   6.499   0.054  0.00  0.00    -0.287 N 
ATOM     13  C   UNL     1      -0.086   5.716   2.494  0.00  0.00    +0.164 C 
ATOM     14  O   UNL     1       1.029   5.232   2.498  0.00  0.00    -0.292 OA
ATOM     15  C   UNL     1      -0.691   6.178   3.790  0.00  0.00    +0.086 C 
ATOM     16  C   UNL     1      -2.374   7.733   4.798  0.00  0.00    +0.011 C 
ATOM     17  H   UNL     1      -3.790   6.713   0.068  0.00  0.00    +0.155 HD
ENDROOT
BRANCH   6  18
ATOM     18  C   UNL     1      -0.050   3.840   0.022  0.00  0.00    -0.016 A 
ATOM     19  C   UNL     1      -1.238   3.133   0.029  0.00  0.00    +0.006 A 
ATOM     20  C   UNL     1      -1.219   1.751   0.017  0.00  0.00    +0.003 A 
ATOM     21  C   UNL     1      -0.013   1.076   0.008  0.00  0.00    +0.033 A 
ATOM     22  C   UNL     1       1.175   1.783   0.000  0.00  0.00    +0.127 A 
ATOM     23  C   UNL     1       1.156   3.166   0.008  0.00  0.00    +0.038 A 
BRANCH  22  24
ATOM     24  N   UNL     1       2.467   1.060  -0.015  0.00  0.00    +0.056 N 
ATOM     25  O   UNL     1       2.483  -0.157  -0.022  0.00  0.00    -0.126 OA
ATOM     26  O   UNL     1       3.513   1.684  -0.022  0.00  0.00    -0.126 OA
ENDBRANCH  22  24
ENDBRANCH   6  18
BRANCH  10  27
ATOM     27  S   UNL     1      -1.333   6.628  -4.928  0.00  0.00    -0.080 S 
BRANCH  27  28
ATOM     28  C   UNL     1      -2.953   7.373  -5.263  0.00  0.00    +0.115 C 
BRANCH  28  29
ATOM     29  C   UNL     1      -3.084   7.646  -6.740  0.00  0.00    -0.002 A 
ATOM     30  C   UNL     1      -2.681   8.863  -7.256  0.00  0.00    +0.007 A 
ATOM     31  C   UNL     1      -2.797   9.112  -8.611  0.00  0.00    +0.000 A 
ATOM     32  C   UNL     1      -3.326   8.148  -9.449  0.00  0.00    +0.003 A 
ATOM     33  C   UNL     1      -3.735   6.933  -8.934  0.00  0.00    +0.038 A 
ATOM     34  C   UNL     1      -3.614   6.680  -7.578  0.00  0.00    +0.127 A 
ATOM     35  F   UNL     1      -4.014   5.493  -7.073  0.00  0.00    -0.205 F 
ENDBRANCH  28  29
ENDBRANCH  27  28
ENDBRANCH  10  27
TORSDOF 5
