REMARK  Name = ZINC36997151
REMARK  5 active torsions:
REMARK  status: ('A' for Active; 'I' for Inactive)
REMARK    1  A    between atoms: C_1  and  C_2
REMARK    2  A    between atoms: C_4  and  C_8
REMARK    3  A    between atoms: C_13  and  N_14
REMARK    4  A    between atoms: N_14  and  C_15
REMARK    5  A    between atoms: C_21  and  C_23
REMARK                            x       y       z     vdW  Elec       q    Type
REMARK                         _______ _______ _______ _____ _____    ______ ____
ROOT
ATOM      1  C   UNL     1      -3.681   2.628  -3.003  0.00  0.00    +0.042 A 
ATOM      2  C   UNL     1      -4.788   2.450  -2.176  0.00  0.00    +0.013 A 
ATOM      3  C   UNL     1      -6.046   2.798  -2.624  0.00  0.00    +0.001 A 
ATOM      4  C   UNL     1      -6.214   3.323  -3.893  0.00  0.00    +0.002 A 
ATOM      5  C   UNL     1      -5.125   3.504  -4.723  0.00  0.00    +0.023 A 
ATOM      6  C   UNL     1      -3.853   3.164  -4.284  0.00  0.00    +0.038 A 
ENDROOT
BRANCH   1  10
ATOM      7  C   UNL     1       0.905   0.664  -2.929  0.00  0.00    +0.087 C 
ATOM      8  C   UNL     1      -0.338   1.401  -2.503  0.00  0.00    +0.122 A 
ATOM      9  N   UNL     1      -1.424   1.546  -3.216  0.00  0.00    -0.212 NA
ATOM     10  C   UNL     1      -2.327   2.256  -2.526  0.00  0.00    +0.183 A 
ATOM     11  N   UNL     1      -1.813   2.569  -1.356  0.00  0.00    -0.152 NA
ATOM     12  H   UNL     1       0.111   2.070  -0.589  0.00  0.00    +0.190 HD
ATOM     13  N   UNL     1      -0.523   2.017  -1.321  0.00  0.00    -0.262 N 
ENDBRANCH   1  10
BRANCH   6  14
ATOM     14  N   UNL     1      -2.751   3.352  -5.118  0.00  0.00    -0.340 N 
ATOM     15  H   UNL     1      -1.875   3.043  -4.840  0.00  0.00    +0.146 HD
BRANCH  14  16
ATOM     16  C   UNL     1      -2.918   4.014  -6.414  0.00  0.00    +0.073 C 
ATOM     17  C   UNL     1      -3.351   2.985  -7.461  0.00  0.00    +0.022 C 
ATOM     18  C   UNL     1      -3.525   3.677  -8.814  0.00  0.00    +0.002 C 
ATOM     19  C   UNL     1      -2.197   4.309  -9.239  0.00  0.00    +0.000 C 
ATOM     20  C   UNL     1      -1.764   5.338  -8.192  0.00  0.00    +0.005 C 
ATOM     21  C   UNL     1      -1.591   4.646  -6.838  0.00  0.00    +0.006 C 
ATOM     22  C   UNL     1      -1.158   5.675  -5.792  0.00  0.00    +0.009 C 
ENDBRANCH  14  16
ENDBRANCH   6  14
TORSDOF 3
