REMARK  Name = ZINC38685223
REMARK  8 active torsions:
REMARK  status: ('A' for Active; 'I' for Inactive)
REMARK    1  A    between atoms: C_1  and  C_2
REMARK    2  A    between atoms: C_7  and  C_29
REMARK    3  A    between atoms: C_9  and  N_12
REMARK    4  A    between atoms: C_13  and  C_15
REMARK    5  A    between atoms: C_15  and  N_16
REMARK    6  A    between atoms: C_25  and  C_27
REMARK    7  A    between atoms: C_29  and  O_31
REMARK    8  A    between atoms: O_31  and  C_32
REMARK                            x       y       z     vdW  Elec       q    Type
REMARK                         _______ _______ _______ _____ _____    ______ ____
ROOT
ATOM      1  N   UNL     1      -0.496  -3.744   3.128  0.00  0.00    -0.285 N 
ATOM      2  C   UNL     1      -0.628  -2.757   4.036  0.00  0.00    +0.234 C 
ATOM      3  O   UNL     1      -0.605  -1.598   3.679  0.00  0.00    -0.274 OA
ATOM      4  H   UNL     1      -0.593  -4.670   3.400  0.00  0.00    +0.155 HD
ENDROOT
BRANCH   1  12
ATOM      5  C   UNL     1       0.639  -7.859  -0.414  0.00  0.00    +0.044 C 
ATOM      6  C   UNL     1       0.513  -6.357  -0.390  0.00  0.00    -0.050 A 
ATOM      7  C   UNL     1       0.722  -5.637  -1.570  0.00  0.00    +0.005 A 
ATOM      8  C   UNL     1       0.622  -4.287  -1.612  0.00  0.00    +0.026 A 
ATOM      9  C   UNL     1       0.297  -3.566  -0.433  0.00  0.00    +0.045 A 
ATOM     10  N   UNL     1       0.143  -2.276  -0.214  0.00  0.00    -0.367 N 
ATOM     11  C   UNL     1      -0.194  -2.066   1.197  0.00  0.00    +0.234 C 
ATOM     12  C   UNL     1      -0.226  -3.441   1.827  0.00  0.00    +0.053 C 
ATOM     13  C   UNL     1       0.077  -4.328   0.808  0.00  0.00    +0.018 A 
ATOM     14  C   UNL     1       0.194  -5.738   0.773  0.00  0.00    +0.015 A 
ATOM     15  H   UNL     1       0.238  -1.577  -0.880  0.00  0.00    +0.161 HD
BRANCH  11  16
ATOM     16  C   UNL     1      -1.544  -1.408   1.316  0.00  0.00    +0.335 C 
ATOM     17  O   UNL     1      -2.449  -1.750   0.592  0.00  0.00    -0.248 OA
BRANCH  16  18
ATOM     18  O   UNL     1      -1.742  -0.441   2.227  0.00  0.00    -0.466 OA
ATOM     19  C   UNL     1      -3.046   0.139   2.284  0.00  0.00    +0.280 C 
ENDBRANCH  16  18
ENDBRANCH  11  16
ENDBRANCH   1  12
BRANCH   2  20
ATOM     20  C   UNL     1      -0.805  -3.093   5.494  0.00  0.00    +0.201 C 
BRANCH  20  21
ATOM     21  N   UNL     1      -0.925  -1.856   6.269  0.00  0.00    -0.318 N 
ATOM     22  C   UNL     1       0.213  -1.229   6.792  0.00  0.00    +0.034 A 
ATOM     23  C   UNL     1       1.468  -1.621   6.340  0.00  0.00    +0.026 A 
ATOM     24  C   UNL     1       2.604  -1.020   6.844  0.00  0.00    +0.040 A 
ATOM     25  C   UNL     1       2.491  -0.025   7.800  0.00  0.00    +0.124 A 
ATOM     26  C   UNL     1       1.243   0.367   8.249  0.00  0.00    +0.043 A 
ATOM     27  C   UNL     1       0.100  -0.231   7.746  0.00  0.00    -0.024 A 
ATOM     28  C   UNL     1      -1.244   0.226   8.251  0.00  0.00    +0.039 C 
ATOM     29  C   UNL     1      -2.305  -0.842   7.989  0.00  0.00    +0.027 C 
ATOM     30  C   UNL     1      -2.242  -1.249   6.507  0.00  0.00    +0.071 C 
ATOM     31  C   UNL     1      -3.344  -2.266   6.201  0.00  0.00    +0.028 C 
ATOM     32  F   UNL     1       3.602   0.563   8.296  0.00  0.00    -0.205 F 
ENDBRANCH  20  21
ENDBRANCH   2  20
TORSDOF 5
