REMARK  Name = ZINC08382671
REMARK  6 active torsions:
REMARK  status: ('A' for Active; 'I' for Inactive)
REMARK    1  A    between atoms: C_1  and  C_2
REMARK    2  A    between atoms: C_2  and  C_3
REMARK    3  A    between atoms: C_2  and  C_4
REMARK    4  A    between atoms: C_11  and  N_23
REMARK    5  A    between atoms: C_12  and  C_21
REMARK    6  A    between atoms: C_13  and  C_15
REMARK                            x       y       z     vdW  Elec       q    Type
REMARK                         _______ _______ _______ _____ _____    ______ ____
ROOT
ATOM      1  C   UNL     1       0.731  -0.503   1.223  0.00  0.00    +0.046 A 
ATOM      2  C   UNL     1       0.223  -1.294   2.180  0.00  0.00    +0.050 A 
ATOM      3  C   UNL     1       1.234  -1.527   3.139  0.00  0.00    +0.245 A 
ATOM      4  N   UNL     1       2.303  -0.891   2.759  0.00  0.00    -0.135 NA
ATOM      5  N   UNL     1       2.018  -0.239   1.549  0.00  0.00    -0.278 N 
ATOM      6  H   UNL     1       2.634   0.307   1.036  0.00  0.00    +0.189 HD
ATOM      7  O   UNL     1       1.022  -2.302   4.236  0.00  0.00    -0.421 OA
ATOM      8  C   UNL     1      -0.090  -3.064   4.253  0.00  0.00    +0.201 C 
ATOM      9  C   UNL     1      -1.124  -2.927   3.397  0.00  0.00    +0.099 C 
ATOM     10  C   UNL     1      -1.158  -1.884   2.308  0.00  0.00    +0.108 C 
ENDROOT
BRANCH  10  11
ATOM     11  C   UNL     1      -2.142  -0.801   2.671  0.00  0.00    +0.004 A 
ATOM     12  C   UNL     1      -3.241  -0.386   1.996  0.00  0.00    +0.013 A 
ATOM     13  C   UNL     1      -4.006   0.637   2.525  0.00  0.00    +0.023 A 
ATOM     14  C   UNL     1      -3.633   1.195   3.703  0.00  0.00    +0.055 A 
ATOM     15  S   UNL     1      -2.165   0.262   4.105  0.00  0.00    -0.085 S 
ATOM     16 BR   UNL     1      -4.457   2.594   4.672  0.00  0.00    -0.043 Br
ENDBRANCH  10  11
BRANCH   1  18
ATOM     17  C   UNL     1      -0.019   1.526   0.010  0.00  0.00    +0.014 C 
ATOM     18  C   UNL     1       0.002  -0.004   0.002  0.00  0.00    +0.031 C 
ATOM     19  C   UNL     1       0.718  -0.497  -1.257  0.00  0.00    +0.014 C 
ENDBRANCH   1  18
BRANCH   8  20
ATOM     20  N   UNL     1      -0.176  -4.048   5.205  0.00  0.00    -0.328 N 
ATOM     21  H   UNL     1       0.549  -4.176   5.837  0.00  0.00    +0.145 HD
ATOM     22  H   UNL     1      -0.961  -4.616   5.247  0.00  0.00    +0.145 HD
ENDBRANCH   8  20
BRANCH   9  23
ATOM     23  C   UNL     1      -2.242  -3.812   3.529  0.00  0.00    +0.101 C 
ATOM     24  N   UNL     1      -3.128  -4.515   3.634  0.00  0.00    -0.191 NA
ENDBRANCH   9  23
TORSDOF 4
