REMARK  Name = ZINC35420235
REMARK  12 active torsions:
REMARK  status: ('A' for Active; 'I' for Inactive)
REMARK    1  A    between atoms: C_1  and  C_2
REMARK    2  A    between atoms: C_3  and  C_11
REMARK    3  A    between atoms: C_11  and  C_12
REMARK    4  A    between atoms: C_13  and  C_26
REMARK    5  A    between atoms: N_15  and  C_20
REMARK    6  A    between atoms: C_20  and  C_21
REMARK    7  A    between atoms: C_30  and  O_32
REMARK    8  A    between atoms: O_32  and  C_33
REMARK    9  A    between atoms: C_33  and  C_34
REMARK   10  A    between atoms: C_34  and  C_35
REMARK   11  A    between atoms: C_35  and  C_36
REMARK   12  A    between atoms: C_35  and  C_37
REMARK                            x       y       z     vdW  Elec       q    Type
REMARK                         _______ _______ _______ _____ _____    ______ ____
ROOT
ATOM      1  C   UNL     1      -0.128   1.218  -2.791  0.00  0.00    +0.078 C 
ATOM      2  C   UNL     1       0.242   2.265  -1.767  0.00  0.00    +0.145 C 
ATOM      3  N   UNL     1       0.232   3.550  -2.476  0.00  0.00    -0.276 N 
ATOM      4  C   UNL     1      -0.099   3.312  -3.758  0.00  0.00    +0.288 C 
ATOM      5  O   UNL     1      -0.198   4.161  -4.622  0.00  0.00    -0.266 OA
ATOM      6  C   UNL     1      -0.318   1.867  -3.962  0.00  0.00    +0.249 C 
ATOM      7  O   UNL     1      -0.658   1.284  -5.136  0.00  0.00    -0.282 OA
ENDROOT
BRANCH   2   8
ATOM      8  C   UNL     1      -0.772   2.281  -0.652  0.00  0.00    -0.019 A 
ATOM      9  C   UNL     1      -2.026   2.823  -0.866  0.00  0.00    +0.006 A 
ATOM     10  C   UNL     1      -2.959   2.839   0.154  0.00  0.00    +0.004 A 
ATOM     11  C   UNL     1      -2.639   2.313   1.391  0.00  0.00    +0.045 A 
ATOM     12  C   UNL     1      -1.382   1.768   1.609  0.00  0.00    +0.121 A 
ATOM     13  C   UNL     1      -0.450   1.748   0.581  0.00  0.00    +0.051 A 
BRANCH  12  14
ATOM     14  O   UNL     1      -1.066   1.250   2.825  0.00  0.00    -0.492 OA
BRANCH  14  15
ATOM     15  C   UNL     1      -2.077   1.299   3.834  0.00  0.00    +0.229 C 
BRANCH  15  16
ATOM     16  C   UNL     1      -1.541   0.675   5.123  0.00  0.00    +0.044 C 
BRANCH  16  17
ATOM     17  C   UNL     1      -2.623   0.727   6.204  0.00  0.00    -0.014 C 
ATOM     18  C   UNL     1      -2.132  -0.007   7.453  0.00  0.00    +0.007 C 
ATOM     19  C   UNL     1      -2.922   2.186   6.555  0.00  0.00    +0.007 C 
ENDBRANCH  16  17
ENDBRANCH  15  16
ENDBRANCH  14  15
ENDBRANCH  12  14
ENDBRANCH   2   8
BRANCH   1  20
ATOM     20  C   UNL     1      -0.251  -0.227  -2.561  0.00  0.00    +0.213 C 
ATOM     21  O   UNL     1      -1.226  -0.671  -1.978  0.00  0.00    -0.285 OA
BRANCH  20  24
ATOM     22  C   UNL     1       2.449   0.656  -3.860  0.00  0.00    +0.068 C 
ATOM     23  C   UNL     1       1.974  -0.750  -3.598  0.00  0.00    +0.068 A 
ATOM     24  C   UNL     1       0.763  -1.106  -3.017  0.00  0.00    +0.116 A 
ATOM     25  N   UNL     1       0.744  -2.488  -2.970  0.00  0.00    -0.296 N 
ATOM     26  C   UNL     1      -0.176  -3.377  -2.512  0.00  0.00    +0.093 A 
ATOM     27  C   UNL     1       0.055  -4.708  -2.585  0.00  0.00    +0.018 A 
ATOM     28  C   UNL     1       1.252  -5.185  -3.137  0.00  0.00    +0.005 A 
ATOM     29  C   UNL     1       2.180  -4.299  -3.599  0.00  0.00    +0.047 A 
ATOM     30  C   UNL     1       1.921  -2.920  -3.514  0.00  0.00    +0.138 A 
ATOM     31  N   UNL     1       2.635  -1.857  -3.886  0.00  0.00    -0.232 NA
ENDBRANCH  20  24
ENDBRANCH   1  20
BRANCH   3  32
ATOM     32  C   UNL     1       0.529   4.860  -1.891  0.00  0.00    +0.183 C 
BRANCH  32  33
ATOM     33  C   UNL     1       2.005   5.142  -2.014  0.00  0.00    +0.122 A 
ATOM     34  C   UNL     1       2.604   5.764  -3.044  0.00  0.00    +0.046 A 
ATOM     35  C   UNL     1       3.985   5.814  -2.746  0.00  0.00    +0.041 A 
ATOM     36  C   UNL     1       4.147   5.218  -1.551  0.00  0.00    +0.195 A 
ATOM     37  O   UNL     1       2.944   4.818  -1.109  0.00  0.00    -0.466 OA
ENDBRANCH  32  33
ENDBRANCH   3  32
TORSDOF 9
