REMARK  Name = ZINC34255796
REMARK  5 active torsions:
REMARK  status: ('A' for Active; 'I' for Inactive)
REMARK    1  A    between atoms: C_1  and  C_2
REMARK    2  A    between atoms: N_15  and  C_19
REMARK    3  A    between atoms: C_19  and  C_21
REMARK    4  A    between atoms: C_19  and  C_25
REMARK    5  A    between atoms: C_21  and  C_22
REMARK                            x       y       z     vdW  Elec       q    Type
REMARK                         _______ _______ _______ _____ _____    ______ ____
ROOT
ATOM      1  C   UNL     1      -0.018   1.503   0.010  0.00  0.00    +0.110 C 
ATOM      2  C   UNL     1       0.002  -0.004   0.002  0.00  0.00    +0.223 C 
ATOM      3  O   UNL     1       0.020  -0.616   1.048  0.00  0.00    -0.275 OA
ATOM      4  N   UNL     1       0.000  -0.672  -1.169  0.00  0.00    -0.206 N 
ATOM      5  C   UNL     1       0.012  -2.061  -1.282  0.00  0.00    +0.052 A 
ATOM      6  C   UNL     1       0.029  -3.066  -0.323  0.00  0.00    +0.025 A 
ATOM      7  C   UNL     1       0.040  -4.392  -0.708  0.00  0.00    +0.017 A 
ATOM      8  C   UNL     1       0.033  -4.738  -2.050  0.00  0.00    +0.019 A 
ATOM      9  C   UNL     1       0.016  -3.753  -3.018  0.00  0.00    +0.025 A 
ATOM     10  C   UNL     1       0.006  -2.414  -2.639  0.00  0.00    +0.011 A 
ATOM     11  C   UNL     1      -0.012  -1.147  -3.401  0.00  0.00    +0.065 C 
ATOM     12  C   UNL     1      -0.024  -0.992  -4.773  0.00  0.00    +0.089 C 
ATOM     13  C   UNL     1      -0.036   0.254  -5.588  0.00  0.00    +0.260 C 
ATOM     14  O   UNL     1      -0.036   1.355  -5.075  0.00  0.00    -0.269 OA
ATOM     15  N   UNL     1      -0.045   0.095  -6.901  0.00  0.00    -0.241 N 
ATOM     16  C   UNL     1      -0.045  -1.129  -7.465  0.00  0.00    +0.121 C 
ATOM     17  S   UNL     1      -0.057  -1.531  -9.129  0.00  0.00    -0.027 S 
ATOM     18  S   UNL     1      -0.021  -2.232  -6.061  0.00  0.00    -0.060 S 
ATOM     19  C   UNL     1      -0.020  -0.083  -2.377  0.00  0.00    +0.259 C 
ATOM     20  O   UNL     1      -0.039   1.114  -2.590  0.00  0.00    -0.269 OA
ATOM     21 BR   UNL     1       0.049  -6.560  -2.555  0.00  0.00    -0.050 Br
ENDROOT
BRANCH  15  22
ATOM     22  C   UNL     1      -0.058   1.279  -7.764  0.00  0.00    +0.206 C 
BRANCH  22  23
ATOM     23  C   UNL     1       1.166   1.271  -8.644  0.00  0.00    +0.377 C 
ATOM     24  O   UNL     1       1.665   0.213  -8.985  0.00  0.00    -0.244 OA
ATOM     25  O   UNL     1       1.656   2.324  -9.015  0.00  0.00    -0.244 OA
ENDBRANCH  22  23
BRANCH  22  26
ATOM     26  C   UNL     1      -1.314   1.261  -8.637  0.00  0.00    +0.159 C 
BRANCH  26  27
ATOM     27  C   UNL     1      -2.535   1.392  -7.763  0.00  0.00    +0.358 C 
ATOM     28  O   UNL     1      -2.411   1.490  -6.554  0.00  0.00    -0.246 OA
ATOM     29  O   UNL     1      -3.646   1.399  -8.265  0.00  0.00    -0.246 OA
ENDBRANCH  26  27
ENDBRANCH  22  26
ENDBRANCH  15  22
TORSDOF 4
