REMARK  Name = ZINC03263819
REMARK  12 active torsions:
REMARK  status: ('A' for Active; 'I' for Inactive)
REMARK    1  A    between atoms: C_1  and  C_2
REMARK    2  A    between atoms: C_2  and  O_3
REMARK    3  A    between atoms: O_3  and  C_4
REMARK    4  A    between atoms: C_4  and  C_6
REMARK    5  A    between atoms: C_11  and  O_16
REMARK    6  A    between atoms: C_12  and  C_13
REMARK    7  A    between atoms: C_13  and  N_58
REMARK    8  A    between atoms: C_14  and  N_58
REMARK    9  A    between atoms: C_15  and  N_58
REMARK   10  A    between atoms: O_16  and  C_17
REMARK   11  A    between atoms: C_17  and  C_19
REMARK   12  A    between atoms: C_27  and  C_28
REMARK                            x       y       z     vdW  Elec       q    Type
REMARK                         _______ _______ _______ _____ _____    ______ ____
ROOT
ATOM      1  C   UNL     1      -3.944   3.140   0.739  0.00  0.00    +0.113 A 
ATOM      2  C   UNL     1      -3.157   3.448   1.949  0.00  0.00    +0.040 A 
ATOM      3  C   UNL     1      -4.078   3.944   2.885  0.00  0.00    +0.137 A 
ATOM      4  C   UNL     1      -3.629   4.324   4.144  0.00  0.00    +0.050 A 
ATOM      5  C   UNL     1      -2.294   4.208   4.466  0.00  0.00    +0.050 A 
ATOM      6  C   UNL     1      -1.382   3.712   3.540  0.00  0.00    +0.134 A 
ATOM      7  C   UNL     1      -1.811   3.329   2.282  0.00  0.00    -0.010 A 
ATOM      8  O   UNL     1      -5.299   3.948   2.309  0.00  0.00    -0.454 OA
ATOM      9  C   UNL     1      -5.251   3.482   1.051  0.00  0.00    +0.150 A 
ENDROOT
BRANCH   9  10
ATOM     10  C   UNL     1      -6.407   3.352   0.144  0.00  0.00    +0.018 A 
ATOM     11  C   UNL     1      -6.231   2.856  -1.150  0.00  0.00    +0.011 A 
ATOM     12  C   UNL     1      -7.317   2.733  -1.991  0.00  0.00    +0.001 A 
ATOM     13  C   UNL     1      -8.577   3.111  -1.560  0.00  0.00    +0.000 A 
ATOM     14  C   UNL     1      -8.758   3.608  -0.281  0.00  0.00    +0.001 A 
ATOM     15  C   UNL     1      -7.681   3.731   0.573  0.00  0.00    +0.011 A 
ENDBRANCH   9  10
BRANCH   1  16
ATOM     16  C   UNL     1      -3.448   2.592  -0.527  0.00  0.00    +0.343 C 
ATOM     17  O   UNL     1      -3.072   3.342  -1.407  0.00  0.00    -0.245 OA
BRANCH  16  18
ATOM     18  O   UNL     1      -3.409   1.257  -0.715  0.00  0.00    -0.461 OA
BRANCH  18  20
ATOM     19  C   UNL     1      -2.936  -0.743  -2.021  0.00  0.00    +0.048 C 
ATOM     20  C   UNL     1      -2.906   0.786  -1.993  0.00  0.00    +0.229 C 
ENDBRANCH  18  20
ENDBRANCH  16  18
ENDBRANCH   1  16
BRANCH   7  21
ATOM     21  C   UNL     1      -0.826   2.791   1.276  0.00  0.00    -0.039 C 
BRANCH  21  24
ATOM     22  C   UNL     1      -0.048   0.736   0.260  0.00  0.00    -0.096 C 
ATOM     23  C   UNL     1      -0.057   0.967   2.670  0.00  0.00    -0.096 C 
ATOM     24  N   UNL     1      -0.757   1.321   1.417  0.00  0.00    +0.379 N 
ATOM     25  H   UNL     1      -1.711   0.944   1.450  0.00  0.00    -0.082 HD
ENDBRANCH  21  24
ENDBRANCH   7  21
BRANCH   6  26
ATOM     26  O   UNL     1      -0.068   3.602   3.872  0.00  0.00    -0.422 OA
BRANCH  26  27
ATOM     27  C   UNL     1       0.738   4.624   3.524  0.00  0.00    +0.344 C 
ATOM     28  O   UNL     1       0.265   5.631   3.035  0.00  0.00    -0.245 OA
BRANCH  27  29
ATOM     29  C   UNL     1       2.195   4.521   3.736  0.00  0.00    +0.059 A 
ATOM     30  C   UNL     1       2.741   3.367   4.303  0.00  0.00    +0.016 A 
ATOM     31  C   UNL     1       4.103   3.274   4.494  0.00  0.00    +0.021 A 
ATOM     32  C   UNL     1       4.929   4.327   4.135  0.00  0.00    +0.041 A 
ATOM     33  C   UNL     1       4.393   5.476   3.578  0.00  0.00    +0.021 A 
ATOM     34  C   UNL     1       3.033   5.578   3.376  0.00  0.00    +0.016 A 
ATOM     35 CL   UNL     1       6.643   4.205   4.385  0.00  0.00    -0.084 Cl
ENDBRANCH  27  29
ENDBRANCH  26  27
ENDBRANCH   6  26
TORSDOF 9
