REMARK  Name = ZINC12822499
REMARK  11 active torsions:
REMARK  status: ('A' for Active; 'I' for Inactive)
REMARK    1  A    between atoms: C_1  and  C_2
REMARK    2  A    between atoms: C_5  and  S_9
REMARK    3  A    between atoms: C_7  and  C_8
REMARK    4  A    between atoms: S_9  and  N_12
REMARK    5  A    between atoms: N_12  and  C_13
REMARK    6  A    between atoms: C_13  and  C_15
REMARK    7  A    between atoms: C_13  and  C_18
REMARK    8  A    between atoms: C_15  and  C_16
REMARK    9  A    between atoms: C_15  and  C_17
REMARK   10  A    between atoms: C_23  and  C_26
REMARK   11  A    between atoms: C_26  and  C_27
REMARK                            x       y       z     vdW  Elec       q    Type
REMARK                         _______ _______ _______ _____ _____    ______ ____
ROOT
ATOM      1  C   UNL     1      -0.870   1.669   1.370  0.00  0.00    +0.165 C 
ENDROOT
BRANCH   1   2
ATOM      2  C   UNL     1      -2.260   1.867   1.918  0.00  0.00    +0.238 C 
ATOM      3  O   UNL     1      -2.475   1.698   3.100  0.00  0.00    -0.274 OA
ATOM      4  N   UNL     1      -3.263   2.232   1.096  0.00  0.00    -0.263 N 
ATOM      5  C   UNL     1      -4.519   2.518   1.617  0.00  0.00    +0.165 A 
ATOM      6  N   UNL     1      -5.614   2.893   0.983  0.00  0.00    -0.229 NA
ATOM      7  C   UNL     1      -6.737   3.122   1.635  0.00  0.00    +0.059 A 
ATOM      8  C   UNL     1      -6.742   2.976   2.983  0.00  0.00    +0.072 A 
ATOM      9  S   UNL     1      -5.049   2.482   3.270  0.00  0.00    -0.060 S 
ATOM     10  H   UNL     1      -3.108   2.294   0.140  0.00  0.00    +0.157 HD
BRANCH   7  11
ATOM     11  C   UNL     1      -7.983   3.543   0.900  0.00  0.00    +0.151 C 
BRANCH  11  12
ATOM     12  C   UNL     1      -7.688   4.766   0.070  0.00  0.00    +0.216 C 
ATOM     13  O   UNL     1      -6.575   5.249   0.076  0.00  0.00    -0.276 OA
ATOM     14  N   UNL     1      -8.661   5.324  -0.677  0.00  0.00    -0.329 N 
ATOM     15  H   UNL     1      -9.550   4.938  -0.681  0.00  0.00    +0.145 HD
ATOM     16  H   UNL     1      -8.471   6.112  -1.211  0.00  0.00    +0.145 HD
ENDBRANCH  11  12
ENDBRANCH   7  11
ENDBRANCH   1   2
BRANCH   1  17
ATOM     17  C   UNL     1      -0.780   0.302   0.689  0.00  0.00    +0.010 C 
ATOM     18  C   UNL     1      -0.959  -0.801   1.734  0.00  0.00    +0.009 C 
ATOM     19  C   UNL     1       0.588   0.154   0.020  0.00  0.00    +0.009 C 
ENDBRANCH   1  17
BRANCH   1  20
ATOM     20  N   UNL     1       0.101   1.734   2.465  0.00  0.00    -0.178 NA
ATOM     21  H   UNL     1       0.096   1.055   3.158  0.00  0.00    +0.149 HD
BRANCH  20  22
ATOM     22  S   UNL     1       1.206   2.966   2.520  0.00  0.00    +0.059 S 
ATOM     23  O   UNL     1       1.952   2.789   3.717  0.00  0.00    -0.153 OA
ATOM     24  O   UNL     1       1.821   3.016   1.240  0.00  0.00    -0.153 OA
BRANCH  22  29
ATOM     25  C   UNL     1      -1.884   8.109   3.153  0.00  0.00    +0.044 C 
ATOM     26  C   UNL     1      -1.112   6.825   2.995  0.00  0.00    -0.047 A 
ATOM     27  C   UNL     1      -0.820   6.344   1.732  0.00  0.00    +0.005 A 
ATOM     28  C   UNL     1      -0.108   5.169   1.587  0.00  0.00    +0.029 A 
ATOM     29  C   UNL     1       0.304   4.468   2.705  0.00  0.00    +0.106 A 
ATOM     30  C   UNL     1       0.013   4.948   3.968  0.00  0.00    +0.032 A 
ATOM     31  C   UNL     1      -0.695   6.127   4.113  0.00  0.00    -0.046 A 
ATOM     32  C   UNL     1      -1.013   6.650   5.490  0.00  0.00    +0.044 C 
ENDBRANCH  22  29
ENDBRANCH  20  22
ENDBRANCH   1  20
TORSDOF 7
