REMARK  Name = ZINC00752577
REMARK  4 active torsions:
REMARK  status: ('A' for Active; 'I' for Inactive)
REMARK    1  A    between atoms: C_4  and  C_7
REMARK    2  A    between atoms: C_12  and  C_20
REMARK    3  A    between atoms: C_14  and  C_18
REMARK    4  A    between atoms: C_15  and  N_17
REMARK                            x       y       z     vdW  Elec       q    Type
REMARK                         _______ _______ _______ _____ _____    ______ ____
ROOT
ATOM      1  C   UNL     1       0.192  -2.713  -0.730  0.00  0.00    +0.034 C 
ATOM      2  C   UNL     1       1.134  -2.186   0.354  0.00  0.00    +0.083 C 
ATOM      3  C   UNL     1       1.113  -0.676   0.357  0.00  0.00    +0.115 C 
ATOM      4  C   UNL     1       0.002  -0.004   0.002  0.00  0.00    +0.046 C 
ATOM      5  C   UNL     1      -0.018   1.505   0.010  0.00  0.00    +0.108 C 
ATOM      6  C   UNL     1       1.386   2.040  -0.000  0.00  0.00    +0.099 C 
ATOM      7  C   UNL     1       2.425   1.246   0.354  0.00  0.00    +0.198 C 
ATOM      8  O   UNL     1       2.234  -0.029   0.727  0.00  0.00    -0.445 OA
ATOM      9  C   UNL     1      -1.170  -0.681  -0.388  0.00  0.00    +0.164 C 
ATOM     10  O   UNL     1      -2.159  -0.040  -0.682  0.00  0.00    -0.292 OA
ATOM     11  C   UNL     1      -1.218  -2.183  -0.447  0.00  0.00    +0.088 C 
ENDROOT
BRANCH   1  15
ATOM     12  C   UNL     1       0.164  -6.984  -0.656  0.00  0.00    +0.000 A 
ATOM     13  C   UNL     1       0.544  -6.315  -1.804  0.00  0.00    +0.000 A 
ATOM     14  C   UNL     1       0.554  -4.933  -1.828  0.00  0.00    +0.004 A 
ATOM     15  C   UNL     1       0.182  -4.220  -0.704  0.00  0.00    -0.043 A 
ATOM     16  C   UNL     1      -0.194  -4.889   0.446  0.00  0.00    +0.004 A 
ATOM     17  C   UNL     1      -0.207  -6.271   0.469  0.00  0.00    +0.000 A 
ENDBRANCH   1  15
BRANCH   5  18
ATOM     18  C   UNL     1      -0.728   1.989   1.249  0.00  0.00    +0.004 A 
ATOM     19  C   UNL     1      -1.840   2.758   1.350  0.00  0.00    +0.027 A 
ATOM     20  C   UNL     1      -2.322   3.078   2.606  0.00  0.00    +0.025 A 
ATOM     21  C   UNL     1      -1.661   2.622   3.699  0.00  0.00    +0.060 A 
ATOM     22  S   UNL     1      -0.318   1.704   2.963  0.00  0.00    -0.100 S 
ATOM     23 BR   UNL     1      -3.874   4.141   2.797  0.00  0.00    -0.050 Br
ENDBRANCH   5  18
BRANCH   7  24
ATOM     24  N   UNL     1       3.700   1.755   0.331  0.00  0.00    -0.328 N 
ATOM     25  H   UNL     1       4.450   1.195   0.583  0.00  0.00    +0.145 HD
ATOM     26  H   UNL     1       3.849   2.675   0.063  0.00  0.00    +0.145 HD
ENDBRANCH   7  24
BRANCH   6  27
ATOM     27  C   UNL     1       1.628   3.398  -0.387  0.00  0.00    +0.101 C 
ATOM     28  N   UNL     1       1.820   4.474  -0.694  0.00  0.00    -0.191 NA
ENDBRANCH   6  27
TORSDOF 4
