REMARK  Name = ZINC09670287
REMARK  14 active torsions:
REMARK  status: ('A' for Active; 'I' for Inactive)
REMARK    1  A    between atoms: C_1  and  O_2
REMARK    2  A    between atoms: O_2  and  C_3
REMARK    3  A    between atoms: C_8  and  O_9
REMARK    4  A    between atoms: O_9  and  C_10
REMARK    5  A    between atoms: C_11  and  C_31
REMARK    6  A    between atoms: C_15  and  C_16
REMARK    7  A    between atoms: C_15  and  N_66
REMARK    8  A    between atoms: C_16  and  C_18
REMARK    9  A    between atoms: C_16  and  O_30
REMARK   10  A    between atoms: C_18  and  O_19
REMARK   11  A    between atoms: O_19  and  C_20
REMARK   12  A    between atoms: C_23  and  C_26
REMARK   13  A    between atoms: C_26  and  O_28
REMARK   14  A    between atoms: O_28  and  C_29
REMARK                            x       y       z     vdW  Elec       q    Type
REMARK                         _______ _______ _______ _____ _____    ______ ____
ROOT
ATOM      1  C   UNL     1       4.365 -11.239   0.723  0.00  0.00    +0.162 A 
ATOM      2  C   UNL     1       3.452 -10.484   0.008  0.00  0.00    +0.053 A 
ATOM      3  C   UNL     1       3.564  -9.102  -0.032  0.00  0.00    -0.044 A 
ATOM      4  C   UNL     1       4.591  -8.474   0.640  0.00  0.00    -0.050 A 
ATOM      5  C   UNL     1       5.507  -9.227   1.360  0.00  0.00    +0.052 A 
ATOM      6  C   UNL     1       5.400 -10.606   1.405  0.00  0.00    +0.162 A 
ATOM      7  C   UNL     1       4.755  -6.977   0.620  0.00  0.00    -0.006 C 
ATOM      8  C   UNL     1       3.057  -6.909  -1.089  0.00  0.00    -0.073 C 
ATOM      9  C   UNL     1       2.543  -8.324  -0.822  0.00  0.00    +0.017 C 
ATOM     10  N   UNL     1       3.497  -6.337   0.201  0.00  0.00    +0.389 N 
ATOM     11  H   UNL     1       2.777  -6.517   0.911  0.00  0.00    -0.080 HD
ENDROOT
BRANCH   7  12
ATOM     12  C   UNL     1       5.109  -6.496   2.003  0.00  0.00    -0.057 A 
ATOM     13  C   UNL     1       4.116  -6.315   2.948  0.00  0.00    +0.002 A 
ATOM     14  C   UNL     1       4.442  -5.878   4.218  0.00  0.00    +0.000 A 
ATOM     15  C   UNL     1       5.759  -5.612   4.541  0.00  0.00    +0.000 A 
ATOM     16  C   UNL     1       6.752  -5.787   3.595  0.00  0.00    +0.000 A 
ATOM     17  C   UNL     1       6.427  -6.229   2.326  0.00  0.00    +0.002 A 
ENDBRANCH   7  12
BRANCH   1  19
ATOM     18  C   UNL     1       3.164 -13.174   0.036  0.00  0.00    +0.277 C 
ATOM     19  O   UNL     1       4.252 -12.594   0.759  0.00  0.00    -0.491 OA
ENDBRANCH   1  19
BRANCH   6  20
ATOM     20  O   UNL     1       6.301 -11.339   2.112  0.00  0.00    -0.491 OA
ATOM     21  C   UNL     1       7.336 -10.619   2.786  0.00  0.00    +0.277 C 
ENDBRANCH   6  20
BRANCH  10  22
ATOM     22  C   UNL     1       3.689  -4.876   0.070  0.00  0.00    -0.042 C 
BRANCH  22  23
ATOM     23  C   UNL     1       2.322  -4.191   0.126  0.00  0.00    +0.135 C 
BRANCH  23  24
ATOM     24  O   UNL     1       1.566  -4.540  -1.035  0.00  0.00    -0.390 OA
ATOM     25  H   UNL     1       1.982  -4.279  -1.869  0.00  0.00    +0.210 HD
ENDBRANCH  23  24
BRANCH  23  26
ATOM     26  C   UNL     1       2.514  -2.674   0.173  0.00  0.00    +0.258 C 
BRANCH  26  27
ATOM     27  O   UNL     1       1.246  -2.038   0.342  0.00  0.00    -0.489 OA
BRANCH  27  28
ATOM     28  C   UNL     1       1.239  -0.683   0.404  0.00  0.00    +0.121 A 
ATOM     29  C   UNL     1       0.038  -0.002   0.568  0.00  0.00    +0.046 A 
ATOM     30  C   UNL     1       0.027   1.373   0.632  0.00  0.00    +0.018 A 
ATOM     31  C   UNL     1       1.226   2.085   0.531  0.00  0.00    +0.059 A 
ATOM     32  C   UNL     1       2.431   1.397   0.366  0.00  0.00    +0.018 A 
ATOM     33  C   UNL     1       2.433   0.022   0.303  0.00  0.00    +0.046 A 
BRANCH  31  34
ATOM     34  C   UNL     1       1.219   3.558   0.599  0.00  0.00    +0.339 C 
ATOM     35  O   UNL     1       0.170   4.155   0.743  0.00  0.00    -0.245 OA
BRANCH  34  36
ATOM     36  O   UNL     1       2.375   4.243   0.501  0.00  0.00    -0.464 OA
ATOM     37  C   UNL     1       2.293   5.691   0.577  0.00  0.00    +0.280 C 
ENDBRANCH  34  36
ENDBRANCH  31  34
ENDBRANCH  27  28
ENDBRANCH  26  27
ENDBRANCH  23  26
ENDBRANCH  22  23
ENDBRANCH  10  22
TORSDOF 11
