REMARK  Name = ZINC40826720
REMARK  9 active torsions:
REMARK  status: ('A' for Active; 'I' for Inactive)
REMARK    1  A    between atoms: C_1  and  C_2
REMARK    2  A    between atoms: C_7  and  N_8
REMARK    3  A    between atoms: C_9  and  C_11
REMARK    4  A    between atoms: C_12  and  C_36
REMARK    5  A    between atoms: N_20  and  N_21
REMARK    6  A    between atoms: C_22  and  C_24
REMARK    7  A    between atoms: C_24  and  C_25
REMARK    8  A    between atoms: C_32  and  C_35
REMARK    9  A    between atoms: C_33  and  C_34
REMARK                            x       y       z     vdW  Elec       q    Type
REMARK                         _______ _______ _______ _____ _____    ______ ____
ROOT
ATOM      1  C   UNL     1      -0.166   0.032   4.847  0.00  0.00    +0.193 A 
ATOM      2  C   UNL     1      -0.249  -0.537   6.088  0.00  0.00    +0.009 A 
ATOM      3  C   UNL     1      -0.337   0.523   6.998  0.00  0.00    +0.042 A 
ATOM      4  C   UNL     1      -0.304   1.692   6.275  0.00  0.00    +0.115 A 
ATOM      5  O   UNL     1      -0.194   1.377   4.987  0.00  0.00    -0.454 OA
ATOM      6  C   UNL     1      -0.383   3.055   6.915  0.00  0.00    +0.075 C 
ATOM      7  C   UNL     1      -0.999   2.927   8.311  0.00  0.00    +0.014 C 
ATOM      8  C   UNL     1      -0.251   1.877   9.138  0.00  0.00    +0.058 C 
ATOM      9  C   UNL     1      -0.445   0.521   8.474  0.00  0.00    +0.070 C 
ATOM     10  N   UNL     1      -0.687  -0.558   9.153  0.00  0.00    -0.184 NA
ATOM     11  C   UNL     1      -0.248  -2.009   6.410  0.00  0.00    +0.048 C 
ENDROOT
BRANCH   1  13
ATOM     12  N   UNL     1       0.025  -0.015   2.416  0.00  0.00    -0.279 N 
ATOM     13  C   UNL     1      -0.057  -0.695   3.577  0.00  0.00    +0.284 C 
ATOM     14  O   UNL     1      -0.040  -1.912   3.572  0.00  0.00    -0.266 OA
ATOM     15  H   UNL     1       0.077   0.953   2.424  0.00  0.00    +0.155 HD
BRANCH  12  22
ATOM     16  C   UNL     1      -1.267   1.182   0.182  0.00  0.00    +0.045 C 
ATOM     17  C   UNL     1      -0.585  -0.159   0.085  0.00  0.00    -0.029 A 
ATOM     18  C   UNL     1      -0.570  -0.841  -1.116  0.00  0.00    +0.005 A 
ATOM     19  C   UNL     1       0.055  -2.071  -1.206  0.00  0.00    +0.000 A 
ATOM     20  C   UNL     1       0.667  -2.622  -0.095  0.00  0.00    +0.002 A 
ATOM     21  C   UNL     1       0.656  -1.945   1.108  0.00  0.00    +0.023 A 
ATOM     22  C   UNL     1       0.033  -0.706   1.201  0.00  0.00    +0.037 A 
ENDBRANCH  12  22
ENDBRANCH   1  13
BRANCH  10  23
ATOM     23  N   UNL     1      -0.779  -0.501  10.549  0.00  0.00    -0.206 N 
ATOM     24  C   UNL     1      -1.031  -1.622  11.254  0.00  0.00    +0.237 C 
ATOM     25  O   UNL     1      -1.179  -2.680  10.679  0.00  0.00    -0.274 OA
ATOM     26  H   UNL     1      -0.661   0.344  11.009  0.00  0.00    +0.177 HD
BRANCH  24  27
ATOM     27  C   UNL     1      -1.130  -1.561  12.757  0.00  0.00    +0.136 C 
BRANCH  27  28
ATOM     28  C   UNL     1      -1.416  -2.939  13.297  0.00  0.00    +0.007 A 
ATOM     29  C   UNL     1      -2.617  -3.454  13.591  0.00  0.00    +0.200 A 
ATOM     30  O   UNL     1      -2.482  -4.710  14.051  0.00  0.00    -0.462 OA
ATOM     31  C   UNL     1      -1.185  -5.076  14.079  0.00  0.00    +0.138 A 
ATOM     32  C   UNL     1      -0.435  -3.987  13.602  0.00  0.00    +0.024 A 
ATOM     33  C   UNL     1       0.953  -4.078  13.514  0.00  0.00    +0.012 A 
ATOM     34  C   UNL     1       1.584  -5.242  13.893  0.00  0.00    +0.004 A 
ATOM     35  C   UNL     1       0.844  -6.319  14.361  0.00  0.00    -0.044 A 
ATOM     36  C   UNL     1      -0.528  -6.239  14.461  0.00  0.00    -0.005 A 
ATOM     37  C   UNL     1      -1.317  -7.418  14.969  0.00  0.00    +0.048 C 
ATOM     38  C   UNL     1       1.549  -7.586  14.772  0.00  0.00    +0.044 C 
ENDBRANCH  27  28
ENDBRANCH  24  27
ENDBRANCH  10  23
TORSDOF 5
