REMARK  Name = ZINC02099431
REMARK  2 active torsions:
REMARK  status: ('A' for Active; 'I' for Inactive)
REMARK    1  A    between atoms: C_11  and  C_32
REMARK    2  A    between atoms: N_19  and  C_22
REMARK                            x       y       z     vdW  Elec       q    Type
REMARK                         _______ _______ _______ _____ _____    ______ ____
ROOT
ATOM      1  C   UNL     1      -1.178   1.844  -0.031  0.00  0.00    +0.001 A 
ATOM      2  C   UNL     1      -1.194   3.229   0.002  0.00  0.00    +0.002 A 
ATOM      3  C   UNL     1      -0.033   3.982   0.019  0.00  0.00    +0.026 A 
ATOM      4  C   UNL     1       1.172   3.282   0.007  0.00  0.00    +0.047 A 
ATOM      5  C   UNL     1       1.183   1.865  -0.022  0.00  0.00    +0.003 A 
ATOM      6  C   UNL     1      -0.006   1.129  -0.037  0.00  0.00    +0.010 A 
ATOM      7  C   UNL     1       2.580   1.472  -0.033  0.00  0.00    -0.015 A 
ATOM      8  C   UNL     1       3.304   2.610  -0.003  0.00  0.00    +0.046 A 
ATOM      9  N   UNL     1       2.472   3.697   0.020  0.00  0.00    -0.356 N 
ATOM     10  H   UNL     1       2.763   4.623   0.042  0.00  0.00    +0.166 HD
ATOM     11  C   UNL     1       4.820   2.641   0.011  0.00  0.00    +0.156 C 
ATOM     12  N   UNL     1       5.261   1.259  -0.214  0.00  0.00    -0.260 N 
ATOM     13  C   UNL     1       4.595   0.086   0.394  0.00  0.00    +0.170 C 
ATOM     14  C   UNL     1       3.131   0.086  -0.060  0.00  0.00    +0.069 C 
ATOM     15  C   UNL     1       5.342  -1.082  -0.217  0.00  0.00    +0.248 C 
ATOM     16  O   UNL     1       5.117  -2.261  -0.049  0.00  0.00    -0.273 OA
ATOM     17  N   UNL     1       6.308  -0.539  -0.986  0.00  0.00    -0.192 N 
ATOM     18  C   UNL     1       6.266   0.801  -0.962  0.00  0.00    +0.317 C 
ATOM     19  O   UNL     1       7.053   1.514  -1.553  0.00  0.00    -0.252 OA
ENDROOT
BRANCH  17  20
ATOM     20  C   UNL     1       7.242  -1.286  -1.721  0.00  0.00    +0.049 A 
ATOM     21  C   UNL     1       8.119  -0.643  -2.585  0.00  0.00    +0.028 A 
ATOM     22  C   UNL     1       9.037  -1.377  -3.309  0.00  0.00    +0.051 A 
ATOM     23  C   UNL     1       9.087  -2.757  -3.177  0.00  0.00    +0.162 A 
ATOM     24  C   UNL     1       8.212  -3.403  -2.312  0.00  0.00    +0.164 A 
ATOM     25  C   UNL     1       7.293  -2.665  -1.581  0.00  0.00    +0.073 A 
ATOM     26  O   UNL     1       8.248  -4.755  -2.165  0.00  0.00    -0.485 OA
ATOM     27  C   UNL     1       8.926  -5.495  -3.186  0.00  0.00    +0.270 C 
ATOM     28  C   UNL     1      10.265  -4.803  -3.473  0.00  0.00    +0.270 C 
ATOM     29  O   UNL     1       9.994  -3.465  -3.906  0.00  0.00    -0.485 OA
ENDBRANCH  17  20
BRANCH  11  30
ATOM     30  C   UNL     1       5.330   3.536  -1.089  0.00  0.00    -0.020 A 
ATOM     31  C   UNL     1       5.733   4.826  -0.800  0.00  0.00    +0.006 A 
ATOM     32  C   UNL     1       6.202   5.647  -1.809  0.00  0.00    +0.002 A 
ATOM     33  C   UNL     1       6.267   5.178  -3.107  0.00  0.00    +0.020 A 
ATOM     34  C   UNL     1       5.863   3.887  -3.397  0.00  0.00    +0.041 A 
ATOM     35  C   UNL     1       5.399   3.064  -2.386  0.00  0.00    +0.025 A 
ATOM     36 CL   UNL     1       5.944   3.297  -5.028  0.00  0.00    -0.084 Cl
ENDBRANCH  11  30
TORSDOF 2
