REMARK  Name = ZINC21840463
REMARK  4 active torsions:
REMARK  status: ('A' for Active; 'I' for Inactive)
REMARK    1  A    between atoms: C_9  and  C_12
REMARK    2  A    between atoms: N_14  and  N_15
REMARK    3  A    between atoms: C_16  and  C_18
REMARK    4  A    between atoms: C_20  and  C_24
REMARK                            x       y       z     vdW  Elec       q    Type
REMARK                         _______ _______ _______ _____ _____    ______ ____
ROOT
ATOM      1  N   UNL     1      -5.965   2.358   0.111  0.00  0.00    -0.229 N 
ATOM      2  C   UNL     1      -7.188   1.892  -0.209  0.00  0.00    +0.278 C 
ATOM      3  O   UNL     1      -7.299   0.846  -0.821  0.00  0.00    -0.267 OA
ATOM      4  H   UNL     1      -5.864   3.304   0.664  0.00  0.00    +0.173 HD
ENDROOT
BRANCH   2   5
ATOM      5  C   UNL     1      -8.389   2.647   0.182  0.00  0.00    +0.122 A 
ATOM      6  C   UNL     1      -9.703   2.304  -0.077  0.00  0.00    +0.062 A 
ATOM      7  C   UNL     1     -10.474   3.332   0.495  0.00  0.00    +0.093 A 
ATOM      8  N   UNL     1      -9.644   4.200   1.032  0.00  0.00    -0.173 NA
ATOM      9  N   UNL     1      -8.426   3.829   0.867  0.00  0.00    -0.272 N 
ATOM     10  H   UNL     1      -7.489   4.310   1.184  0.00  0.00    +0.189 HD
BRANCH   7  11
ATOM     11  C   UNL     1     -11.956   3.424   0.487  0.00  0.00    +0.002 A 
ATOM     12  C   UNL     1     -12.715   2.430  -0.127  0.00  0.00    +0.011 A 
ATOM     13  C   UNL     1     -14.092   2.518  -0.127  0.00  0.00    +0.016 A 
ATOM     14  C   UNL     1     -14.719   3.596   0.473  0.00  0.00    +0.018 A 
ATOM     15  C   UNL     1     -13.970   4.589   1.080  0.00  0.00    +0.016 A 
ATOM     16  C   UNL     1     -12.592   4.507   1.090  0.00  0.00    +0.011 A 
ATOM     17 BR   UNL     1     -16.607   3.714   0.463  0.00  0.00    -0.050 Br
ENDBRANCH   7  11
ENDBRANCH   2   5
BRANCH   1  20
ATOM     18  C   UNL     1      -3.598   2.106   0.059  0.00  0.00    +0.273 C 
ATOM     19  O   UNL     1      -3.487   3.148   0.669  0.00  0.00    -0.270 OA
ATOM     20  N   UNL     1      -4.821   1.639  -0.261  0.00  0.00    -0.231 N 
ATOM     21  H   UNL     1      -4.922   0.694  -0.814  0.00  0.00    +0.173 HD
BRANCH  18  30
ATOM     22  C   UNL     1       2.401   0.032  -0.015  0.00  0.00    +0.004 A 
ATOM     23  C   UNL     1       2.382   1.414  -0.011  0.00  0.00    +0.004 A 
ATOM     24  C   UNL     1       1.177   2.091   0.002  0.00  0.00    +0.049 A 
ATOM     25  C   UNL     1      -0.017   1.385   0.010  0.00  0.00    +0.163 A 
ATOM     26  C   UNL     1       0.002  -0.004   0.002  0.00  0.00    +0.162 A 
ATOM     27  C   UNL     1       1.215  -0.677  -0.009  0.00  0.00    +0.049 A 
ATOM     28  O   UNL     1      -1.158  -0.716   0.002  0.00  0.00    -0.484 OA
ATOM     29  C   UNL     1      -2.343  -0.015   0.393  0.00  0.00    +0.283 C 
ATOM     30  C   UNL     1      -2.368   1.333  -0.341  0.00  0.00    +0.297 C 
ATOM     31  O   UNL     1      -1.195   2.066   0.030  0.00  0.00    -0.472 OA
ENDBRANCH  18  30
ENDBRANCH   1  20
TORSDOF 4
