REMARK  Name = ZINC41585889
REMARK  4 active torsions:
REMARK  status: ('A' for Active; 'I' for Inactive)
REMARK    1  A    between atoms: N_10  and  C_13
REMARK    2  A    between atoms: C_13  and  C_14
REMARK    3  A    between atoms: C_15  and  O_33
REMARK    4  A    between atoms: C_22  and  C_23
REMARK                            x       y       z     vdW  Elec       q    Type
REMARK                         _______ _______ _______ _____ _____    ______ ____
ROOT
ATOM      1  C   UNL     1       0.405  -6.750   1.671  0.00  0.00    +0.051 A 
ATOM      2  C   UNL     1      -0.796  -6.597   2.344  0.00  0.00    +0.125 A 
ATOM      3  C   UNL     1      -1.842  -7.492   2.139  0.00  0.00    +0.046 A 
ATOM      4  C   UNL     1      -1.693  -8.534   1.269  0.00  0.00    +0.019 A 
ATOM      5  C   UNL     1      -0.489  -8.701   0.584  0.00  0.00    +0.068 A 
ATOM      6  C   UNL     1       0.571  -7.802   0.778  0.00  0.00    +0.147 A 
ATOM      7  O   UNL     1       1.621  -8.161   0.007  0.00  0.00    -0.451 OA
ATOM      8  C   UNL     1       1.352  -9.268  -0.725  0.00  0.00    +0.176 C 
ATOM      9  C   UNL     1       2.196  -9.879  -1.594  0.00  0.00    +0.061 C 
ATOM     10  C   UNL     1      -0.017  -9.695  -0.398  0.00  0.00    +0.231 C 
ATOM     11  O   UNL     1      -0.629 -10.648  -0.847  0.00  0.00    -0.283 OA
ENDROOT
BRANCH   9  12
ATOM     12  C   UNL     1       3.545  -9.340  -1.809  0.00  0.00    +0.015 A 
ATOM     13  C   UNL     1       3.725  -7.978  -2.083  0.00  0.00    +0.050 A 
ATOM     14  C   UNL     1       4.997  -7.481  -2.283  0.00  0.00    +0.021 A 
ATOM     15  C   UNL     1       6.092  -8.323  -2.213  0.00  0.00    +0.003 A 
ATOM     16  C   UNL     1       5.925  -9.670  -1.943  0.00  0.00    +0.021 A 
ATOM     17  C   UNL     1       4.661 -10.184  -1.735  0.00  0.00    +0.050 A 
ATOM     18 CL   UNL     1       4.454 -11.872  -1.388  0.00  0.00    -0.083 Cl
ATOM     19 CL   UNL     1       2.352  -6.919  -2.173  0.00  0.00    -0.083 Cl
ENDBRANCH   9  12
BRANCH   2  20
ATOM     20  O   UNL     1      -0.954  -5.564   3.212  0.00  0.00    -0.506 OA
ATOM     21  H   UNL     1      -1.303  -4.759   2.806  0.00  0.00    +0.292 HD
ENDBRANCH   2  20
BRANCH   1  22
ATOM     22  C   UNL     1       1.529  -5.774   1.902  0.00  0.00    +0.127 C 
BRANCH  22  32
ATOM     23  C   UNL     1       2.370   1.437   0.009  0.00  0.00    +0.005 A 
ATOM     24  C   UNL     1       1.127   2.057   0.003  0.00  0.00    +0.018 A 
ATOM     25  C   UNL     1      -0.015   1.282  -0.012  0.00  0.00    +0.084 A 
ATOM     26  N   UNL     1       0.061  -0.036  -0.020  0.00  0.00    -0.350 N 
ATOM     27  C   UNL     1       1.227  -0.664  -0.014  0.00  0.00    +0.099 A 
ATOM     28  C   UNL     1       2.418   0.054   0.001  0.00  0.00    +0.042 A 
ATOM     29  N   UNL     1       1.260  -2.054  -0.022  0.00  0.00    -0.314 N 
ATOM     30  C   UNL     1       2.535  -2.777  -0.142  0.00  0.00    +0.122 C 
ATOM     31  C   UNL     1       2.615  -3.814   0.984  0.00  0.00    +0.103 C 
ATOM     32  N   UNL     1       1.414  -4.660   0.951  0.00  0.00    -0.295 NA
ATOM     33  C   UNL     1       0.200  -3.874   1.206  0.00  0.00    +0.103 C 
ATOM     34  C   UNL     1       0.023  -2.839   0.095  0.00  0.00    +0.122 C 
ATOM     35  H   UNL     1      -0.757  -0.557  -0.031  0.00  0.00    +0.166 HD
ENDBRANCH  22  32
ENDBRANCH   1  22
TORSDOF 4
