REMARK  Name = ZINC36483214
REMARK  11 active torsions:
REMARK  status: ('A' for Active; 'I' for Inactive)
REMARK    1  A    between atoms: C_1  and  C_2
REMARK    2  A    between atoms: C_2  and  C_3
REMARK    3  A    between atoms: C_3  and  C_4
REMARK    4  A    between atoms: C_4  and  N_5
REMARK    5  A    between atoms: C_6  and  C_8
REMARK    6  A    between atoms: C_8  and  C_10
REMARK    7  A    between atoms: C_8  and  N_17
REMARK    8  A    between atoms: C_15  and  O_16
REMARK    9  A    between atoms: N_17  and  C_18
REMARK   10  A    between atoms: C_25  and  C_27
REMARK   11  A    between atoms: C_32  and  O_33
REMARK                            x       y       z     vdW  Elec       q    Type
REMARK                         _______ _______ _______ _____ _____    ______ ____
ROOT
ATOM      1  N   UNL     1      -3.991  -5.861   0.883  0.00  0.00    -0.251 N 
ATOM      2  C   UNL     1      -5.061  -6.330   1.556  0.00  0.00    +0.255 C 
ATOM      3  O   UNL     1      -5.935  -5.565   1.917  0.00  0.00    -0.269 OA
ENDROOT
BRANCH   1   4
ATOM      4  C   UNL     1      -3.048  -6.752   0.362  0.00  0.00    +0.039 A 
ATOM      5  C   UNL     1      -2.740  -6.727  -0.992  0.00  0.00    +0.023 A 
ATOM      6  C   UNL     1      -1.808  -7.608  -1.504  0.00  0.00    +0.003 A 
ATOM      7  C   UNL     1      -1.181  -8.516  -0.671  0.00  0.00    +0.020 A 
ATOM      8  C   UNL     1      -1.485  -8.544   0.679  0.00  0.00    +0.043 A 
ATOM      9  C   UNL     1      -2.413  -7.660   1.198  0.00  0.00    +0.043 A 
ATOM     10 CL   UNL     1      -0.695  -9.685   1.722  0.00  0.00    -0.083 Cl
ENDBRANCH   1   4
BRANCH   2  11
ATOM     11  C   UNL     1      -5.172  -7.770   1.854  0.00  0.00    +0.079 A 
ATOM     12  C   UNL     1      -4.694  -8.715   0.943  0.00  0.00    +0.017 A 
ATOM     13  C   UNL     1      -4.801 -10.059   1.228  0.00  0.00    +0.001 A 
ATOM     14  C   UNL     1      -5.380 -10.478   2.415  0.00  0.00    +0.004 A 
ATOM     15  C   UNL     1      -5.856  -9.555   3.324  0.00  0.00    +0.046 A 
ATOM     16  C   UNL     1      -5.752  -8.198   3.056  0.00  0.00    +0.129 A 
BRANCH  16  17
ATOM     17  O   UNL     1      -6.214  -7.289   3.951  0.00  0.00    -0.506 OA
ATOM     18  H   UNL     1      -7.141  -7.046   3.821  0.00  0.00    +0.292 HD
ENDBRANCH  16  17
ENDBRANCH   2  11
BRANCH   1  19
ATOM     19  C   UNL     1      -3.817  -4.418   0.698  0.00  0.00    +0.201 C 
BRANCH  19  20
ATOM     20  C   UNL     1      -3.877  -4.090  -0.772  0.00  0.00    +0.024 A 
ATOM     21  C   UNL     1      -2.720  -3.774  -1.458  0.00  0.00    +0.009 A 
ATOM     22  C   UNL     1      -2.774  -3.472  -2.805  0.00  0.00    +0.001 A 
ATOM     23  C   UNL     1      -3.986  -3.485  -3.471  0.00  0.00    +0.004 A 
ATOM     24  C   UNL     1      -5.146  -3.800  -2.790  0.00  0.00    +0.046 A 
ATOM     25  C   UNL     1      -5.093  -4.109  -1.438  0.00  0.00    +0.122 A 
BRANCH  25  26
ATOM     26  O   UNL     1      -6.232  -4.425  -0.767  0.00  0.00    -0.506 OA
ATOM     27  H   UNL     1      -6.723  -3.658  -0.443  0.00  0.00    +0.292 HD
ENDBRANCH  25  26
ENDBRANCH  19  20
BRANCH  19  29
ATOM     28  N   UNL     1      -2.229  -2.697   1.495  0.00  0.00    -0.313 N 
ATOM     29  C   UNL     1      -2.479  -3.999   1.252  0.00  0.00    +0.239 C 
ATOM     30  O   UNL     1      -1.629  -4.833   1.480  0.00  0.00    -0.273 OA
ATOM     31  H   UNL     1      -2.882  -2.023   1.249  0.00  0.00    +0.149 HD
BRANCH  28  32
ATOM     32  C   UNL     1      -0.971  -2.299   2.131  0.00  0.00    +0.104 C 
BRANCH  32  33
ATOM     33  C   UNL     1      -0.939  -0.778   2.291  0.00  0.00    +0.018 C 
BRANCH  33  35
ATOM     34  C   UNL     1       0.408   1.158   3.115  0.00  0.00    +0.004 C 
ATOM     35  C   UNL     1       0.376  -0.363   2.955  0.00  0.00    -0.002 C 
ENDBRANCH  33  35
ENDBRANCH  32  33
ENDBRANCH  28  32
ENDBRANCH  19  29
ENDBRANCH   1  19
TORSDOF 10
