REMARK  Name = ZINC13637208
REMARK  5 active torsions:
REMARK  status: ('A' for Active; 'I' for Inactive)
REMARK    1  A    between atoms: C_1  and  O_2
REMARK    2  A    between atoms: O_2  and  C_3
REMARK    3  A    between atoms: C_3  and  C_5
REMARK    4  A    between atoms: C_12  and  C_21
REMARK    5  A    between atoms: C_24  and  O_27
REMARK                            x       y       z     vdW  Elec       q    Type
REMARK                         _______ _______ _______ _____ _____    ______ ____
ROOT
ATOM      1  C   UNL     1      -3.596   6.494   0.875  0.00  0.00    +0.080 A 
ATOM      2  C   UNL     1      -4.847   6.560   0.263  0.00  0.00    +0.017 A 
ATOM      3  C   UNL     1      -4.979   6.246  -1.072  0.00  0.00    +0.001 A 
ATOM      4  C   UNL     1      -3.867   5.858  -1.803  0.00  0.00    +0.006 A 
ATOM      5  C   UNL     1      -2.624   5.784  -1.213  0.00  0.00    -0.019 A 
ATOM      6  C   UNL     1      -2.457   6.112   0.136  0.00  0.00    +0.045 A 
ATOM      7  N   UNL     1      -1.239   6.109   0.792  0.00  0.00    -0.336 N 
ATOM      8  C   UNL     1      -0.074   5.628   0.032  0.00  0.00    +0.105 C 
ATOM      9  C   UNL     1      -0.218   6.150  -1.383  0.00  0.00    +0.029 C 
ATOM     10  C   UNL     1      -1.428   5.359  -1.972  0.00  0.00    +0.049 C 
ATOM     11  C   UNL     1      -1.286   5.567  -3.433  0.00  0.00    -0.023 C 
ATOM     12  C   UNL     1       0.000   5.750  -3.711  0.00  0.00    -0.030 C 
ATOM     13  C   UNL     1       0.823   5.713  -2.420  0.00  0.00    +0.033 C 
ATOM     14  H   UNL     1      -1.309   5.640   1.682  0.00  0.00    +0.147 HD
ENDROOT
BRANCH   8  15
ATOM     15  C   UNL     1      -0.054   4.121   0.024  0.00  0.00    -0.027 A 
ATOM     16  C   UNL     1       1.137   3.448  -0.176  0.00  0.00    +0.009 A 
ATOM     17  C   UNL     1       1.159   2.067  -0.183  0.00  0.00    +0.046 A 
ATOM     18  C   UNL     1      -0.016   1.355   0.009  0.00  0.00    +0.117 A 
ATOM     19  C   UNL     1      -1.211   2.032   0.204  0.00  0.00    +0.046 A 
ATOM     20  C   UNL     1      -1.226   3.414   0.216  0.00  0.00    +0.009 A 
BRANCH  18  21
ATOM     21  O   UNL     1       0.002  -0.004   0.002  0.00  0.00    -0.507 OA
ATOM     22  H   UNL     1       0.152  -0.400   0.871  0.00  0.00    +0.292 HD
ENDBRANCH  18  21
ENDBRANCH   8  15
BRANCH   1  23
ATOM     23  C   UNL     1      -3.463   6.825   2.304  0.00  0.00    +0.341 C 
ATOM     24  O   UNL     1      -2.375   6.769   2.843  0.00  0.00    -0.245 OA
BRANCH  23  26
ATOM     25  C   UNL     1      -4.343   7.503   4.418  0.00  0.00    +0.280 C 
ATOM     26  O   UNL     1      -4.549   7.191   3.015  0.00  0.00    -0.464 OA
ENDBRANCH  23  26
ENDBRANCH   1  23
TORSDOF 4
