REMARK  Name = ZINC01375957
REMARK  11 active torsions:
REMARK  status: ('A' for Active; 'I' for Inactive)
REMARK    1  A    between atoms: C_1  and  C_2
REMARK    2  A    between atoms: C_2  and  C_3
REMARK    3  A    between atoms: C_3  and  C_5
REMARK    4  A    between atoms: C_3  and  N_18
REMARK    5  A    between atoms: N_9  and  C_10
REMARK    6  A    between atoms: C_10  and  C_11
REMARK    7  A    between atoms: N_18  and  C_19
REMARK    8  A    between atoms: N_18  and  C_27
REMARK    9  A    between atoms: C_19  and  C_20
REMARK   10  A    between atoms: C_20  and  C_21
REMARK   11  A    between atoms: C_27  and  C_28
REMARK                            x       y       z     vdW  Elec       q    Type
REMARK                         _______ _______ _______ _____ _____    ______ ____
ROOT
ATOM      1  N   UNL     1      -2.223  -0.265   1.308  0.00  0.00    +0.389 N 
ATOM      2  H   UNL     1      -1.672  -0.477   2.126  0.00  0.00    -0.080 HD
ENDROOT
BRANCH   1   3
ATOM      3  C   UNL     1      -1.462  -0.616   0.101  0.00  0.00    +0.003 C 
BRANCH   3   4
ATOM      4  C   UNL     1      -2.263  -0.250  -1.121  0.00  0.00    +0.138 A 
ATOM      5  N   UNL     1      -3.539  -0.478  -1.319  0.00  0.00    -0.115 NA
ATOM      6  N   UNL     1      -3.850  -0.018  -2.481  0.00  0.00    -0.023 NA
ATOM      7  N   UNL     1      -2.807   0.498  -3.030  0.00  0.00    -0.044 NA
ATOM      8  N   UNL     1      -1.809   0.379  -2.221  0.00  0.00    -0.226 N 
BRANCH   8   9
ATOM      9  C   UNL     1      -0.438   0.840  -2.456  0.00  0.00    +0.182 C 
BRANCH   9  10
ATOM     10  C   UNL     1       0.352  -0.257  -3.123  0.00  0.00    -0.026 A 
ATOM     11  C   UNL     1       1.035  -1.181  -2.354  0.00  0.00    +0.008 A 
ATOM     12  C   UNL     1       1.760  -2.187  -2.964  0.00  0.00    +0.038 A 
ATOM     13  C   UNL     1       1.802  -2.269  -4.346  0.00  0.00    +0.123 A 
ATOM     14  C   UNL     1       1.119  -1.343  -5.114  0.00  0.00    +0.038 A 
ATOM     15  C   UNL     1       0.390  -0.341  -4.502  0.00  0.00    +0.008 A 
ATOM     16  F   UNL     1       2.511  -3.252  -4.943  0.00  0.00    -0.205 F 
ENDBRANCH   9  10
ENDBRANCH   8   9
ENDBRANCH   3   4
BRANCH   3  18
ATOM     17  C   UNL     1      -0.300  -2.479   1.294  0.00  0.00    +0.002 C 
ATOM     18  C   UNL     1      -1.181  -2.120   0.096  0.00  0.00    -0.011 C 
ENDBRANCH   3  18
ENDBRANCH   1   3
BRANCH   1  19
ATOM     19  C   UNL     1      -2.537   1.170   1.288  0.00  0.00    -0.073 C 
BRANCH  19  20
ATOM     20  C   UNL     1      -1.240   1.977   1.368  0.00  0.00    +0.016 C 
BRANCH  20  21
ATOM     21  C   UNL     1      -1.567   3.444   1.476  0.00  0.00    -0.049 A 
ATOM     22  C   UNL     1      -1.706   4.208   0.333  0.00  0.00    +0.003 A 
ATOM     23  C   UNL     1      -2.006   5.553   0.432  0.00  0.00    +0.000 A 
ATOM     24  C   UNL     1      -2.168   6.136   1.675  0.00  0.00    +0.000 A 
ATOM     25  C   UNL     1      -2.029   5.372   2.819  0.00  0.00    +0.000 A 
ATOM     26  C   UNL     1      -1.733   4.025   2.720  0.00  0.00    +0.003 A 
ENDBRANCH  20  21
ENDBRANCH  19  20
ENDBRANCH   1  19
BRANCH   1  27
ATOM     27  C   UNL     1      -3.471  -1.039   1.343  0.00  0.00    -0.037 C 
BRANCH  27  28
ATOM     28  C   UNL     1      -4.175  -0.798   2.654  0.00  0.00    +0.001 A 
ATOM     29  C   UNL     1      -5.155   0.137   2.732  0.00  0.00    +0.017 A 
ATOM     30  C   UNL     1      -5.819   0.348   4.018  0.00  0.00    +0.002 A 
ATOM     31  C   UNL     1      -6.837   1.300   4.158  0.00  0.00    +0.059 A 
ATOM     32  C   UNL     1      -7.443   1.477   5.382  0.00  0.00    +0.167 A 
ATOM     33  C   UNL     1      -7.047   0.708   6.483  0.00  0.00    +0.168 A 
ATOM     34  C   UNL     1      -6.043  -0.235   6.354  0.00  0.00    +0.075 A 
ATOM     35  C   UNL     1      -5.422  -0.424   5.126  0.00  0.00    +0.053 A 
ATOM     36  N   UNL     1      -4.417  -1.360   4.979  0.00  0.00    -0.322 N 
ATOM     37  H   UNL     1      -4.144  -1.892   5.743  0.00  0.00    +0.169 HD
ATOM     38  C   UNL     1      -3.817  -1.549   3.791  0.00  0.00    +0.251 A 
ATOM     39  O   UNL     1      -2.936  -2.387   3.697  0.00  0.00    -0.268 OA
ATOM     40  O   UNL     1      -7.798   1.077   7.561  0.00  0.00    -0.453 OA
ATOM     41  C   UNL     1      -8.367   2.354   7.216  0.00  0.00    +0.466 C 
ATOM     42  O   UNL     1      -8.440   2.322   5.779  0.00  0.00    -0.453 OA
ENDBRANCH  27  28
ENDBRANCH   1  27
TORSDOF 10
