REMARK  Name = ZINC41658100
REMARK  8 active torsions:
REMARK  status: ('A' for Active; 'I' for Inactive)
REMARK    1  A    between atoms: C_1  and  O_2
REMARK    2  A    between atoms: O_2  and  C_3
REMARK    3  A    between atoms: C_6  and  C_11
REMARK    4  A    between atoms: C_8  and  O_9
REMARK    5  A    between atoms: O_9  and  C_10
REMARK    6  A    between atoms: C_11  and  C_12
REMARK    7  A    between atoms: C_12  and  N_13
REMARK    8  A    between atoms: C_23  and  C_24
REMARK                            x       y       z     vdW  Elec       q    Type
REMARK                         _______ _______ _______ _____ _____    ______ ____
ROOT
ATOM      1  N   UNL     1       2.340  -3.378   6.595  0.00  0.00    -0.266 NA
ATOM      2  C   UNL     1       1.444  -3.470   7.757  0.00  0.00    +0.130 C 
ATOM      3  C   UNL     1       2.087  -4.315   8.826  0.00  0.00    +0.051 A 
ATOM      4  C   UNL     1       3.148  -5.153   8.527  0.00  0.00    +0.130 A 
ATOM      5  C   UNL     1       3.734  -5.932   9.524  0.00  0.00    +0.047 A 
ATOM      6  C   UNL     1       3.269  -5.876  10.806  0.00  0.00    +0.019 A 
ATOM      7  C   UNL     1       2.202  -5.034  11.121  0.00  0.00    +0.068 A 
ATOM      8  C   UNL     1       1.602  -4.245  10.127  0.00  0.00    +0.147 A 
ATOM      9  O   UNL     1       0.598  -3.519  10.665  0.00  0.00    -0.451 OA
ATOM     10  C   UNL     1       0.459  -3.757  11.991  0.00  0.00    +0.176 C 
ATOM     11  C   UNL     1      -0.455  -3.188  12.816  0.00  0.00    +0.058 C 
ATOM     12  C   UNL     1       1.480  -4.746  12.374  0.00  0.00    +0.231 C 
ATOM     13  O   UNL     1       1.683  -5.220  13.478  0.00  0.00    -0.283 OA
ATOM     14  O   UNL     1       3.638  -5.228   7.261  0.00  0.00    -0.476 OA
ATOM     15  C   UNL     1       2.812  -4.718   6.212  0.00  0.00    +0.318 C 
ENDROOT
BRANCH  11  16
ATOM     16  C   UNL     1      -1.341  -2.129  12.312  0.00  0.00    -0.020 A 
ATOM     17  C   UNL     1      -1.338  -1.797  10.952  0.00  0.00    +0.008 A 
ATOM     18  C   UNL     1      -2.172  -0.803  10.488  0.00  0.00    +0.002 A 
ATOM     19  C   UNL     1      -3.010  -0.132  11.361  0.00  0.00    +0.015 A 
ATOM     20  C   UNL     1      -3.019  -0.454  12.709  0.00  0.00    +0.018 A 
ATOM     21  C   UNL     1      -2.195  -1.451  13.189  0.00  0.00    +0.023 A 
ATOM     22 BR   UNL     1      -4.168   0.471  13.892  0.00  0.00    -0.050 Br
ENDBRANCH  11  16
BRANCH   1  23
ATOM     23  C   UNL     1       1.674  -2.711   5.468  0.00  0.00    +0.092 C 
BRANCH  23  24
ATOM     24  C   UNL     1       2.696  -2.435   4.363  0.00  0.00    +0.050 C 
BRANCH  24  28
ATOM     25  C   UNL     1       0.759  -0.490   1.084  0.00  0.00    +0.161 A 
ATOM     26  C   UNL     1       1.315   0.260   2.108  0.00  0.00    +0.049 A 
ATOM     27  C   UNL     1       1.940  -0.371   3.167  0.00  0.00    +0.007 A 
ATOM     28  C   UNL     1       2.013  -1.751   3.207  0.00  0.00    -0.042 A 
ATOM     29  C   UNL     1       1.460  -2.506   2.188  0.00  0.00    +0.053 A 
ATOM     30  C   UNL     1       0.827  -1.879   1.127  0.00  0.00    +0.162 A 
BRANCH  25  32
ATOM     31  C   UNL     1       0.111   1.559   0.064  0.00  0.00    +0.277 C 
ATOM     32  O   UNL     1       0.143   0.130   0.042  0.00  0.00    -0.491 OA
ENDBRANCH  25  32
BRANCH  30  33
ATOM     33  O   UNL     1       0.278  -2.620   0.128  0.00  0.00    -0.491 OA
ATOM     34  C   UNL     1       0.386  -4.040   0.239  0.00  0.00    +0.277 C 
ENDBRANCH  30  33
ENDBRANCH  24  28
ENDBRANCH  23  24
ENDBRANCH   1  23
TORSDOF 6
