REMARK  Name = ZINC07989817
REMARK  9 active torsions:
REMARK  status: ('A' for Active; 'I' for Inactive)
REMARK    1  A    between atoms: C_1  and  C_2
REMARK    2  A    between atoms: C_2  and  C_4
REMARK    3  A    between atoms: C_2  and  N_58
REMARK    4  A    between atoms: C_14  and  C_16
REMARK    5  A    between atoms: C_14  and  C_17
REMARK    6  A    between atoms: C_14  and  N_58
REMARK    7  A    between atoms: N_19  and  C_20
REMARK    8  A    between atoms: C_20  and  C_21
REMARK    9  A    between atoms: C_20  and  C_27
REMARK                            x       y       z     vdW  Elec       q    Type
REMARK                         _______ _______ _______ _____ _____    ______ ____
ROOT
ATOM      1  C   UNL     1      -5.626  -1.151   1.318  0.00  0.00    +0.014 C 
ATOM      2  C   UNL     1      -6.681  -1.296   0.220  0.00  0.00    -0.004 C 
ENDROOT
BRANCH   1   3
ATOM      3  C   UNL     1      -6.293  -0.746   2.607  0.00  0.00    +0.199 C 
ATOM      4  O   UNL     1      -5.987   0.297   3.146  0.00  0.00    -0.278 OA
ATOM      5  N   UNL     1      -7.231  -1.540   3.159  0.00  0.00    -0.306 N 
ATOM      6  H   UNL     1      -7.476  -2.374   2.728  0.00  0.00    +0.150 HD
BRANCH   5   7
ATOM      7  C   UNL     1      -7.880  -1.146   4.412  0.00  0.00    +0.133 C 
BRANCH   7   8
ATOM      8  C   UNL     1      -9.234  -1.801   4.504  0.00  0.00    -0.023 A 
ATOM      9  C   UNL     1      -9.399  -3.108   4.085  0.00  0.00    +0.006 A 
ATOM     10  C   UNL     1     -10.640  -3.711   4.174  0.00  0.00    +0.000 A 
ATOM     11  C   UNL     1     -11.718  -3.003   4.674  0.00  0.00    +0.000 A 
ATOM     12  C   UNL     1     -11.554  -1.695   5.088  0.00  0.00    +0.000 A 
ATOM     13  C   UNL     1     -10.312  -1.094   5.004  0.00  0.00    +0.006 A 
ENDBRANCH   7   8
BRANCH   7  14
ATOM     14  C   UNL     1      -7.030  -1.582   5.577  0.00  0.00    -0.023 A 
ATOM     15  C   UNL     1      -6.403  -2.813   5.553  0.00  0.00    +0.006 A 
ATOM     16  C   UNL     1      -5.619  -3.211   6.620  0.00  0.00    +0.000 A 
ATOM     17  C   UNL     1      -5.471  -2.382   7.716  0.00  0.00    +0.000 A 
ATOM     18  C   UNL     1      -6.103  -1.153   7.743  0.00  0.00    +0.000 A 
ATOM     19  C   UNL     1      -6.882  -0.753   6.673  0.00  0.00    +0.006 A 
ENDBRANCH   7  14
ENDBRANCH   5   7
ENDBRANCH   1   3
BRANCH   1  20
ATOM     20  N   UNL     1      -4.653  -0.117   0.921  0.00  0.00    +0.391 N 
ATOM     21  H   UNL     1      -4.539  -0.133  -0.100  0.00  0.00    -0.084 HD
ATOM     22  H   UNL     1      -5.000   0.805   1.212  0.00  0.00    -0.084 HD
BRANCH  20  24
ATOM     23  C   UNL     1      -2.527  -1.321   0.686  0.00  0.00    -0.009 C 
ATOM     24  C   UNL     1      -3.347  -0.369   1.559  0.00  0.00    -0.043 C 
BRANCH  24  25
ATOM     25  C   UNL     1      -2.609   0.936   1.710  0.00  0.00    -0.058 A 
ATOM     26  C   UNL     1      -2.658   1.877   0.697  0.00  0.00    +0.006 A 
ATOM     27  C   UNL     1      -1.979   3.074   0.830  0.00  0.00    +0.049 A 
ATOM     28  C   UNL     1      -1.252   3.337   1.981  0.00  0.00    +0.162 A 
ATOM     29  C   UNL     1      -1.205   2.392   2.999  0.00  0.00    +0.162 A 
ATOM     30  C   UNL     1      -1.885   1.191   2.858  0.00  0.00    +0.051 A 
ATOM     31  O   UNL     1      -0.498   2.630   4.138  0.00  0.00    -0.485 OA
ATOM     32  C   UNL     1       0.474   3.680   4.084  0.00  0.00    +0.270 C 
ATOM     33  C   UNL     1      -0.174   4.899   3.413  0.00  0.00    +0.270 C 
ATOM     34  O   UNL     1      -0.588   4.519   2.096  0.00  0.00    -0.485 OA
ENDBRANCH  24  25
ENDBRANCH  20  24
ENDBRANCH   1  20
TORSDOF 7
