REMARK  Name = ZINC29064900
REMARK  10 active torsions:
REMARK  status: ('A' for Active; 'I' for Inactive)
REMARK    1  A    between atoms: C_1  and  C_2
REMARK    2  A    between atoms: C_7  and  N_8
REMARK    3  A    between atoms: C_9  and  C_11
REMARK    4  A    between atoms: C_11  and  N_12
REMARK    5  A    between atoms: N_12  and  C_13
REMARK    6  A    between atoms: N_12  and  C_14
REMARK    7  A    between atoms: C_14  and  C_16
REMARK    8  A    between atoms: C_14  and  C_17
REMARK    9  A    between atoms: N_19  and  C_20
REMARK   10  A    between atoms: C_22  and  C_25
REMARK                            x       y       z     vdW  Elec       q    Type
REMARK                         _______ _______ _______ _____ _____    ______ ____
ROOT
ATOM      1  N   UNL     1      -0.421   1.442   1.144  0.00  0.00    +0.391 N 
ATOM      2  C   UNL     1      -1.738   0.804   1.279  0.00  0.00    -0.094 C 
ATOM      3  H   UNL     1      -0.565   2.531   1.200  0.00  0.00    -0.080 HD
ENDROOT
BRANCH   1   4
ATOM      4  C   UNL     1       0.470   1.047   2.244  0.00  0.00    +0.017 C 
ATOM      5  C   UNL     1       0.853  -0.426   2.086  0.00  0.00    -0.004 C 
BRANCH   4   6
ATOM      6  C   UNL     1       1.714   1.896   2.211  0.00  0.00    +0.206 C 
ATOM      7  O   UNL     1       1.813   2.797   1.405  0.00  0.00    -0.277 OA
ATOM      8  N   UNL     1       2.718   1.654   3.078  0.00  0.00    -0.256 N 
ATOM      9  H   UNL     1       2.628   0.837   3.809  0.00  0.00    +0.158 HD
BRANCH   8  10
ATOM     10  C   UNL     1       3.864   2.436   3.048  0.00  0.00    +0.224 A 
ATOM     11  C   UNL     1       4.958   2.315   3.855  0.00  0.00    +0.092 A 
ATOM     12  C   UNL     1       5.820   3.339   3.412  0.00  0.00    +0.082 A 
ATOM     13  N   UNL     1       5.204   3.946   2.437  0.00  0.00    -0.081 NA
ATOM     14  O   UNL     1       4.120   3.458   2.216  0.00  0.00    -0.339 OA
ATOM     15  C   UNL     1       7.186   3.667   3.957  0.00  0.00    +0.069 C 
ENDBRANCH   8  10
ENDBRANCH   4   6
ENDBRANCH   1   4
BRANCH   1  16
ATOM     16  C   UNL     1       0.183   1.132  -0.159  0.00  0.00    +0.020 C 
BRANCH  16  18
ATOM     17  N   UNL     1      -0.269   1.615  -2.543  0.00  0.00    -0.287 N 
ATOM     18  C   UNL     1      -0.636   1.766  -1.255  0.00  0.00    +0.201 C 
ATOM     19  O   UNL     1      -1.624   2.411  -0.977  0.00  0.00    -0.278 OA
ATOM     20  H   UNL     1       0.679   1.114  -2.790  0.00  0.00    +0.155 HD
BRANCH  17  27
ATOM     21  C   UNL     1       0.929   2.264  -5.041  0.00  0.00    +0.046 C 
ATOM     22  C   UNL     1      -0.550   2.425  -4.801  0.00  0.00    -0.028 A 
ATOM     23  C   UNL     1      -1.367   2.894  -5.811  0.00  0.00    +0.020 A 
ATOM     24  C   UNL     1      -2.724   3.047  -5.589  0.00  0.00    +0.018 A 
ATOM     25  C   UNL     1      -3.268   2.725  -4.358  0.00  0.00    +0.017 A 
ATOM     26  C   UNL     1      -2.456   2.250  -3.347  0.00  0.00    +0.024 A 
ATOM     27  C   UNL     1      -1.094   2.095  -3.566  0.00  0.00    +0.036 A 
ATOM     28 BR   UNL     1      -3.838   3.697  -6.972  0.00  0.00    -0.050 Br
ENDBRANCH  17  27
ENDBRANCH  16  18
ENDBRANCH   1  16
TORSDOF 6
