REMARK  Name = ZINC35040074
REMARK  11 active torsions:
REMARK  status: ('A' for Active; 'I' for Inactive)
REMARK    1  A    between atoms: C_1  and  C_2
REMARK    2  A    between atoms: C_2  and  C_3
REMARK    3  A    between atoms: C_3  and  C_4
REMARK    4  A    between atoms: C_4  and  C_5
REMARK    5  A    between atoms: C_5  and  C_6
REMARK    6  A    between atoms: C_6  and  N_7
REMARK    7  A    between atoms: N_7  and  C_8
REMARK    8  A    between atoms: C_8  and  C_10
REMARK    9  A    between atoms: C_8  and  C_11
REMARK   10  A    between atoms: N_21  and  C_22
REMARK   11  A    between atoms: C_29  and  C_31
REMARK                            x       y       z     vdW  Elec       q    Type
REMARK                         _______ _______ _______ _____ _____    ______ ____
ROOT
ATOM      1  C   UNL     1       3.435  -5.970  -4.166  0.00  0.00    +0.138 A 
ATOM      2  N   UNL     1       3.591  -6.258  -5.422  0.00  0.00    -0.231 NA
ATOM      3  C   UNL     1       4.151  -7.428  -5.819  0.00  0.00    +0.078 A 
ATOM      4  C   UNL     1       4.319  -7.738  -7.170  0.00  0.00    +0.028 A 
ATOM      5  C   UNL     1       4.893  -8.937  -7.529  0.00  0.00    +0.002 A 
ATOM      6  C   UNL     1       5.306  -9.845  -6.562  0.00  0.00    +0.001 A 
ATOM      7  C   UNL     1       5.150  -9.562  -5.223  0.00  0.00    +0.015 A 
ATOM      8  C   UNL     1       4.573  -8.353  -4.839  0.00  0.00    +0.065 A 
ATOM      9  C   UNL     1       4.382  -7.997  -3.426  0.00  0.00    +0.266 A 
ATOM     10  O   UNL     1       4.725  -8.750  -2.532  0.00  0.00    -0.267 OA
ATOM     11  N   UNL     1       3.816  -6.798  -3.156  0.00  0.00    -0.263 N 
ENDROOT
BRANCH  11  12
ATOM     12  C   UNL     1       3.616  -6.408  -1.825  0.00  0.00    +0.051 A 
ATOM     13  C   UNL     1       4.374  -5.380  -1.281  0.00  0.00    +0.027 A 
ATOM     14  C   UNL     1       4.175  -4.997   0.031  0.00  0.00    +0.017 A 
ATOM     15  C   UNL     1       3.222  -5.638   0.803  0.00  0.00    +0.018 A 
ATOM     16  C   UNL     1       2.466  -6.663   0.263  0.00  0.00    +0.017 A 
ATOM     17  C   UNL     1       2.656  -7.045  -1.051  0.00  0.00    +0.027 A 
ATOM     18 BR   UNL     1       2.953  -5.112   2.599  0.00  0.00    -0.050 Br
ENDBRANCH  11  12
BRANCH   1  19
ATOM     19  C   UNL     1       2.804  -4.648  -3.808  0.00  0.00    +0.140 C 
ATOM     20  C   UNL     1       2.835  -3.723  -5.026  0.00  0.00    +0.036 C 
BRANCH  19  21
ATOM     21  N   UNL     1       1.416  -4.866  -3.394  0.00  0.00    -0.285 N 
ATOM     22  C   UNL     1       0.537  -5.424  -4.250  0.00  0.00    +0.282 C 
ATOM     23  O   UNL     1       0.918  -5.835  -5.331  0.00  0.00    -0.267 OA
BRANCH  22  24
ATOM     24  C   UNL     1      -0.877  -5.538  -3.879  0.00  0.00    +0.189 A 
ATOM     25  C   UNL     1      -1.847  -6.173  -4.601  0.00  0.00    +0.054 A 
ATOM     26  C   UNL     1      -3.042  -6.035  -3.877  0.00  0.00    +0.042 A 
ATOM     27  C   UNL     1      -2.753  -5.332  -2.760  0.00  0.00    +0.196 A 
ATOM     28  O   UNL     1      -1.446  -5.038  -2.763  0.00  0.00    -0.458 OA
ENDBRANCH  22  24
BRANCH  21  29
ATOM     29  C   UNL     1       0.983  -4.476  -2.051  0.00  0.00    +0.109 C 
BRANCH  29  30
ATOM     30  C   UNL     1       0.421  -3.053  -2.088  0.00  0.00    +0.019 C 
BRANCH  30  31
ATOM     31  C   UNL     1      -0.032  -2.646  -0.685  0.00  0.00    +0.002 C 
BRANCH  31  32
ATOM     32  C   UNL     1      -0.593  -1.223  -0.723  0.00  0.00    -0.000 C 
BRANCH  32  34
ATOM     33  C   UNL     1      -1.607   0.607   0.643  0.00  0.00    +0.004 C 
ATOM     34  C   UNL     1      -1.046  -0.816   0.681  0.00  0.00    -0.003 C 
ENDBRANCH  32  34
ENDBRANCH  31  32
ENDBRANCH  30  31
ENDBRANCH  29  30
ENDBRANCH  21  29
ENDBRANCH  19  21
ENDBRANCH   1  19
TORSDOF 9
