REMARK  Name = ZINC59410551
REMARK  9 active torsions:
REMARK  status: ('A' for Active; 'I' for Inactive)
REMARK    1  A    between atoms: C_1  and  C_2
REMARK    2  A    between atoms: C_5  and  C_31
REMARK    3  A    between atoms: N_8  and  C_10
REMARK    4  A    between atoms: C_10  and  C_11
REMARK    5  A    between atoms: C_14  and  C_17
REMARK    6  A    between atoms: C_17  and  N_18
REMARK    7  A    between atoms: C_19  and  C_21
REMARK    8  A    between atoms: C_24  and  N_30
REMARK    9  A    between atoms: C_25  and  N_27
REMARK                            x       y       z     vdW  Elec       q    Type
REMARK                         _______ _______ _______ _____ _____    ______ ____
ROOT
ATOM      1  C   UNL     1       6.993  -0.903   1.744  0.00  0.00    +0.139 C 
ENDROOT
BRANCH   1   5
ATOM      2  C   UNL     1       3.193  -2.854   1.683  0.00  0.00    -0.064 A 
ATOM      3  C   UNL     1       4.316  -3.513   1.218  0.00  0.00    +0.002 A 
ATOM      4  C   UNL     1       5.545  -2.882   1.238  0.00  0.00    +0.005 A 
ATOM      5  C   UNL     1       5.652  -1.591   1.721  0.00  0.00    -0.030 A 
ATOM      6  C   UNL     1       4.529  -0.932   2.185  0.00  0.00    +0.005 A 
ATOM      7  C   UNL     1       3.299  -1.562   2.162  0.00  0.00    +0.002 A 
BRANCH   2   8
ATOM      8  C   UNL     1       1.853  -3.543   1.662  0.00  0.00    -0.043 C 
BRANCH   8  14
ATOM      9  C   UNL     1      -0.029  -0.049  -1.205  0.00  0.00    +0.005 C 
ATOM     10  C   UNL     1       0.274  -1.545  -1.095  0.00  0.00    -0.031 C 
ATOM     11  C   UNL     1      -1.025  -2.342  -1.242  0.00  0.00    +0.003 C 
ATOM     12  C   UNL     1      -0.724  -3.831  -1.052  0.00  0.00    -0.031 C 
ATOM     13  C   UNL     1      -0.065  -4.042   0.313  0.00  0.00    -0.075 C 
ATOM     14  N   UNL     1       1.185  -3.276   0.381  0.00  0.00    +0.383 N 
ATOM     15  C   UNL     1       0.897  -1.841   0.271  0.00  0.00    -0.075 C 
ATOM     16  C   UNL     1      -2.027  -4.629  -1.120  0.00  0.00    +0.005 C 
ATOM     17  H   UNL     1       1.791  -3.554  -0.376  0.00  0.00    -0.081 HD
ENDBRANCH   8  14
ENDBRANCH   2   8
ENDBRANCH   1   5
BRANCH   1  18
ATOM     18  N   UNL     1       7.194  -0.186   0.482  0.00  0.00    -0.307 N 
ATOM     19  C   UNL     1       8.331   0.508   0.276  0.00  0.00    +0.244 C 
ATOM     20  O   UNL     1       9.190   0.538   1.136  0.00  0.00    -0.270 OA
ATOM     21  H   UNL     1       6.509  -0.209  -0.204  0.00  0.00    +0.149 HD
BRANCH  19  22
ATOM     22  C   UNL     1       8.534   1.230  -0.995  0.00  0.00    +0.039 A 
ATOM     23  C   UNL     1       7.545   1.201  -1.983  0.00  0.00    +0.015 A 
ATOM     24  C   UNL     1       7.737   1.877  -3.166  0.00  0.00    +0.026 A 
ATOM     25  C   UNL     1       8.915   2.587  -3.380  0.00  0.00    +0.055 A 
ATOM     26  C   UNL     1       9.902   2.618  -2.399  0.00  0.00    +0.147 A 
ATOM     27  C   UNL     1       9.713   1.949  -1.210  0.00  0.00    +0.047 A 
BRANCH  26  28
ATOM     28  N   UNL     1      11.153   3.374  -2.631  0.00  0.00    +0.058 N 
ATOM     29  O   UNL     1      12.205   2.941  -2.223  0.00  0.00    -0.126 OA
ATOM     30  O   UNL     1      11.122   4.424  -3.229  0.00  0.00    -0.126 OA
ENDBRANCH  26  28
BRANCH  25  31
ATOM     31  N   UNL     1       9.107   3.268  -4.577  0.00  0.00    -0.356 N 
ATOM     32  H   UNL     1       8.379   3.344  -5.214  0.00  0.00    +0.142 HD
ATOM     33  H   UNL     1       9.968   3.668  -4.776  0.00  0.00    +0.142 HD
ENDBRANCH  25  31
ENDBRANCH  19  22
ENDBRANCH   1  18
TORSDOF 7
