REMARK  Name = ZINC13037400
REMARK  9 active torsions:
REMARK  status: ('A' for Active; 'I' for Inactive)
REMARK    1  A    between atoms: C_1  and  C_2
REMARK    2  A    between atoms: C_2  and  C_4
REMARK    3  A    between atoms: C_2  and  N_14
REMARK    4  A    between atoms: N_14  and  C_15
REMARK    5  A    between atoms: C_18  and  C_24
REMARK    6  A    between atoms: C_20  and  N_21
REMARK    7  A    between atoms: N_26  and  CA_27
REMARK    8  A    between atoms: CA_27  and  CB_29
REMARK    9  A    between atoms: CA_27  and  C_30
REMARK                            x       y       z     vdW  Elec       q    Type
REMARK                         _______ _______ _______ _____ _____    ______ ____
ROOT
ATOM      1  C   UNK A   0       2.346  -0.050   0.007  0.00  0.00    +0.058 A 
ATOM      2  C   UNK A   0       2.433   1.339  -0.005  0.00  0.00    +0.026 A 
ATOM      3  C   UNK A   0       1.288   2.102  -0.017  0.00  0.00    +0.015 A 
ATOM      4  C   UNK A   0       0.036   1.480  -0.017  0.00  0.00    +0.039 A 
ATOM      5  C   UNK A   0      -0.048   0.085  -0.005  0.00  0.00    +0.047 A 
ATOM      6  C   UNK A   0       1.101  -0.672   0.006  0.00  0.00    +0.148 A 
ENDROOT
BRANCH   4   7
ATOM      7  C   UNK A   0      -1.194   2.295  -0.035  0.00  0.00    +0.245 C 
ATOM      8  O   UNK A   0      -2.282   1.753  -0.041  0.00  0.00    -0.270 OA
ATOM      9  N   ALA A   1      -1.111   3.640  -0.047  0.00  0.00    -0.298 N 
ATOM     10  H   ALA A   1      -0.242   4.073  -0.043  0.00  0.00    +0.150 HD
BRANCH   9  11
ATOM     11  CA  ALA A   1      -2.332   4.449  -0.065  0.00  0.00    +0.183 C 
ATOM     12  CB  ALA A   1      -2.840   4.639   1.366  0.00  0.00    +0.040 C 
BRANCH  11  13
ATOM     13  C   ALA A   1      -2.034   5.795  -0.675  0.00  0.00    +0.376 C 
ATOM     14  O   ALA A   1      -0.916   6.052  -1.055  0.00  0.00    -0.244 OA
ATOM     15  OXT ALA A   1      -3.010   6.708  -0.796  0.00  0.00    -0.244 OA
ENDBRANCH  11  13
ENDBRANCH   9  11
ENDBRANCH   4   7
BRANCH   6  16
ATOM     16  N   UNK A   0       1.012  -2.150   0.019  0.00  0.00    +0.058 N 
ATOM     17  O   UNK A   0      -0.071  -2.694   0.131  0.00  0.00    -0.126 OA
ATOM     18  O   UNK A   0       2.023  -2.821  -0.084  0.00  0.00    -0.126 OA
ENDBRANCH   6  16
BRANCH   1  19
ATOM     19  N   UNK A   0       3.505  -0.818   0.018  0.00  0.00    -0.336 N 
ATOM     20  H   UNK A   0       3.448  -1.784  -0.054  0.00  0.00    +0.147 HD
BRANCH  19  22
ATOM     21  C   UNK A   0       5.129   0.067   1.619  0.00  0.00    +0.033 C 
ATOM     22  C   UNK A   0       4.813  -0.169   0.140  0.00  0.00    +0.098 C 
BRANCH  22  23
ATOM     23  C   UNK A   0       5.872  -1.054  -0.465  0.00  0.00    -0.027 A 
ATOM     24  C   UNK A   0       5.824  -2.422  -0.274  0.00  0.00    +0.006 A 
ATOM     25  C   UNK A   0       6.798  -3.226  -0.829  0.00  0.00    +0.004 A 
ATOM     26  C   UNK A   0       7.826  -2.671  -1.582  0.00  0.00    -0.044 A 
ATOM     27  C   UNK A   0       7.871  -1.309  -1.775  0.00  0.00    -0.044 A 
ATOM     28  C   UNK A   0       6.888  -0.502  -1.217  0.00  0.00    +0.009 A 
ATOM     29  C   UNK A   0       8.950  -0.641  -2.587  0.00  0.00    +0.035 C 
ATOM     30  C   UNK A   0      10.148  -1.573  -2.759  0.00  0.00    +0.005 C 
ATOM     31  C   UNK A   0       9.639  -2.924  -3.276  0.00  0.00    +0.005 C 
ATOM     32  C   UNK A   0       8.859  -3.606  -2.154  0.00  0.00    +0.035 C 
ENDBRANCH  22  23
ENDBRANCH  19  22
ENDBRANCH   1  19
TORSDOF 7
