REMARK  Name = ZINC36205339
REMARK  12 active torsions:
REMARK  status: ('A' for Active; 'I' for Inactive)
REMARK    1  A    between atoms: C_1  and  C_2
REMARK    2  A    between atoms: C_2  and  C_3
REMARK    3  A    between atoms: C_3  and  C_4
REMARK    4  A    between atoms: C_4  and  C_6
REMARK    5  A    between atoms: C_4  and  O_31
REMARK    6  A    between atoms: C_6  and  N_7
REMARK    7  A    between atoms: N_7  and  C_8
REMARK    8  A    between atoms: N_7  and  C_28
REMARK    9  A    between atoms: C_8  and  C_9
REMARK   10  A    between atoms: C_15  and  C_20
REMARK   11  A    between atoms: C_23  and  C_27
REMARK   12  A    between atoms: C_24  and  C_26
REMARK                            x       y       z     vdW  Elec       q    Type
REMARK                         _______ _______ _______ _____ _____    ______ ____
ROOT
ATOM      1  C   UNL     1      -4.663  -5.754  -0.179  0.00  0.00    +0.094 A 
ATOM      2  N   UNL     1      -5.942  -6.185  -0.322  0.00  0.00    -0.312 N 
ATOM      3  H   UNL     1      -6.651  -5.536  -0.451  0.00  0.00    +0.170 HD
ATOM      4  C   UNL     1      -6.246  -7.496  -0.288  0.00  0.00    +0.260 A 
ATOM      5  O   UNL     1      -7.400  -7.867  -0.418  0.00  0.00    -0.267 OA
ATOM      6  C   UNL     1      -5.194  -8.447  -0.096  0.00  0.00    +0.080 A 
ATOM      7  C   UNL     1      -5.267  -9.902  -0.024  0.00  0.00    +0.004 A 
ATOM      8  C   UNL     1      -4.123 -10.603   0.165  0.00  0.00    +0.056 A 
ATOM      9  S   UNL     1      -2.873  -9.336   0.257  0.00  0.00    -0.076 S 
ATOM     10  C   UNL     1      -3.904  -7.909   0.042  0.00  0.00    +0.116 A 
ATOM     11  N   UNL     1      -3.681  -6.598  -0.009  0.00  0.00    -0.229 NA
ENDROOT
BRANCH   7  12
ATOM     12  C   UNL     1      -6.568 -10.600  -0.155  0.00  0.00    -0.016 A 
ATOM     13  C   UNL     1      -7.661 -10.192   0.609  0.00  0.00    +0.009 A 
ATOM     14  C   UNL     1      -8.870 -10.845   0.483  0.00  0.00    +0.004 A 
ATOM     15  C   UNL     1      -8.999 -11.903  -0.399  0.00  0.00    -0.048 A 
ATOM     16  C   UNL     1      -7.918 -12.312  -1.159  0.00  0.00    -0.047 A 
ATOM     17  C   UNL     1      -6.706 -11.663  -1.046  0.00  0.00    +0.012 A 
ATOM     18  C   UNL     1      -8.067 -13.466  -2.118  0.00  0.00    +0.044 C 
ATOM     19  C   UNL     1     -10.322 -12.613  -0.531  0.00  0.00    +0.044 C 
ENDBRANCH   7  12
BRANCH   1  20
ATOM     20  C   UNL     1      -4.370  -4.277  -0.225  0.00  0.00    -0.003 C 
BRANCH  20  21
ATOM     21  N   UNL     1      -2.927  -4.058  -0.056  0.00  0.00    +0.388 N 
ATOM     22  H   UNL     1      -2.617  -4.503   0.795  0.00  0.00    -0.081 HD
BRANCH  21  23
ATOM     23  C   UNL     1      -2.207  -4.632  -1.200  0.00  0.00    -0.068 C 
ATOM     24  C   UNL     1      -1.254  -5.797  -0.923  0.00  0.00    -0.017 C 
ATOM     25  C   UNL     1      -0.694  -4.415  -1.264  0.00  0.00    -0.017 C 
ENDBRANCH  21  23
BRANCH  21  26
ATOM     26  C   UNL     1      -2.656  -2.616   0.020  0.00  0.00    -0.046 C 
BRANCH  26  27
ATOM     27  C   UNL     1      -3.246  -1.921  -1.208  0.00  0.00    +0.098 C 
BRANCH  27  28
ATOM     28  O   UNL     1      -2.562  -2.364  -2.382  0.00  0.00    -0.394 OA
ATOM     29  H   UNL     1      -1.613  -2.178  -2.377  0.00  0.00    +0.210 HD
ENDBRANCH  27  28
BRANCH  27  30
ATOM     30  C   UNL     1      -3.084  -0.406  -1.065  0.00  0.00    +0.029 C 
BRANCH  30  32
ATOM     31  C   UNL     1      -3.622   1.809  -2.087  0.00  0.00    +0.004 C 
ATOM     32  C   UNL     1      -3.784   0.294  -2.231  0.00  0.00    -0.001 C 
ENDBRANCH  30  32
ENDBRANCH  27  30
ENDBRANCH  26  27
ENDBRANCH  21  26
ENDBRANCH  20  21
ENDBRANCH   1  20
TORSDOF 9
