REMARK  Name = ZINC37264124
REMARK  12 active torsions:
REMARK  status: ('A' for Active; 'I' for Inactive)
REMARK    1  A    between atoms: C_1  and  C_2
REMARK    2  A    between atoms: C_7  and  C_8
REMARK    3  A    between atoms: C_11  and  C_35
REMARK    4  A    between atoms: N_13  and  C_27
REMARK    5  A    between atoms: N_15  and  C_20
REMARK    6  A    between atoms: C_20  and  C_21
REMARK    7  A    between atoms: N_23  and  C_24
REMARK    8  A    between atoms: C_30  and  O_33
REMARK    9  A    between atoms: O_33  and  C_34
REMARK   10  A    between atoms: C_35  and  C_36
REMARK   11  A    between atoms: C_35  and  C_37
REMARK   12  A    between atoms: C_35  and  C_38
REMARK                            x       y       z     vdW  Elec       q    Type
REMARK                         _______ _______ _______ _____ _____    ______ ____
ROOT
ATOM      1  C   UNL     1      -0.321  -2.005   0.678  0.00  0.00    +0.112 C 
ATOM      2  C   UNL     1       0.155  -0.848   1.518  0.00  0.00    +0.034 A 
ATOM      3  C   UNL     1       1.474  -0.447   1.734  0.00  0.00    +0.075 A 
ATOM      4  N   UNL     1       1.460   0.602   2.521  0.00  0.00    -0.169 NA
ATOM      5  N   UNL     1       0.126   0.905   2.834  0.00  0.00    -0.218 N 
ATOM      6  C   UNL     1      -0.653  -0.007   2.204  0.00  0.00    +0.136 A 
ATOM      7  N   UNL     1      -2.051  -0.113   2.228  0.00  0.00    -0.246 N 
ATOM      8  C   UNL     1      -2.596  -1.309   2.477  0.00  0.00    +0.231 C 
ATOM      9  O   UNL     1      -3.762  -1.509   2.209  0.00  0.00    -0.274 OA
ATOM     10  C   UNL     1      -1.771  -2.403   3.083  0.00  0.00    +0.166 C 
ATOM     11  S   UNL     1      -0.893  -3.342   1.787  0.00  0.00    -0.138 S 
ENDROOT
BRANCH   1  18
ATOM     12  C   UNL     1       0.249  -0.735  -1.854  0.00  0.00    +0.044 C 
ATOM     13  C   UNL     1       1.084  -1.900  -1.390  0.00  0.00    -0.046 A 
ATOM     14  C   UNL     1       2.127  -2.359  -2.174  0.00  0.00    +0.003 A 
ATOM     15  C   UNL     1       2.893  -3.428  -1.749  0.00  0.00    +0.000 A 
ATOM     16  C   UNL     1       2.617  -4.039  -0.540  0.00  0.00    +0.000 A 
ATOM     17  C   UNL     1       1.575  -3.580   0.244  0.00  0.00    +0.005 A 
ATOM     18  C   UNL     1       0.811  -2.508  -0.179  0.00  0.00    -0.027 A 
ENDBRANCH   1  18
BRANCH   5  19
ATOM     19  C   UNL     1      -0.319   1.957   3.648  0.00  0.00    +0.068 A 
ATOM     20  C   UNL     1      -1.404   1.769   4.494  0.00  0.00    +0.031 A 
ATOM     21  C   UNL     1      -1.841   2.804   5.296  0.00  0.00    +0.048 A 
ATOM     22  C   UNL     1      -1.198   4.033   5.255  0.00  0.00    +0.120 A 
ATOM     23  C   UNL     1      -0.114   4.221   4.410  0.00  0.00    +0.048 A 
ATOM     24  C   UNL     1       0.328   3.184   3.612  0.00  0.00    +0.031 A 
BRANCH  22  25
ATOM     25  O   UNL     1      -1.629   5.052   6.045  0.00  0.00    -0.495 OA
ATOM     26  C   UNL     1      -0.920   6.289   5.952  0.00  0.00    +0.277 C 
ENDBRANCH  22  25
ENDBRANCH   5  19
BRANCH   3  27
ATOM     27  C   UNL     1       2.703  -1.105   1.162  0.00  0.00    +0.007 C 
ATOM     28  C   UNL     1       2.827  -0.752  -0.322  0.00  0.00    +0.017 C 
ATOM     29  C   UNL     1       3.943  -0.610   1.909  0.00  0.00    +0.017 C 
ATOM     30  C   UNL     1       2.587  -2.623   1.316  0.00  0.00    +0.017 C 
ENDBRANCH   3  27
BRANCH   7  31
ATOM     31  C   UNL     1      -2.896   1.059   1.986  0.00  0.00    +0.210 C 
BRANCH  31  32
ATOM     32  C   UNL     1      -3.111   1.226   0.504  0.00  0.00    +0.231 C 
ATOM     33  O   UNL     1      -2.607   0.444  -0.274  0.00  0.00    -0.274 OA
ATOM     34  N   UNL     1      -3.861   2.246   0.043  0.00  0.00    -0.311 N 
ATOM     35  H   UNL     1      -4.264   2.872   0.664  0.00  0.00    +0.149 HD
BRANCH  34  36
ATOM     36  C   UNL     1      -4.070   2.409  -1.399  0.00  0.00    +0.073 C 
ATOM     37  C   UNL     1      -3.958   3.822  -1.973  0.00  0.00    +0.024 C 
ATOM     38  C   UNL     1      -5.328   3.152  -1.851  0.00  0.00    +0.024 C 
ENDBRANCH  34  36
ENDBRANCH  31  32
ENDBRANCH   7  31
TORSDOF 7
