REMARK  Name = ZINC64144009
REMARK  8 active torsions:
REMARK  status: ('A' for Active; 'I' for Inactive)
REMARK    1  A    between atoms: C_4  and  C_7
REMARK    2  A    between atoms: C_7  and  C_8
REMARK    3  A    between atoms: C_8  and  C_10
REMARK    4  A    between atoms: C_8  and  N_31
REMARK    5  A    between atoms: N_12  and  C_13
REMARK    6  A    between atoms: C_13  and  C_14
REMARK    7  A    between atoms: C_14  and  C_16
REMARK    8  A    between atoms: C_14  and  C_22
REMARK                            x       y       z     vdW  Elec       q    Type
REMARK                         _______ _______ _______ _____ _____    ______ ____
ROOT
ATOM      1  C   UNL     1       7.226  -2.975   2.528  0.00  0.00    +0.116 C 
ENDROOT
BRANCH   1   4
ATOM      2  C   UNL     1       5.422  -1.804   1.383  0.00  0.00    +0.238 C 
ATOM      3  O   UNL     1       5.898  -2.164   0.327  0.00  0.00    -0.273 OA
ATOM      4  N   UNL     1       6.011  -2.158   2.543  0.00  0.00    -0.313 N 
ATOM      5  H   UNL     1       5.630  -1.870   3.388  0.00  0.00    +0.149 HD
BRANCH   2   6
ATOM      6  C   UNL     1       4.171  -0.963   1.399  0.00  0.00    +0.200 C 
BRANCH   6   7
ATOM      7  N   UNL     1       4.451   0.315   2.057  0.00  0.00    -0.220 N 
ATOM      8  C   UNL     1       5.602   1.011   1.996  0.00  0.00    +0.245 A 
ATOM      9  N   UNL     1       5.429   2.088   2.723  0.00  0.00    -0.117 NA
ATOM     10  N   UNL     1       4.234   2.056   3.205  0.00  0.00    -0.023 NA
ATOM     11  N   UNL     1       3.639   0.989   2.800  0.00  0.00    -0.043 NA
ENDBRANCH   6   7
BRANCH   6  12
ATOM     12  C   UNL     1       3.711  -0.707  -0.038  0.00  0.00    +0.071 C 
BRANCH  12  16
ATOM     13  C   UNL     1      -0.017   1.378   0.010  0.00  0.00    +0.000 A 
ATOM     14  C   UNL     1       1.171   2.086   0.002  0.00  0.00    +0.000 A 
ATOM     15  C   UNL     1       2.377   1.411  -0.013  0.00  0.00    +0.004 A 
ATOM     16  C   UNL     1       2.396   0.029  -0.020  0.00  0.00    -0.045 A 
ATOM     17  C   UNL     1       1.208  -0.679  -0.012  0.00  0.00    +0.004 A 
ATOM     18  C   UNL     1       0.002  -0.004   0.002  0.00  0.00    +0.000 A 
ENDBRANCH  12  16
ENDBRANCH   6  12
ENDBRANCH   2   6
ENDBRANCH   1   4
BRANCH   1  19
ATOM     19  C   UNL     1       7.686  -3.232   3.965  0.00  0.00    +0.064 C 
BRANCH  19  20
ATOM     20  C   UNL     1       9.001  -3.967   3.947  0.00  0.00    -0.033 C 
ATOM     21  C   UNL     1      10.172  -3.552   4.482  0.00  0.00    -0.000 A 
ATOM     22  C   UNL     1      10.558  -2.338   5.211  0.00  0.00    +0.010 A 
ATOM     23  C   UNL     1      11.836  -2.203   5.631  0.00  0.00    +0.001 A 
ATOM     24  C   UNL     1      12.800  -3.191   5.388  0.00  0.00    +0.002 A 
ATOM     25  C   UNL     1      12.522  -4.333   4.725  0.00  0.00    +0.026 A 
ATOM     26  C   UNL     1      11.209  -4.581   4.238  0.00  0.00    +0.043 A 
ATOM     27  N   UNL     1      10.699  -5.592   3.578  0.00  0.00    -0.380 N 
ATOM     28  C   UNL     1       9.277  -5.322   3.333  0.00  0.00    +0.145 C 
ATOM     29  H   UNL     1      11.180  -6.388   3.301  0.00  0.00    +0.160 HD
ENDBRANCH  19  20
BRANCH  19  30
ATOM     30  C   UNL     1       6.655  -4.064   4.682  0.00  0.00    -0.039 A 
ATOM     31  C   UNL     1       6.332  -5.322   4.210  0.00  0.00    +0.004 A 
ATOM     32  C   UNL     1       5.386  -6.086   4.867  0.00  0.00    +0.000 A 
ATOM     33  C   UNL     1       4.762  -5.591   5.997  0.00  0.00    +0.000 A 
ATOM     34  C   UNL     1       5.085  -4.332   6.470  0.00  0.00    +0.000 A 
ATOM     35  C   UNL     1       6.035  -3.571   5.815  0.00  0.00    +0.004 A 
ENDBRANCH  19  30
ENDBRANCH   1  19
TORSDOF 8
