REMARK  Name = ZINC13424514
REMARK  8 active torsions:
REMARK  status: ('A' for Active; 'I' for Inactive)
REMARK    1  A    between atoms: C_4  and  C_7
REMARK    2  A    between atoms: C_7  and  N_8
REMARK    3  A    between atoms: C_9  and  C_27
REMARK    4  A    between atoms: C_12  and  S_13
REMARK    5  A    between atoms: S_13  and  C_14
REMARK    6  A    between atoms: C_14  and  C_15
REMARK    7  A    between atoms: N_17  and  C_18
REMARK    8  A    between atoms: C_23  and  N_24
REMARK                            x       y       z     vdW  Elec       q    Type
REMARK                         _______ _______ _______ _____ _____    ______ ____
ROOT
ATOM      1  N   UNL     1      -2.607   0.826   1.642  0.00  0.00    -0.298 N 
ATOM      2  C   UNL     1      -2.740  -0.444   2.153  0.00  0.00    +0.167 A 
ATOM      3  N   UNL     1      -3.631  -0.381   3.115  0.00  0.00    -0.128 NA
ATOM      4  N   UNL     1      -4.065   0.823   3.233  0.00  0.00    -0.122 NA
ATOM      5  C   UNL     1      -3.472   1.604   2.357  0.00  0.00    +0.193 A 
ENDROOT
BRANCH   2   6
ATOM      6  C   UNL     1      -2.013  -1.652   1.707  0.00  0.00    +0.037 A 
ATOM      7  C   UNL     1      -1.670  -1.818   0.360  0.00  0.00    +0.014 A 
ATOM      8  C   UNL     1      -0.990  -2.966  -0.007  0.00  0.00    +0.020 A 
ATOM      9  C   UNL     1      -0.674  -3.904   0.960  0.00  0.00    +0.111 A 
ATOM     10  N   UNL     1      -1.010  -3.720   2.222  0.00  0.00    -0.263 NA
ATOM     11  C   UNL     1      -1.653  -2.642   2.621  0.00  0.00    +0.122 A 
ENDBRANCH   2   6
BRANCH   1  12
ATOM     12  C   UNL     1      -1.724   1.254   0.553  0.00  0.00    +0.161 C 
BRANCH  12  16
ATOM     13  C   UNL     1       2.155   2.123   2.115  0.00  0.00    +0.000 A 
ATOM     14  C   UNL     1       1.856   0.846   1.680  0.00  0.00    +0.000 A 
ATOM     15  C   UNL     1       0.599   0.564   1.178  0.00  0.00    +0.005 A 
ATOM     16  C   UNL     1      -0.356   1.560   1.106  0.00  0.00    -0.028 A 
ATOM     17  C   UNL     1      -0.058   2.837   1.546  0.00  0.00    +0.005 A 
ATOM     18  C   UNL     1       1.198   3.119   2.048  0.00  0.00    +0.000 A 
ENDBRANCH  12  16
ENDBRANCH   1  12
BRANCH   5  19
ATOM     19  S   UNL     1      -3.745   3.331   2.144  0.00  0.00    -0.077 S 
BRANCH  19  20
ATOM     20  C   UNL     1      -4.994   3.612   3.424  0.00  0.00    +0.173 C 
BRANCH  20  21
ATOM     21  C   UNL     1      -5.391   5.066   3.428  0.00  0.00    +0.228 C 
ATOM     22  O   UNL     1      -4.879   5.837   2.643  0.00  0.00    -0.275 OA
ATOM     23  N   UNL     1      -6.314   5.511   4.304  0.00  0.00    -0.283 N 
ATOM     24  H   UNL     1      -6.667   4.913   4.981  0.00  0.00    +0.155 HD
BRANCH  23  25
ATOM     25  C   UNL     1      -6.763   6.834   4.236  0.00  0.00    +0.064 A 
ATOM     26  C   UNL     1      -6.884   7.465   3.005  0.00  0.00    +0.025 A 
ATOM     27  C   UNL     1      -7.333   8.770   2.941  0.00  0.00    +0.002 A 
ATOM     28  C   UNL     1      -7.651   9.451   4.101  0.00  0.00    +0.002 A 
ATOM     29  C   UNL     1      -7.525   8.827   5.329  0.00  0.00    +0.034 A 
ATOM     30  C   UNL     1      -7.082   7.521   5.399  0.00  0.00    +0.147 A 
BRANCH  30  31
ATOM     31  N   UNL     1      -6.947   6.854   6.714  0.00  0.00    +0.058 N 
ATOM     32  O   UNL     1      -7.147   7.482   7.739  0.00  0.00    -0.126 OA
ATOM     33  O   UNL     1      -6.637   5.678   6.771  0.00  0.00    -0.126 OA
ENDBRANCH  30  31
ENDBRANCH  23  25
ENDBRANCH  20  21
ENDBRANCH  19  20
ENDBRANCH   5  19
TORSDOF 8
