REMARK  Name = ZINC00450361
REMARK  5 active torsions:
REMARK  status: ('A' for Active; 'I' for Inactive)
REMARK    1  A    between atoms: C_1  and  C_2
REMARK    2  A    between atoms: C_3  and  N_11
REMARK    3  A    between atoms: C_7  and  N_8
REMARK    4  A    between atoms: C_12  and  C_14
REMARK    5  A    between atoms: C_15  and  C_16
REMARK                            x       y       z     vdW  Elec       q    Type
REMARK                         _______ _______ _______ _____ _____    ______ ____
ROOT
ATOM      1  N   UNL     1       7.133   3.597  -0.476  0.00  0.00    -0.282 N 
ATOM      2  C   UNL     1       6.156   2.673  -0.564  0.00  0.00    +0.241 C 
ATOM      3  O   UNL     1       6.427   1.490  -0.470  0.00  0.00    -0.270 OA
ATOM      4  H   UNL     1       6.929   4.534  -0.625  0.00  0.00    +0.155 HD
ENDROOT
BRANCH   1   7
ATOM      5  C   UNL     1       9.256   5.374  -1.133  0.00  0.00    +0.048 C 
ATOM      6  C   UNL     1       9.506   4.043  -0.473  0.00  0.00    +0.001 A 
ATOM      7  C   UNL     1       8.440   3.205  -0.170  0.00  0.00    +0.039 A 
ATOM      8  C   UNL     1       8.675   1.977   0.433  0.00  0.00    +0.024 A 
ATOM      9  C   UNL     1       9.967   1.593   0.734  0.00  0.00    +0.004 A 
ATOM     10  C   UNL     1      11.026   2.431   0.436  0.00  0.00    +0.033 A 
ATOM     11  C   UNL     1      10.795   3.656  -0.164  0.00  0.00    +0.131 A 
BRANCH  11  12
ATOM     12  N   UNL     1      11.931   4.550  -0.480  0.00  0.00    +0.057 N 
ATOM     13  O   UNL     1      13.075   4.155  -0.339  0.00  0.00    -0.126 OA
ATOM     14  O   UNL     1      11.723   5.681  -0.882  0.00  0.00    -0.126 OA
ENDBRANCH  11  12
ENDBRANCH   1   7
BRANCH   2  15
ATOM     15  C   UNL     1       4.770   3.091  -0.772  0.00  0.00    +0.068 C 
ATOM     16  C   UNL     1       3.791   2.164  -0.860  0.00  0.00    +0.013 C 
BRANCH  16  17
ATOM     17  C   UNL     1       2.400   2.584  -1.069  0.00  0.00    -0.017 A 
ATOM     18  C   UNL     1       2.074   3.933  -1.178  0.00  0.00    +0.008 A 
ATOM     19  C   UNL     1       0.758   4.326  -1.376  0.00  0.00    +0.001 A 
ATOM     20  C   UNL     1      -0.256   3.422  -1.470  0.00  0.00    +0.008 A 
ATOM     21  C   UNL     1      -0.001   2.044  -1.369  0.00  0.00    -0.017 A 
ATOM     22  C   UNL     1       1.327   1.595  -1.167  0.00  0.00    -0.011 A 
ATOM     23  C   UNL     1       1.586   0.224  -1.065  0.00  0.00    +0.009 A 
ATOM     24  C   UNL     1       0.556  -0.665  -1.161  0.00  0.00    +0.001 A 
ATOM     25  C   UNL     1      -0.750  -0.228  -1.366  0.00  0.00    +0.001 A 
ATOM     26  C   UNL     1      -1.037   1.100  -1.464  0.00  0.00    +0.008 A 
ENDBRANCH  16  17
ENDBRANCH   2  15
TORSDOF 4
