REMARK  Name = ZINC15970039
REMARK  8 active torsions:
REMARK  status: ('A' for Active; 'I' for Inactive)
REMARK    1  A    between atoms: C_1  and  C_2
REMARK    2  A    between atoms: C_2  and  C_3
REMARK    3  A    between atoms: C_2  and  C_4
REMARK    4  A    between atoms: C_4  and  C_6
REMARK    5  A    between atoms: C_4  and  N_15
REMARK    6  A    between atoms: N_8  and  C_9
REMARK    7  A    between atoms: C_9  and  C_10
REMARK    8  A    between atoms: C_16  and  C_18
REMARK                            x       y       z     vdW  Elec       q    Type
REMARK                         _______ _______ _______ _____ _____    ______ ____
ROOT
ATOM      1  C   UNL     1       0.271   1.481  -7.231  0.00  0.00    +0.167 C 
ATOM      2  C   UNL     1      -0.136   0.030  -7.526  0.00  0.00    +0.069 C 
ATOM      3  C   UNL     1       0.123  -0.301  -8.973  0.00  0.00    -0.015 A 
ATOM      4  C   UNL     1       0.161  -1.621  -9.578  0.00  0.00    +0.003 A 
ATOM      5  C   UNL     1      -0.009  -2.905  -9.051  0.00  0.00    +0.010 A 
ATOM      6  C   UNL     1       0.093  -3.955  -9.931  0.00  0.00    +0.001 A 
ATOM      7  C   UNL     1       0.352  -3.763 -11.277  0.00  0.00    +0.002 A 
ATOM      8  C   UNL     1       0.525  -2.503 -11.825  0.00  0.00    +0.026 A 
ATOM      9  C   UNL     1       0.427  -1.419 -10.956  0.00  0.00    +0.047 A 
ATOM     10  N   UNL     1       0.539  -0.073 -11.153  0.00  0.00    -0.356 N 
ATOM     11  H   UNL     1       0.717   0.353 -12.007  0.00  0.00    +0.166 HD
ATOM     12  C   UNL     1       0.364   0.585  -9.966  0.00  0.00    +0.046 A 
ATOM     13  C   UNL     1       0.426   2.075  -9.738  0.00  0.00    +0.155 C 
ATOM     14  N   UNL     1      -0.124   2.301  -8.381  0.00  0.00    -0.273 N 
ATOM     15  C   UNL     1      -1.015   3.299  -8.443  0.00  0.00    +0.248 C 
ATOM     16  O   UNL     1      -1.498   3.867  -7.483  0.00  0.00    -0.270 OA
ATOM     17  C   UNL     1      -1.317   3.604  -9.845  0.00  0.00    +0.042 A 
ATOM     18  C   UNL     1      -0.463   2.836 -10.662  0.00  0.00    -0.009 A 
ATOM     19  C   UNL     1      -0.546   2.882 -12.035  0.00  0.00    +0.006 A 
ATOM     20  C   UNL     1      -1.503   3.732 -12.583  0.00  0.00    +0.000 A 
ATOM     21  C   UNL     1      -2.335   4.498 -11.792  0.00  0.00    +0.001 A 
ATOM     22  C   UNL     1      -2.269   4.458 -10.407  0.00  0.00    +0.013 A 
ENDROOT
BRANCH   1  24
ATOM     23  N   UNL     1       0.267   2.196  -4.864  0.00  0.00    -0.302 N 
ATOM     24  C   UNL     1      -0.434   1.967  -5.992  0.00  0.00    +0.235 C 
ATOM     25  O   UNL     1      -1.633   2.151  -6.009  0.00  0.00    -0.274 OA
ATOM     26  H   UNL     1       1.225   2.048  -4.850  0.00  0.00    +0.150 HD
BRANCH  23  27
ATOM     27  C   UNL     1      -0.419   2.669  -3.658  0.00  0.00    +0.161 C 
BRANCH  27  28
ATOM     28  C   UNL     1       0.557   3.412  -2.784  0.00  0.00    +0.234 C 
ATOM     29  O   UNL     1       1.712   3.535  -3.133  0.00  0.00    -0.274 OA
ATOM     30  N   UNL     1       0.147   3.940  -1.613  0.00  0.00    -0.307 N 
ATOM     31  H   UNL     1      -0.776   3.842  -1.334  0.00  0.00    +0.149 HD
BRANCH  30  32
ATOM     32  C   UNL     1       1.096   4.663  -0.763  0.00  0.00    +0.178 C 
BRANCH  32  33
ATOM     33  C   UNL     1       0.391   5.149   0.476  0.00  0.00    +0.122 A 
ATOM     34  C   UNL     1       0.276   4.472   1.633  0.00  0.00    +0.046 A 
ATOM     35  C   UNL     1      -0.457   5.295   2.519  0.00  0.00    +0.041 A 
ATOM     36  C   UNL     1      -0.745   6.426   1.851  0.00  0.00    +0.195 A 
ATOM     37  O   UNL     1      -0.225   6.335   0.616  0.00  0.00    -0.466 OA
ENDBRANCH  32  33
ENDBRANCH  30  32
ENDBRANCH  27  28
BRANCH  27  39
ATOM     38  C   UNL     1      -1.974   0.717  -3.778  0.00  0.00    +0.009 C 
ATOM     39  C   UNL     1      -0.983   1.472  -2.890  0.00  0.00    +0.012 C 
ATOM     40  C   UNL     1       0.161   0.536  -2.492  0.00  0.00    +0.009 C 
ENDBRANCH  27  39
ENDBRANCH  23  27
ENDBRANCH   1  24
TORSDOF 6
