REMARK  Name = ZINC39231721
REMARK  5 active torsions:
REMARK  status: ('A' for Active; 'I' for Inactive)
REMARK    1  A    between atoms: C_1  and  C_2
REMARK    2  A    between atoms: C_2  and  C_3
REMARK    3  A    between atoms: C_4  and  C_23
REMARK    4  A    between atoms: C_7  and  C_9
REMARK    5  A    between atoms: C_13  and  C_18
REMARK                            x       y       z     vdW  Elec       q    Type
REMARK                         _______ _______ _______ _____ _____    ______ ____
ROOT
ATOM      1  C   UNL     1       2.763  -1.731   0.413  0.00  0.00    +0.183 C 
ATOM      2  N   UNL     1       4.225  -1.941   0.580  0.00  0.00    -0.265 N 
ATOM      3  N   UNL     1       4.913  -2.152  -0.578  0.00  0.00    -0.220 N 
ATOM      4  C   UNL     1       6.130  -2.713  -0.959  0.00  0.00    +0.188 A 
ATOM      5  N   UNL     1       6.245  -2.568  -2.258  0.00  0.00    -0.126 NA
ATOM      6  N   UNL     1       5.202  -1.981  -2.729  0.00  0.00    -0.120 NA
ATOM      7  C   UNL     1       4.369  -1.729  -1.766  0.00  0.00    +0.211 A 
ATOM      8  S   UNL     1       2.776  -1.073  -1.311  0.00  0.00    -0.058 S 
ATOM      9  H   UNL     1       4.639  -1.193   1.116  0.00  0.00    +0.168 HD
ENDROOT
BRANCH   1  14
ATOM     10  C   UNL     1       0.731  -0.503   1.223  0.00  0.00    -0.019 C 
ATOM     11  C   UNL     1       0.212  -0.883   2.393  0.00  0.00    +0.061 C 
ATOM     12  N   UNL     1       1.185  -1.270   3.247  0.00  0.00    -0.159 NA
ATOM     13  N   UNL     1       2.328  -1.197   2.788  0.00  0.00    -0.177 NA
ATOM     14  C   UNL     1       2.226  -0.698   1.406  0.00  0.00    +0.188 C 
ATOM     15  C   UNL     1      -1.260  -0.880   2.717  0.00  0.00    +0.067 C 
BRANCH  10  17
ATOM     16  C   UNL     1      -0.019   1.526   0.010  0.00  0.00    +0.008 C 
ATOM     17  C   UNL     1       0.002  -0.004   0.002  0.00  0.00    +0.031 C 
ENDBRANCH  10  17
ENDBRANCH   1  14
BRANCH   4  18
ATOM     18  C   UNL     1       7.109  -3.352  -0.066  0.00  0.00    +0.058 A 
ATOM     19  C   UNL     1       8.177  -4.153  -0.385  0.00  0.00    +0.019 A 
ATOM     20  C   UNL     1       8.963  -4.642   0.633  0.00  0.00    +0.008 A 
ATOM     21  C   UNL     1       8.661  -4.320   1.917  0.00  0.00    +0.046 A 
ATOM     22  S   UNL     1       7.222  -3.282   1.714  0.00  0.00    -0.093 S 
ENDBRANCH   4  18
TORSDOF 3
