REMARK  Name = ZINC06602732
REMARK  12 active torsions:
REMARK  status: ('A' for Active; 'I' for Inactive)
REMARK    1  A    between atoms: C_1  and  C_2
REMARK    2  A    between atoms: C_2  and  O_3
REMARK    3  A    between atoms: O_3  and  C_4
REMARK    4  A    between atoms: C_4  and  C_6
REMARK    5  A    between atoms: C_7  and  C_15
REMARK    6  A    between atoms: C_12  and  C_14
REMARK    7  A    between atoms: C_15  and  O_16
REMARK    8  A    between atoms: O_16  and  C_17
REMARK    9  A    between atoms: C_17  and  C_19
REMARK   10  A    between atoms: C_22  and  O_25
REMARK   11  A    between atoms: O_25  and  C_26
REMARK   12  A    between atoms: C_26  and  C_27
REMARK                            x       y       z     vdW  Elec       q    Type
REMARK                         _______ _______ _______ _____ _____    ______ ____
ROOT
ATOM      1  C   UNL     1       4.458   4.295   9.191  0.00  0.00    +0.283 C 
ENDROOT
BRANCH   1   3
ATOM      2  C   UNL     1       6.785   4.762   9.871  0.00  0.00    +0.077 C 
ATOM      3  C   UNL     1       5.942   4.285   8.930  0.00  0.00    +0.061 C 
ATOM      4  N   UNL     1       6.413   3.788   7.748  0.00  0.00    -0.269 N 
ATOM      5  C   UNL     1       7.712   3.742   7.427  0.00  0.00    +0.304 C 
ATOM      6  O   UNL     1       8.036   3.285   6.348  0.00  0.00    -0.252 OA
ATOM      7  N   UNL     1       8.674   4.181   8.264  0.00  0.00    -0.292 N 
ATOM      8  C   UNL     1       8.270   4.732   9.568  0.00  0.00    +0.110 C 
ATOM      9  C   UNL     1       8.799   6.165   9.658  0.00  0.00    +0.033 C 
ATOM     10  H   UNL     1       5.770   3.452   7.104  0.00  0.00    +0.156 HD
ATOM     11  H   UNL     1       9.610   4.136   8.012  0.00  0.00    +0.151 HD
BRANCH   2  12
ATOM     12  C   UNL     1       6.299   5.272  11.097  0.00  0.00    +0.339 C 
ATOM     13  O   UNL     1       5.109   5.232  11.344  0.00  0.00    -0.245 OA
BRANCH  12  14
ATOM     14  O   UNL     1       7.156   5.803  11.994  0.00  0.00    -0.462 OA
BRANCH  14  16
ATOM     15  C   UNL     1       7.713   6.859  14.096  0.00  0.00    +0.048 C 
ATOM     16  C   UNL     1       6.596   6.299  13.212  0.00  0.00    +0.229 C 
ENDBRANCH  14  16
ENDBRANCH  12  14
ENDBRANCH   2  12
ENDBRANCH   1   3
BRANCH   1  17
ATOM     17  O   UNL     1       3.761   3.738   8.045  0.00  0.00    -0.455 OA
BRANCH  17  18
ATOM     18  C   UNL     1       2.417   3.676   8.117  0.00  0.00    +0.340 C 
ATOM     19  O   UNL     1       1.843   4.075   9.111  0.00  0.00    -0.245 OA
BRANCH  18  20
ATOM     20  C   UNL     1       1.643   3.122   6.991  0.00  0.00    +0.059 A 
ATOM     21  C   UNL     1       0.249   3.056   7.064  0.00  0.00    +0.018 A 
ATOM     22  C   UNL     1      -0.470   2.538   6.010  0.00  0.00    +0.046 A 
ATOM     23  C   UNL     1       0.189   2.081   4.875  0.00  0.00    +0.121 A 
ATOM     24  C   UNL     1       1.576   2.140   4.800  0.00  0.00    +0.046 A 
ATOM     25  C   UNL     1       2.302   2.662   5.847  0.00  0.00    +0.018 A 
BRANCH  23  26
ATOM     26  O   UNL     1      -0.523   1.571   3.838  0.00  0.00    -0.489 OA
BRANCH  26  27
ATOM     27  C   UNL     1       0.217   1.120   2.702  0.00  0.00    +0.260 C 
BRANCH  27  28
ATOM     28  C   UNL     1      -0.750   0.582   1.645  0.00  0.00    +0.156 C 
ATOM     29  C   UNL     1       0.034  -0.026   0.460  0.00  0.00    +0.037 C 
ATOM     30  C   UNL     1      -0.800   0.360  -0.782  0.00  0.00    +0.031 C 
ATOM     31  C   UNL     1      -1.991   1.155  -0.204  0.00  0.00    +0.160 C 
ATOM     32  O   UNL     1      -1.516   1.662   1.062  0.00  0.00    -0.373 OA
ENDBRANCH  27  28
ENDBRANCH  26  27
ENDBRANCH  23  26
ENDBRANCH  18  20
ENDBRANCH  17  18
ENDBRANCH   1  17
TORSDOF 10
