REMARK  Name = ZINC03664965
REMARK  1 active torsions:
REMARK  status: ('A' for Active; 'I' for Inactive)
REMARK    1  A    between atoms: N_14  and  C_15
REMARK                            x       y       z     vdW  Elec       q    Type
REMARK                         _______ _______ _______ _____ _____    ______ ____
ROOT
ATOM      1  C   UNL     1      -0.788   3.123  -1.209  0.00  0.00    +0.003 C 
ATOM      2  C   UNL     1      -0.752   1.593  -1.232  0.00  0.00    +0.019 C 
ATOM      3  C   UNL     1      -0.013   1.086   0.008  0.00  0.00    +0.108 C 
ATOM      4  N   UNL     1      -0.700   1.559   1.216  0.00  0.00    -0.299 N 
ATOM      5  C   UNL     1      -0.705   3.026   1.284  0.00  0.00    +0.108 C 
ATOM      6  C   UNL     1      -1.465   3.591   0.082  0.00  0.00    +0.019 C 
ATOM      7  C   UNL     1      -0.136   1.014   2.352  0.00  0.00    +0.223 A 
ATOM      8  N   UNL     1      -0.617   1.327   3.550  0.00  0.00    -0.181 NA
ATOM      9  C   UNL     1      -0.074   0.797   4.640  0.00  0.00    +0.221 A 
ATOM     10  N   UNL     1       0.956  -0.039   4.530  0.00  0.00    -0.184 NA
ATOM     11  C   UNL     1       1.436  -0.345   3.336  0.00  0.00    +0.229 A 
ATOM     12  N   UNL     1       0.895   0.178   2.248  0.00  0.00    -0.184 NA
ATOM     13 CL   UNL     1       2.780  -1.435   3.196  0.00  0.00    -0.041 Cl
ATOM     14  N   UNL     1      -0.574   1.116   5.886  0.00  0.00    -0.310 N 
ATOM     15  H   UNL     1      -1.325   1.724   5.966  0.00  0.00    +0.149 HD
ENDROOT
BRANCH  14  16
ATOM     16  C   UNL     1       0.029   0.535   7.088  0.00  0.00    +0.073 C 
ATOM     17  C   UNL     1      -0.621  -0.830   7.399  0.00  0.00    +0.022 C 
ATOM     18  C   UNL     1      -0.695  -0.871   8.946  0.00  0.00    +0.002 C 
ATOM     19  C   UNL     1      -1.048   0.593   9.311  0.00  0.00    +0.002 C 
ATOM     20  C   UNL     1      -0.242   1.439   8.304  0.00  0.00    +0.022 C 
ENDBRANCH  14  16
TORSDOF 1
