REMARK  Name = ZINC32699155
REMARK  6 active torsions:
REMARK  status: ('A' for Active; 'I' for Inactive)
REMARK    1  A    between atoms: C_3  and  C_7
REMARK    2  A    between atoms: C_10  and  S_12
REMARK    3  A    between atoms: S_12  and  C_13
REMARK    4  A    between atoms: C_13  and  C_14
REMARK    5  A    between atoms: C_20  and  S_22
REMARK    6  A    between atoms: S_22  and  C_23
REMARK                            x       y       z     vdW  Elec       q    Type
REMARK                         _______ _______ _______ _____ _____    ______ ____
ROOT
ATOM      1  C   UNL     1      -0.014   1.209   0.009  0.00  0.00    +0.229 C 
ATOM      2  O   UNL     1       0.002  -0.004   0.002  0.00  0.00    -0.275 OA
ATOM      3  N   UNL     1      -1.191   1.867   0.018  0.00  0.00    -0.263 N 
ATOM      4  C   UNL     1      -2.387   1.154   0.020  0.00  0.00    +0.189 A 
ATOM      5  N   UNL     1      -2.599  -0.152   0.008  0.00  0.00    -0.125 NA
ATOM      6  N   UNL     1      -3.762  -0.640   0.015  0.00  0.00    -0.133 NA
ATOM      7  C   UNL     1      -4.843   0.125   0.025  0.00  0.00    +0.160 A 
ATOM      8  S   UNL     1      -4.078   1.744   0.031  0.00  0.00    -0.024 S 
ATOM      9  H   UNL     1      -1.206   2.967   0.024  0.00  0.00    +0.157 HD
ENDROOT
BRANCH   1  10
ATOM     10  C   UNL     1       1.280   1.980   0.001  0.00  0.00    +0.175 C 
BRANCH  10  11
ATOM     11  S   UNL     1       2.672   0.823  -0.019  0.00  0.00    -0.056 S 
BRANCH  11  15
ATOM     12  C   UNL     1       5.997   2.821  -0.039  0.00  0.00    +0.251 A 
ATOM     13  N   UNL     1       5.107   3.782  -0.025  0.00  0.00    -0.106 NA
ATOM     14  N   UNL     1       3.926   3.271  -0.017  0.00  0.00    -0.101 NA
ATOM     15  C   UNL     1       4.017   1.961  -0.026  0.00  0.00    +0.278 A 
ATOM     16  O   UNL     1       5.326   1.647  -0.035  0.00  0.00    -0.411 OA
BRANCH  12  19
ATOM     17  C   UNL     1       9.416   4.369  -0.061  0.00  0.00    +0.020 A 
ATOM     18  C   UNL     1       8.036   4.267  -0.055  0.00  0.00    +0.016 A 
ATOM     19  C   UNL     1       7.465   2.989  -0.051  0.00  0.00    +0.057 A 
ATOM     20  C   UNL     1       8.307   1.875  -0.065  0.00  0.00    +0.124 A 
ATOM     21  N   UNL     1       9.615   2.025  -0.075  0.00  0.00    -0.263 NA
ATOM     22  C   UNL     1      10.180   3.217  -0.074  0.00  0.00    +0.111 A 
ENDBRANCH  12  19
ENDBRANCH  11  15
ENDBRANCH  10  11
ENDBRANCH   1  10
BRANCH   7  23
ATOM     23  S   UNL     1      -6.548  -0.322   0.030  0.00  0.00    -0.094 S 
BRANCH  23  24
ATOM     24  C   UNL     1      -6.526  -2.136   0.019  0.00  0.00    +0.053 C 
ATOM     25  C   UNL     1      -5.916  -2.631  -1.294  0.00  0.00    +0.014 C 
ATOM     26  C   UNL     1      -5.897  -4.160  -1.304  0.00  0.00    +0.001 C 
ATOM     27  C   UNL     1      -7.327  -4.689  -1.175  0.00  0.00    +0.000 C 
ATOM     28  C   UNL     1      -7.937  -4.194   0.138  0.00  0.00    +0.001 C 
ATOM     29  C   UNL     1      -7.956  -2.664   0.148  0.00  0.00    +0.014 C 
ENDBRANCH  23  24
ENDBRANCH   7  23
TORSDOF 6
