REMARK  Name = ZINC04795225
REMARK  6 active torsions:
REMARK  status: ('A' for Active; 'I' for Inactive)
REMARK    1  A    between atoms: C_1  and  O_2
REMARK    2  A    between atoms: O_2  and  C_3
REMARK    3  A    between atoms: N_9  and  S_10
REMARK    4  A    between atoms: S_10  and  C_13
REMARK    5  A    between atoms: C_16  and  N_19
REMARK    6  A    between atoms: C_20  and  C_21
REMARK                            x       y       z     vdW  Elec       q    Type
REMARK                         _______ _______ _______ _____ _____    ______ ____
ROOT
ATOM      1  C   UNL     1       2.396   0.034  -0.020  0.00  0.00    +0.109 A 
ATOM      2  C   UNL     1       1.208  -0.674  -0.013  0.00  0.00    +0.031 A 
ATOM      3  C   UNL     1       0.002  -0.004   0.002  0.00  0.00    +0.029 A 
ATOM      4  C   UNL     1      -0.017   1.393   0.010  0.00  0.00    +0.064 A 
ATOM      5  C   UNL     1       1.187   2.101   0.002  0.00  0.00    +0.029 A 
ATOM      6  C   UNL     1       2.385   1.418  -0.013  0.00  0.00    +0.031 A 
ENDROOT
BRANCH   1   7
ATOM      7  S   UNL     1       3.932  -0.830  -0.039  0.00  0.00    +0.074 S 
ATOM      8  O   UNL     1       4.902   0.053   0.508  0.00  0.00    -0.150 OA
ATOM      9  O   UNL     1       3.680  -2.118   0.507  0.00  0.00    -0.150 OA
BRANCH   7  16
ATOM     10  C   UNL     1       5.159   2.209  -3.933  0.00  0.00    +0.234 A 
ATOM     11  C   UNL     1       5.248   0.960  -4.544  0.00  0.00    +0.072 A 
ATOM     12  C   UNL     1       4.981  -0.160  -3.775  0.00  0.00    +0.052 A 
ATOM     13  C   UNL     1       4.628   0.033  -2.439  0.00  0.00    +0.160 A 
ATOM     14  N   UNL     1       4.569   1.259  -1.945  0.00  0.00    -0.129 NA
ATOM     15  N   UNL     1       4.822   2.296  -2.658  0.00  0.00    -0.110 NA
ATOM     16  N   UNL     1       4.344  -1.062  -1.626  0.00  0.00    -0.198 N 
ATOM     17  H   UNL     1       4.388  -1.960  -1.990  0.00  0.00    +0.175 HD
BRANCH  10  19
ATOM     18  C   UNL     1       5.306   4.581  -3.955  0.00  0.00    +0.279 C 
ATOM     19  O   UNL     1       5.418   3.335  -4.646  0.00  0.00    -0.479 OA
ENDBRANCH  10  19
ENDBRANCH   7  16
ENDBRANCH   1   7
BRANCH   4  20
ATOM     20  N   UNL     1      -1.210   2.064   0.019  0.00  0.00    -0.255 NA
ATOM     21  C   UNL     1      -1.382   3.074   0.823  0.00  0.00    +0.119 C 
BRANCH  21  22
ATOM     22  C   UNL     1      -2.665   3.796   0.833  0.00  0.00    -0.007 A 
ATOM     23  C   UNL     1      -3.698   3.404  -0.023  0.00  0.00    +0.011 A 
ATOM     24  C   UNL     1      -4.898   4.082  -0.006  0.00  0.00    +0.020 A 
ATOM     25  C   UNL     1      -5.078   5.156   0.851  0.00  0.00    +0.041 A 
ATOM     26  C   UNL     1      -4.057   5.553   1.699  0.00  0.00    +0.020 A 
ATOM     27  C   UNL     1      -2.853   4.881   1.695  0.00  0.00    +0.011 A 
ATOM     28 CL   UNL     1      -6.591   6.008   0.862  0.00  0.00    -0.084 Cl
ENDBRANCH  21  22
ENDBRANCH   4  20
TORSDOF 5
