REMARK  Name = ZINC10320613
REMARK  10 active torsions:
REMARK  status: ('A' for Active; 'I' for Inactive)
REMARK    1  A    between atoms: C_1  and  C_2
REMARK    2  A    between atoms: C_5  and  N_27
REMARK    3  A    between atoms: C_6  and  O_8
REMARK    4  A    between atoms: O_8  and  C_9
REMARK    5  A    between atoms: C_9  and  C_10
REMARK    6  A    between atoms: N_12  and  C_13
REMARK    7  A    between atoms: C_14  and  C_25
REMARK    8  A    between atoms: C_15  and  C_24
REMARK    9  A    between atoms: C_16  and  C_23
REMARK   10  A    between atoms: N_17  and  C_18
REMARK                            x       y       z     vdW  Elec       q    Type
REMARK                         _______ _______ _______ _____ _____    ______ ____
ROOT
ATOM      1  C   UNL     1      -0.112   0.071   1.353  0.00  0.00    +0.256 C 
ATOM      2  O   UNL     1       0.818  -0.114   2.109  0.00  0.00    -0.272 OA
ATOM      3  N   UNL     1      -0.011   0.992   0.373  0.00  0.00    -0.268 N 
ATOM      4  H   UNL     1      -0.763   1.157  -0.216  0.00  0.00    +0.156 HD
ENDROOT
BRANCH   3   5
ATOM      5  C   UNL     1       1.167   1.706   0.212  0.00  0.00    +0.124 A 
ATOM      6  C   UNL     1       2.453   1.195   0.315  0.00  0.00    +0.095 A 
ATOM      7  C   UNL     1       3.358   2.324   0.064  0.00  0.00    -0.011 A 
ATOM      8  C   UNL     1       2.582   3.398  -0.156  0.00  0.00    +0.022 A 
ATOM      9  N   UNL     1       1.266   3.031  -0.068  0.00  0.00    -0.329 N 
ATOM     10  C   UNL     1       3.082   4.788  -0.453  0.00  0.00    +0.064 C 
ATOM     11  C   UNL     1       4.864   2.286   0.059  0.00  0.00    +0.047 C 
BRANCH   9  12
ATOM     12  C   UNL     1       0.129   3.938  -0.248  0.00  0.00    +0.089 C 
ATOM     13  C   UNL     1      -0.815   3.850   0.968  0.00  0.00    +0.025 C 
ATOM     14  C   UNL     1      -2.234   3.978   0.358  0.00  0.00    +0.002 C 
ATOM     15  C   UNL     1      -2.111   3.179  -0.964  0.00  0.00    +0.002 C 
ATOM     16  C   UNL     1      -0.695   3.512  -1.477  0.00  0.00    +0.025 C 
ENDBRANCH   9  12
BRANCH   6  17
ATOM     17  C   UNL     1       2.823  -0.158   0.603  0.00  0.00    +0.103 C 
ATOM     18  N   UNL     1       3.116  -1.231   0.832  0.00  0.00    -0.191 NA
ENDBRANCH   6  17
ENDBRANCH   3   5
BRANCH   1  19
ATOM     19  C   UNL     1      -1.380  -0.729   1.507  0.00  0.00    +0.325 C 
BRANCH  19  20
ATOM     20  O   UNL     1      -1.198  -1.719   2.521  0.00  0.00    -0.480 OA
BRANCH  20  26
ATOM     21  C   UNL     1      -5.804  -3.040   1.597  0.00  0.00    +0.044 C 
ATOM     22  C   UNL     1      -4.514  -3.206   2.357  0.00  0.00    -0.047 A 
ATOM     23  C   UNL     1      -4.404  -4.186   3.327  0.00  0.00    +0.006 A 
ATOM     24  C   UNL     1      -3.222  -4.341   4.026  0.00  0.00    +0.037 A 
ATOM     25  C   UNL     1      -2.145  -3.519   3.755  0.00  0.00    +0.168 A 
ATOM     26  C   UNL     1      -2.254  -2.531   2.787  0.00  0.00    +0.152 A 
ATOM     27  C   UNL     1      -3.442  -2.378   2.086  0.00  0.00    +0.051 A 
BRANCH  25  28
ATOM     28  N   UNL     1      -0.878  -3.688   4.500  0.00  0.00    +0.060 N 
ATOM     29  O   UNL     1      -0.783  -4.555   5.351  0.00  0.00    -0.126 OA
ATOM     30  O   UNL     1       0.070  -2.961   4.264  0.00  0.00    -0.126 OA
ENDBRANCH  25  28
ENDBRANCH  20  26
ENDBRANCH  19  20
ENDBRANCH   1  19
TORSDOF 7
