REMARK  Name = ZINC20663270
REMARK  5 active torsions:
REMARK  status: ('A' for Active; 'I' for Inactive)
REMARK    1  A    between atoms: C_8  and  C_10
REMARK    2  A    between atoms: C_13  and  N_16
REMARK    3  A    between atoms: C_20  and  N_24
REMARK    4  A    between atoms: N_24  and  C_25
REMARK    5  A    between atoms: C_25  and  C_26
REMARK                            x       y       z     vdW  Elec       q    Type
REMARK                         _______ _______ _______ _____ _____    ______ ____
ROOT
ATOM      1  N   UNL     1      -1.834   2.309   0.782  0.00  0.00    -0.212 N 
ATOM      2  C   UNL     1      -2.195   1.346  -0.081  0.00  0.00    +0.225 C 
ATOM      3  O   UNL     1      -3.313   0.895  -0.207  0.00  0.00    -0.275 OA
ATOM      4  C   UNL     1      -0.981   0.914  -0.873  0.00  0.00    +0.090 C 
ATOM      5  C   UNL     1       0.153   1.796  -0.314  0.00  0.00    +0.026 C 
ATOM      6  C   UNL     1      -0.538   2.639   0.736  0.00  0.00    +0.213 C 
ATOM      7  O   UNL     1      -0.002   3.479   1.427  0.00  0.00    -0.277 OA
ENDROOT
BRANCH   1  11
ATOM      8  C   UNL     1      -4.533   4.123   3.394  0.00  0.00    +0.037 A 
ATOM      9  C   UNL     1      -3.513   3.310   3.894  0.00  0.00    +0.015 A 
ATOM     10  C   UNL     1      -2.623   2.713   3.028  0.00  0.00    +0.025 A 
ATOM     11  C   UNL     1      -2.740   2.918   1.659  0.00  0.00    +0.044 A 
ATOM     12  C   UNL     1      -3.751   3.730   1.157  0.00  0.00    +0.025 A 
ATOM     13  C   UNL     1      -4.647   4.326   2.017  0.00  0.00    +0.015 A 
BRANCH   8  21
ATOM     14  C   UNL     1      -8.044   6.403   7.653  0.00  0.00    +0.002 A 
ATOM     15  C   UNL     1      -8.698   6.989   6.580  0.00  0.00    +0.004 A 
ATOM     16  C   UNL     1      -8.261   6.771   5.290  0.00  0.00    +0.048 A 
ATOM     17  C   UNL     1      -7.160   5.961   5.061  0.00  0.00    +0.156 A 
ATOM     18  C   UNL     1      -6.494   5.365   6.144  0.00  0.00    +0.110 A 
ATOM     19  C   UNL     1      -6.948   5.595   7.445  0.00  0.00    +0.031 A 
ATOM     20  N   UNL     1      -5.475   4.635   5.622  0.00  0.00    -0.209 NA
ATOM     21  C   UNL     1      -5.489   4.764   4.319  0.00  0.00    +0.228 A 
ATOM     22  O   UNL     1      -6.507   5.564   3.946  0.00  0.00    -0.435 OA
ENDBRANCH   8  21
ENDBRANCH   1  11
BRANCH   5  23
ATOM     23  N   UNL     1       1.203   0.967   0.293  0.00  0.00    +0.392 N 
ATOM     24  H   UNL     1       0.931   0.735   1.334  0.00  0.00    -0.084 HD
ATOM     25  H   UNL     1       1.306   0.031  -0.276  0.00  0.00    -0.084 HD
BRANCH  23  26
ATOM     26  C   UNL     1       2.495   1.666   0.289  0.00  0.00    -0.006 C 
BRANCH  26  27
ATOM     27  C   UNL     1       3.544   0.786   0.918  0.00  0.00    +0.088 A 
ATOM     28  C   UNL     1       4.316  -0.105   0.269  0.00  0.00    +0.042 A 
ATOM     29  C   UNL     1       5.155  -0.702   1.238  0.00  0.00    +0.041 A 
ATOM     30  C   UNL     1       4.840  -0.147   2.422  0.00  0.00    +0.195 A 
ATOM     31  O   UNL     1       3.864   0.753   2.222  0.00  0.00    -0.470 OA
ENDBRANCH  26  27
ENDBRANCH  23  26
ENDBRANCH   5  23
TORSDOF 5
