REMARK  Name = ZINC01240831
REMARK  15 active torsions:
REMARK  status: ('A' for Active; 'I' for Inactive)
REMARK    1  A    between atoms: C_1  and  C_2
REMARK    2  A    between atoms: C_2  and  O_3
REMARK    3  A    between atoms: O_3  and  C_4
REMARK    4  A    between atoms: C_6  and  C_14
REMARK    5  A    between atoms: C_9  and  O_10
REMARK    6  A    between atoms: O_10  and  C_11
REMARK    7  A    between atoms: C_11  and  C_12
REMARK    8  A    between atoms: C_11  and  C_13
REMARK    9  A    between atoms: C_23  and  C_31
REMARK   10  A    between atoms: C_24  and  N_30
REMARK   11  A    between atoms: C_25  and  C_26
REMARK   12  A    between atoms: C_25  and  C_28
REMARK   13  A    between atoms: C_33  and  O_35
REMARK   14  A    between atoms: O_35  and  C_36
REMARK   15  A    between atoms: C_36  and  C_37
REMARK                            x       y       z     vdW  Elec       q    Type
REMARK                         _______ _______ _______ _____ _____    ______ ____
ROOT
ATOM      1  C   UNL     1      -3.781   2.845   0.292  0.00  0.00    +0.068 C 
ATOM      2  C   UNL     1      -2.741   1.728   0.200  0.00  0.00    +0.048 C 
ATOM      3  C   UNL     1      -1.964   1.566   1.486  0.00  0.00    +0.120 C 
ATOM      4  N   UNL     1      -0.600   2.095   1.356  0.00  0.00    -0.263 N 
ATOM      5  C   UNL     1       0.202   1.609   0.219  0.00  0.00    +0.138 C 
ATOM      6  C   UNL     1      -0.582   1.902  -1.035  0.00  0.00    -0.003 C 
ATOM      7  C   UNL     1      -1.899   1.966  -1.017  0.00  0.00    -0.026 C 
ATOM      8  C   UNL     1      -2.622   2.307  -2.272  0.00  0.00    +0.074 C 
ATOM      9  C   UNL     1      -3.922   2.688  -2.205  0.00  0.00    +0.054 C 
ATOM     10  C   UNL     1      -4.701   2.765  -0.927  0.00  0.00    +0.188 C 
ATOM     11  C   UNL     1      -0.103   2.986   2.236  0.00  0.00    +0.403 C 
ATOM     12  O   UNL     1      -0.787   3.369   3.165  0.00  0.00    -0.226 OA
ENDROOT
BRANCH   1  15
ATOM     13  C   UNL     1      -5.617   3.627   3.501  0.00  0.00    +0.162 A 
ATOM     14  C   UNL     1      -4.864   3.776   2.346  0.00  0.00    +0.053 A 
ATOM     15  C   UNL     1      -4.594   2.679   1.550  0.00  0.00    -0.037 A 
ATOM     16  C   UNL     1      -5.063   1.429   1.909  0.00  0.00    +0.008 A 
ATOM     17  C   UNL     1      -5.809   1.272   3.062  0.00  0.00    +0.050 A 
ATOM     18  C   UNL     1      -6.089   2.368   3.861  0.00  0.00    +0.162 A 
BRANCH  13  19
ATOM     19  O   UNL     1      -5.889   4.706   4.281  0.00  0.00    -0.489 OA
BRANCH  19  21
ATOM     20  C   UNL     1      -5.777   7.053   4.847  0.00  0.00    +0.048 C 
ATOM     21  C   UNL     1      -5.372   5.967   3.849  0.00  0.00    +0.226 C 
ENDBRANCH  19  21
ENDBRANCH  13  19
BRANCH  18  22
ATOM     22  O   UNL     1      -6.823   2.216   4.996  0.00  0.00    -0.486 OA
BRANCH  22  23
ATOM     23  C   UNL     1      -7.171   0.881   5.368  0.00  0.00    +0.167 C 
ATOM     24  C   UNL     1      -7.411   0.818   6.878  0.00  0.00    +0.051 C 
ATOM     25  C   UNL     1      -8.445   0.461   4.631  0.00  0.00    +0.051 C 
ENDBRANCH  22  23
ENDBRANCH  18  22
ENDBRANCH   1  15
BRANCH   9  26
ATOM     26  N   UNL     1      -4.558   3.019  -3.368  0.00  0.00    -0.358 N 
ATOM     27  H   UNL     1      -5.613   3.331  -3.349  0.00  0.00    +0.142 HD
ATOM     28  H   UNL     1      -4.016   2.972  -4.324  0.00  0.00    +0.142 HD
ENDBRANCH   9  26
BRANCH  10  29
ATOM     29  C   UNL     1      -5.560   3.960  -0.959  0.00  0.00    +0.091 C 
ATOM     30  N   UNL     1      -6.223   4.882  -0.984  0.00  0.00    -0.194 NA
ENDBRANCH  10  29
BRANCH  10  31
ATOM     31  C   UNL     1      -5.551   1.568  -0.809  0.00  0.00    +0.091 C 
ATOM     32  N   UNL     1      -6.206   0.645  -0.718  0.00  0.00    -0.194 NA
ENDBRANCH  10  31
BRANCH   8  33
ATOM     33  C   UNL     1      -1.953   2.234  -3.536  0.00  0.00    +0.101 C 
ATOM     34  N   UNL     1      -1.423   2.176  -4.539  0.00  0.00    -0.191 NA
ENDBRANCH   8  33
BRANCH  11  35
ATOM     35  O   UNL     1       1.151   3.452   2.087  0.00  0.00    -0.451 OA
BRANCH  35  36
ATOM     36  C   UNL     1       1.621   4.410   3.072  0.00  0.00    +0.230 C 
ATOM     37  C   UNL     1       3.056   4.821   2.740  0.00  0.00    +0.048 C 
ENDBRANCH  35  36
ENDBRANCH  11  35
TORSDOF 11
