REMARK  Name = ZINC22700745
REMARK  13 active torsions:
REMARK  status: ('A' for Active; 'I' for Inactive)
REMARK    1  A    between atoms: C_1  and  C_2
REMARK    2  A    between atoms: C_2  and  N_3
REMARK    3  A    between atoms: N_3  and  C_4
REMARK    4  A    between atoms: N_3  and  C_6
REMARK    5  A    between atoms: C_4  and  C_5
REMARK    6  A    between atoms: C_6  and  C_8
REMARK    7  A    between atoms: C_6  and  C_27
REMARK    8  A    between atoms: C_8  and  N_9
REMARK    9  A    between atoms: C_10  and  C_12
REMARK   10  A    between atoms: C_12  and  N_13
REMARK   11  A    between atoms: C_16  and  N_24
REMARK   12  A    between atoms: C_31  and  O_33
REMARK   13  A    between atoms: O_33  and  C_34
REMARK                            x       y       z     vdW  Elec       q    Type
REMARK                         _______ _______ _______ _____ _____    ______ ____
ROOT
ATOM      1  N   UNL     1      -0.127  -0.256  -3.150  0.00  0.00    -0.315 N 
ATOM      2  C   UNL     1       0.648   0.450  -3.997  0.00  0.00    +0.231 C 
ATOM      3  O   UNL     1       1.062   1.543  -3.672  0.00  0.00    -0.274 OA
ATOM      4  H   UNL     1      -0.498  -1.249  -3.443  0.00  0.00    +0.149 HD
ENDROOT
BRANCH   1   5
ATOM      5  C   UNL     1      -0.475   0.299  -1.839  0.00  0.00    +0.093 C 
BRANCH   5   6
ATOM      6  C   UNL     1      -1.362  -0.693  -1.084  0.00  0.00    -0.020 C 
BRANCH   6   7
ATOM      7  C   UNL     1      -1.869  -0.051   0.181  0.00  0.00    -0.056 A 
ATOM      8  C   UNL     1      -2.776   0.991   0.111  0.00  0.00    +0.002 A 
ATOM      9  C   UNL     1      -3.244   1.582   1.270  0.00  0.00    +0.004 A 
ATOM     10  C   UNL     1      -2.808   1.131   2.501  0.00  0.00    +0.045 A 
ATOM     11  C   UNL     1      -1.899   0.086   2.574  0.00  0.00    +0.120 A 
ATOM     12  C   UNL     1      -1.434  -0.508   1.409  0.00  0.00    +0.047 A 
BRANCH  11  13
ATOM     13  O   UNL     1      -1.468  -0.358   3.784  0.00  0.00    -0.495 OA
ATOM     14  C   UNL     1      -1.994   0.296   4.940  0.00  0.00    +0.277 C 
ENDBRANCH  11  13
ENDBRANCH   6   7
BRANCH   6  15
ATOM     15  N   UNL     1      -2.500  -1.075  -1.931  0.00  0.00    +0.385 N 
ATOM     16  H   UNL     1      -2.112  -1.307  -2.934  0.00  0.00    -0.081 HD
BRANCH  15  18
ATOM     17  C   UNL     1      -2.209  -3.472  -1.524  0.00  0.00    -0.017 C 
ATOM     18  C   UNL     1      -3.161  -2.280  -1.412  0.00  0.00    -0.081 C 
ENDBRANCH  15  18
BRANCH  15  19
ATOM     19  C   UNL     1      -3.454   0.034  -2.061  0.00  0.00    -0.081 C 
ATOM     20  C   UNL     1      -2.775   1.212  -2.764  0.00  0.00    -0.017 C 
ENDBRANCH  15  19
ENDBRANCH   6  15
ENDBRANCH   5   6
ENDBRANCH   1   5
BRANCH   2  21
ATOM     21  C   UNL     1       1.001  -0.118  -5.347  0.00  0.00    +0.209 C 
BRANCH  21  22
ATOM     22  N   UNL     1       1.846   0.834  -6.072  0.00  0.00    -0.256 N 
ATOM     23  C   UNL     1       1.271   1.807  -6.902  0.00  0.00    +0.081 A 
ATOM     24  C   UNL     1      -0.079   2.107  -6.809  0.00  0.00    +0.060 A 
ATOM     25  C   UNL     1      -0.626   3.073  -7.634  0.00  0.00    +0.128 A 
ATOM     26  C   UNL     1       0.170   3.742  -8.545  0.00  0.00    +0.036 A 
ATOM     27  C   UNL     1       1.519   3.450  -8.639  0.00  0.00    +0.050 A 
ATOM     28  C   UNL     1       2.074   2.484  -7.817  0.00  0.00    +0.143 A 
ATOM     29  O   UNL     1       3.398   2.185  -7.895  0.00  0.00    -0.481 OA
ATOM     30  C   UNL     1       4.042   1.797  -6.679  0.00  0.00    +0.325 C 
ATOM     31  C   UNL     1       3.191   0.785  -5.955  0.00  0.00    +0.258 C 
ATOM     32  O   UNL     1       3.711  -0.070  -5.270  0.00  0.00    -0.271 OA
BRANCH  25  33
ATOM     33  N   UNL     1      -2.069   3.392  -7.541  0.00  0.00    +0.056 N 
ATOM     34  O   UNL     1      -2.553   4.242  -8.266  0.00  0.00    -0.126 OA
ATOM     35  O   UNL     1      -2.772   2.804  -6.738  0.00  0.00    -0.126 OA
ENDBRANCH  25  33
ENDBRANCH  21  22
ENDBRANCH   2  21
TORSDOF 10
