REMARK  Name = ZINC39635125
REMARK  8 active torsions:
REMARK  status: ('A' for Active; 'I' for Inactive)
REMARK    1  A    between atoms: C_1  and  O_2
REMARK    2  A    between atoms: O_2  and  C_3
REMARK    3  A    between atoms: C_6  and  C_9
REMARK    4  A    between atoms: C_9  and  C_10
REMARK    5  A    between atoms: C_10  and  N_11
REMARK    6  A    between atoms: C_12  and  C_14
REMARK    7  A    between atoms: C_25  and  C_27
REMARK    8  A    between atoms: C_30  and  C_32
REMARK                            x       y       z     vdW  Elec       q    Type
REMARK                         _______ _______ _______ _____ _____    ______ ____
ROOT
ATOM      1  C   UNL     1       2.244  -4.478   8.810  0.00  0.00    +0.100 C 
ATOM      2  C   UNL     1       2.672  -5.908   8.412  0.00  0.00    +0.121 C 
ATOM      3  N   UNL     1       2.450  -6.718   9.632  0.00  0.00    -0.294 N 
ATOM      4  C   UNL     1       1.185  -6.194  10.199  0.00  0.00    +0.115 C 
ATOM      5  C   UNL     1       1.268  -4.669   9.983  0.00  0.00    -0.004 C 
ATOM      6  C   UNL     1      -0.106  -4.113   9.623  0.00  0.00    -0.010 C 
ATOM      7  C   UNL     1      -1.044  -4.262  10.825  0.00  0.00    -0.082 C 
ATOM      8  N   UNL     1      -0.487  -3.539  11.975  0.00  0.00    +0.379 N 
ATOM      9  C   UNL     1       0.792  -4.141  12.373  0.00  0.00    -0.082 C 
ATOM     10  C   UNL     1       1.806  -3.987  11.236  0.00  0.00    -0.010 C 
ATOM     11  C   UNL     1       3.224  -7.709  10.118  0.00  0.00    +0.282 C 
ATOM     12  O   UNL     1       2.905  -8.286  11.141  0.00  0.00    -0.267 OA
ATOM     13  H   UNL     1      -0.338  -2.573  11.724  0.00  0.00    -0.086 HD
ATOM     14  H   UNL     1      -1.135  -3.588  12.747  0.00  0.00    -0.086 HD
ENDROOT
BRANCH  11  15
ATOM     15  C   UNL     1       4.451  -8.092   9.414  0.00  0.00    +0.190 A 
ATOM     16  C   UNL     1       5.326  -9.085   9.796  0.00  0.00    +0.055 A 
ATOM     17  C   UNL     1       6.350  -9.108   8.844  0.00  0.00    +0.050 A 
ATOM     18  C   UNL     1       6.066  -8.139   7.925  0.00  0.00    +0.136 A 
ATOM     19  O   UNL     1       4.918  -7.537   8.276  0.00  0.00    -0.450 OA
BRANCH  18  20
ATOM     20  C   UNL     1       6.884  -7.810   6.740  0.00  0.00    +0.017 A 
ATOM     21  C   UNL     1       8.058  -8.520   6.479  0.00  0.00    +0.014 A 
ATOM     22  C   UNL     1       8.817  -8.210   5.371  0.00  0.00    +0.039 A 
ATOM     23  C   UNL     1       8.417  -7.194   4.517  0.00  0.00    +0.123 A 
ATOM     24  C   UNL     1       7.253  -6.485   4.771  0.00  0.00    +0.039 A 
ATOM     25  C   UNL     1       6.483  -6.791   5.873  0.00  0.00    +0.014 A 
ATOM     26  F   UNL     1       9.165  -6.893   3.433  0.00  0.00    -0.205 F 
ENDBRANCH  18  20
ENDBRANCH  11  15
BRANCH   1  28
ATOM     27  N   UNL     1       1.605  -2.455   7.537  0.00  0.00    -0.315 N 
ATOM     28  C   UNL     1       1.552  -3.796   7.658  0.00  0.00    +0.218 C 
ATOM     29  O   UNL     1       0.948  -4.455   6.838  0.00  0.00    -0.275 OA
ATOM     30  H   UNL     1       2.089  -1.928   8.193  0.00  0.00    +0.149 HD
BRANCH  27  31
ATOM     31  C   UNL     1       0.933  -1.793   6.417  0.00  0.00    +0.109 C 
BRANCH  31  32
ATOM     32  C   UNL     1       1.147  -0.281   6.516  0.00  0.00    +0.054 C 
BRANCH  32  36
ATOM     33  C   UNL     1      -0.815   1.651   3.247  0.00  0.00    +0.120 A 
ATOM     34  C   UNL     1      -1.495   1.435   4.436  0.00  0.00    +0.046 A 
ATOM     35  C   UNL     1      -0.859   0.810   5.491  0.00  0.00    +0.007 A 
ATOM     36  C   UNL     1       0.455   0.400   5.363  0.00  0.00    -0.046 A 
ATOM     37  C   UNL     1       1.136   0.615   4.179  0.00  0.00    +0.007 A 
ATOM     38  C   UNL     1       0.502   1.234   3.119  0.00  0.00    +0.046 A 
BRANCH  33  40
ATOM     39  C   UNL     1      -2.794   2.668   2.411  0.00  0.00    +0.277 C 
ATOM     40  O   UNL     1      -1.438   2.265   2.208  0.00  0.00    -0.495 OA
ENDBRANCH  33  40
ENDBRANCH  32  36
ENDBRANCH  31  32
ENDBRANCH  27  31
ENDBRANCH   1  28
TORSDOF 7
