REMARK  Name = ZINC13192758
REMARK  10 active torsions:
REMARK  status: ('A' for Active; 'I' for Inactive)
REMARK    1  A    between atoms: C_1  and  C_2
REMARK    2  A    between atoms: C_2  and  C_4
REMARK    3  A    between atoms: C_2  and  S_16
REMARK    4  A    between atoms: N_6  and  C_7
REMARK    5  A    between atoms: C_12  and  N_13
REMARK    6  A    between atoms: S_16  and  C_17
REMARK    7  A    between atoms: C_20  and  C_26
REMARK    8  A    between atoms: N_21  and  C_22
REMARK    9  A    between atoms: C_22  and  C_23
REMARK   10  A    between atoms: C_23  and  C_24
REMARK                            x       y       z     vdW  Elec       q    Type
REMARK                         _______ _______ _______ _____ _____    ______ ____
ROOT
ATOM      1  S   UNL     1       1.450  -2.279  -2.799  0.00  0.00    -0.074 S 
ENDROOT
BRANCH   1   2
ATOM      2  C   UNL     1       1.456  -2.793  -1.113  0.00  0.00    +0.193 A 
ATOM      3  N   UNL     1       1.461  -4.032  -0.677  0.00  0.00    -0.122 NA
ATOM      4  N   UNL     1       1.464  -4.048   0.608  0.00  0.00    -0.128 NA
ATOM      5  C   UNL     1       1.466  -2.818   1.073  0.00  0.00    +0.172 A 
ATOM      6  N   UNL     1       1.454  -1.976  -0.017  0.00  0.00    -0.301 N 
BRANCH   5   7
ATOM      7  C   UNL     1       1.475  -2.417   2.489  0.00  0.00    +0.056 A 
ATOM      8  C   UNL     1       1.205  -3.172   3.603  0.00  0.00    +0.019 A 
ATOM      9  C   UNL     1       1.282  -2.573   4.840  0.00  0.00    +0.008 A 
ATOM     10  C   UNL     1       1.610  -1.258   4.921  0.00  0.00    +0.046 A 
ATOM     11  S   UNL     1       1.833  -0.821   3.204  0.00  0.00    -0.094 S 
ENDBRANCH   5   7
BRANCH   6  12
ATOM     12  C   UNL     1       1.449  -0.511  -0.004  0.00  0.00    +0.137 C 
BRANCH  12  13
ATOM     13  C   UNL     1       0.004  -0.007   0.004  0.00  0.00    +0.147 C 
BRANCH  13  14
ATOM     14  C   UNL     1      -0.002   1.500   0.017  0.00  0.00    +0.358 C 
ATOM     15  O   UNL     1       1.042   2.108   0.021  0.00  0.00    -0.246 OA
ATOM     16  O   UNL     1      -1.167   2.167   0.021  0.00  0.00    -0.246 OA
ENDBRANCH  13  14
ENDBRANCH  12  13
ENDBRANCH   6  12
ENDBRANCH   1   2
BRANCH   1  18
ATOM     17  C   UNL     1       0.151  -4.629  -3.304  0.00  0.00    +0.029 C 
ATOM     18  C   UNL     1       1.455  -3.892  -3.619  0.00  0.00    +0.137 C 
BRANCH  18  19
ATOM     19  C   UNL     1       1.575  -3.698  -5.109  0.00  0.00    +0.230 C 
ATOM     20  O   UNL     1       1.290  -2.629  -5.606  0.00  0.00    -0.274 OA
ATOM     21  N   UNL     1       1.999  -4.712  -5.889  0.00  0.00    -0.283 N 
ATOM     22  H   UNL     1       2.303  -5.540  -5.485  0.00  0.00    +0.155 HD
BRANCH  21  23
ATOM     23  C   UNL     1       2.000  -4.571  -7.281  0.00  0.00    +0.064 A 
ATOM     24  C   UNL     1       1.129  -3.678  -7.891  0.00  0.00    +0.025 A 
ATOM     25  C   UNL     1       1.135  -3.537  -9.264  0.00  0.00    +0.002 A 
ATOM     26  C   UNL     1       2.002  -4.292 -10.034  0.00  0.00    +0.002 A 
ATOM     27  C   UNL     1       2.867  -5.186  -9.430  0.00  0.00    +0.034 A 
ATOM     28  C   UNL     1       2.869  -5.327  -8.056  0.00  0.00    +0.147 A 
BRANCH  28  29
ATOM     29  N   UNL     1       3.795  -6.285  -7.411  0.00  0.00    +0.058 N 
ATOM     30  O   UNL     1       4.618  -6.882  -8.082  0.00  0.00    -0.126 OA
ATOM     31  O   UNL     1       3.734  -6.476  -6.210  0.00  0.00    -0.126 OA
ENDBRANCH  28  29
ENDBRANCH  21  23
ENDBRANCH  18  19
ENDBRANCH   1  18
TORSDOF 9
