REMARK  Name = ZINC46680530
REMARK  12 active torsions:
REMARK  status: ('A' for Active; 'I' for Inactive)
REMARK    1  A    between atoms: C_1  and  C_2
REMARK    2  A    between atoms: C_2  and  O_3
REMARK    3  A    between atoms: O_3  and  C_4
REMARK    4  A    between atoms: N_6  and  C_7
REMARK    5  A    between atoms: C_7  and  C_9
REMARK    6  A    between atoms: C_7  and  C_12
REMARK    7  A    between atoms: C_9  and  C_10
REMARK    8  A    between atoms: C_9  and  C_11
REMARK    9  A    between atoms: N_17  and  S_20
REMARK   10  A    between atoms: S_20  and  N_23
REMARK   11  A    between atoms: N_23  and  C_24
REMARK   12  A    between atoms: N_23  and  C_25
REMARK                            x       y       z     vdW  Elec       q    Type
REMARK                         _______ _______ _______ _____ _____    ______ ____
ROOT
ATOM      1  C   UNL     1       2.644  -4.068  -3.551  0.00  0.00    +0.236 C 
ATOM      2  O   UNL     1       3.347  -3.170  -3.963  0.00  0.00    -0.274 OA
ATOM      3  N   UNL     1       2.870  -5.336  -3.948  0.00  0.00    -0.297 N 
ATOM      4  C   UNL     1       1.953  -6.417  -3.558  0.00  0.00    +0.125 C 
ATOM      5  C   UNL     1       1.466  -7.129  -4.826  0.00  0.00    +0.129 C 
ATOM      6  N   UNL     1       2.633  -7.456  -5.657  0.00  0.00    -0.163 NA
ATOM      7  C   UNL     1       3.550  -6.376  -6.048  0.00  0.00    +0.129 C 
ATOM      8  C   UNL     1       4.033  -5.663  -4.785  0.00  0.00    +0.125 C 
ENDROOT
BRANCH   6   9
ATOM      9  S   UNL     1       2.910  -9.014  -6.145  0.00  0.00    +0.100 S 
ATOM     10  O   UNL     1       4.302  -9.115  -6.412  0.00  0.00    -0.141 OA
ATOM     11  O   UNL     1       2.252  -9.856  -5.209  0.00  0.00    -0.141 OA
BRANCH   9  12
ATOM     12  N   UNL     1       2.134  -9.219  -7.594  0.00  0.00    -0.166 NA
ATOM     13  C   UNL     1       2.835  -8.932  -8.847  0.00  0.00    +0.133 C 
BRANCH  12  14
ATOM     14  C   UNL     1       0.746  -9.688  -7.621  0.00  0.00    +0.081 C 
ATOM     15  C   UNL     1       0.667 -11.003  -8.398  0.00  0.00    +0.020 C 
ATOM     16  C   UNL     1      -0.782 -11.492  -8.427  0.00  0.00    +0.002 C 
ATOM     17  C   UNL     1      -1.661 -10.443  -9.110  0.00  0.00    +0.000 C 
ATOM     18  C   UNL     1      -1.582  -9.127  -8.333  0.00  0.00    +0.002 C 
ATOM     19  C   UNL     1      -0.133  -8.638  -8.304  0.00  0.00    +0.020 C 
ENDBRANCH  12  14
ENDBRANCH   9  12
ENDBRANCH   6   9
BRANCH   1  20
ATOM     20  C   UNL     1       1.519  -3.767  -2.595  0.00  0.00    +0.165 C 
BRANCH  20  23
ATOM     21  C   UNL     1       1.241  -2.258  -0.702  0.00  0.00    +0.401 C 
ATOM     22  O   UNL     1       0.528  -3.092  -0.180  0.00  0.00    -0.226 OA
ATOM     23  N   UNL     1       1.786  -2.499  -1.911  0.00  0.00    -0.270 N 
ATOM     24  H   UNL     1       2.355  -1.833  -2.328  0.00  0.00    +0.153 HD
BRANCH  21  25
ATOM     25  O   UNL     1       1.486  -1.093  -0.073  0.00  0.00    -0.451 OA
BRANCH  25  27
ATOM     26  C   UNL     1       1.267   0.466   1.760  0.00  0.00    +0.048 C 
ATOM     27  C   UNL     1       0.876  -0.905   1.205  0.00  0.00    +0.230 C 
ENDBRANCH  25  27
ENDBRANCH  21  25
ENDBRANCH  20  23
BRANCH  20  28
ATOM     28  C   UNL     1       0.205  -3.660  -3.372  0.00  0.00    +0.012 C 
ATOM     29  C   UNL     1      -0.955  -3.489  -2.389  0.00  0.00    +0.009 C 
ATOM     30  C   UNL     1       0.263  -2.453  -4.309  0.00  0.00    +0.009 C 
ENDBRANCH  20  28
ENDBRANCH   1  20
TORSDOF 8
