REMARK  Name = ZINC14019656
REMARK  9 active torsions:
REMARK  status: ('A' for Active; 'I' for Inactive)
REMARK    1  A    between atoms: C_1  and  C_2
REMARK    2  A    between atoms: N_4  and  C_5
REMARK    3  A    between atoms: C_5  and  C_16
REMARK    4  A    between atoms: C_6  and  C_7
REMARK    5  A    between atoms: C_11  and  N_13
REMARK    6  A    between atoms: C_24  and  C_26
REMARK    7  A    between atoms: C_26  and  C_27
REMARK    8  A    between atoms: C_27  and  O_29
REMARK    9  A    between atoms: O_29  and  C_30
REMARK                            x       y       z     vdW  Elec       q    Type
REMARK                         _______ _______ _______ _____ _____    ______ ____
ROOT
ATOM      1  C   UNL     1       1.396   4.160   0.542  0.00  0.00    +0.261 C 
ATOM      2  O   UNL     1       0.510   4.954   0.797  0.00  0.00    -0.269 OA
ATOM      3  N   UNL     1       1.091   2.952   0.028  0.00  0.00    -0.283 N 
ATOM      4  C   UNL     1       2.143   2.002  -0.371  0.00  0.00    +0.127 C 
ATOM      5  C   UNL     1       1.994   0.739   0.480  0.00  0.00    +0.123 C 
ATOM      6  N   UNL     1       0.604   0.307   0.523  0.00  0.00    -0.312 N 
ATOM      7  C   UNL     1      -0.443   1.096   0.279  0.00  0.00    +0.234 C 
ATOM      8  O   UNL     1      -1.557   0.639   0.418  0.00  0.00    -0.274 OA
ATOM      9  C   UNL     1      -0.305   2.529  -0.157  0.00  0.00    +0.173 C 
ATOM     10  H   UNL     1       0.427  -0.622   0.742  0.00  0.00    +0.149 HD
ENDROOT
BRANCH   1  11
ATOM     11  C   UNL     1       2.800   4.519   0.795  0.00  0.00    +0.097 C 
ATOM     12  C   UNL     1       3.442   4.016   1.874  0.00  0.00    +0.036 C 
BRANCH  12  13
ATOM     13  C   UNL     1       2.702   3.222   2.867  0.00  0.00    -0.021 A 
ATOM     14  C   UNL     1       3.322   2.147   3.511  0.00  0.00    +0.008 A 
ATOM     15  C   UNL     1       2.622   1.408   4.441  0.00  0.00    +0.003 A 
ATOM     16  C   UNL     1       1.309   1.729   4.739  0.00  0.00    +0.033 A 
ATOM     17  C   UNL     1       0.688   2.791   4.106  0.00  0.00    +0.127 A 
ATOM     18  C   UNL     1       1.377   3.543   3.177  0.00  0.00    +0.040 A 
BRANCH  17  19
ATOM     19  N   UNL     1      -0.717   3.125   4.430  0.00  0.00    +0.056 N 
ATOM     20  O   UNL     1      -1.325   2.465   5.254  0.00  0.00    -0.126 OA
ATOM     21  O   UNL     1      -1.265   4.060   3.874  0.00  0.00    -0.126 OA
ENDBRANCH  17  19
ENDBRANCH  12  13
BRANCH  11  25
ATOM     22  C   UNL     1       3.547   6.793  -2.108  0.00  0.00    +0.109 C 
ATOM     23  C   UNL     1       2.802   5.962  -1.096  0.00  0.00    +0.214 C 
ATOM     24  O   UNL     1       1.602   5.816  -1.195  0.00  0.00    -0.276 OA
ATOM     25  N   UNL     1       3.470   5.380  -0.080  0.00  0.00    -0.282 N 
ATOM     26  H   UNL     1       4.415   5.558   0.044  0.00  0.00    +0.155 HD
ENDBRANCH  11  25
ENDBRANCH   1  11
BRANCH   9  27
ATOM     27  C   UNL     1      -0.685   2.650  -1.634  0.00  0.00    +0.152 C 
BRANCH  27  28
ATOM     28  C   UNL     1      -0.695   4.103  -2.033  0.00  0.00    +0.310 C 
ATOM     29  O   UNL     1      -0.566   4.961  -1.193  0.00  0.00    -0.251 OA
BRANCH  28  30
ATOM     30  O   UNL     1      -0.846   4.443  -3.323  0.00  0.00    -0.461 OA
BRANCH  30  31
ATOM     31  C   UNL     1      -0.846   5.862  -3.634  0.00  0.00    +0.176 C 
ATOM     32  C   UNL     1      -2.277   6.399  -3.565  0.00  0.00    +0.044 C 
ATOM     33  C   UNL     1      -2.276   7.894  -3.894  0.00  0.00    +0.004 C 
ATOM     34  C   UNL     1      -1.719   8.106  -5.303  0.00  0.00    +0.000 C 
ATOM     35  C   UNL     1      -0.288   7.568  -5.372  0.00  0.00    +0.004 C 
ATOM     36  C   UNL     1      -0.289   6.074  -5.043  0.00  0.00    +0.044 C 
ENDBRANCH  30  31
ENDBRANCH  28  30
ENDBRANCH  27  28
ENDBRANCH   9  27
TORSDOF 8
