REMARK  Name = ZINC39757395
REMARK  16 active torsions:
REMARK  status: ('A' for Active; 'I' for Inactive)
REMARK    1  A    between atoms: C_1  and  C_2
REMARK    2  A    between atoms: C_4  and  C_37
REMARK    3  A    between atoms: C_5  and  N_9
REMARK    4  A    between atoms: C_6  and  C_8
REMARK    5  A    between atoms: C_10  and  C_12
REMARK    6  A    between atoms: C_12  and  S_13
REMARK    7  A    between atoms: S_13  and  C_14
REMARK    8  A    between atoms: C_17  and  CA_23
REMARK    9  A    between atoms: N_18  and  C_19
REMARK   10  A    between atoms: C_19  and  C_20
REMARK   11  A    between atoms: C_20  and  C_21
REMARK   12  A    between atoms: C_20  and  C_22
REMARK   13  A    between atoms: CA_23  and  C_25
REMARK   14  A    between atoms: CA_23  and  N_27
REMARK   15  A    between atoms: C_25  and  O_26
REMARK   16  A    between atoms: C_28  and  C_30
REMARK                            x       y       z     vdW  Elec       q    Type
REMARK                         _______ _______ _______ _____ _____    ______ ____
ROOT
ATOM      1  C   UNL     1      -0.738  -8.847   2.096  0.00  0.00    +0.192 A 
ATOM      2  N   UNL     1      -0.986  -9.412   0.937  0.00  0.00    -0.122 NA
ATOM      3  N   UNL     1      -1.172 -10.673   1.097  0.00  0.00    -0.131 NA
ATOM      4  C   UNL     1      -1.054 -10.986   2.357  0.00  0.00    +0.157 A 
ATOM      5  N   UNL     1      -0.767  -9.836   3.037  0.00  0.00    -0.304 N 
ENDROOT
BRANCH   1   6
ATOM      6  S   UNL     1      -0.418  -7.138   2.382  0.00  0.00    -0.077 S 
BRANCH   6   7
ATOM      7  C   UNL     1      -0.526  -6.390   0.733  0.00  0.00    +0.173 C 
BRANCH   7   9
ATOM      8  N   UNL     1      -0.299  -4.141  -0.272  0.00  0.00    -0.284 N 
ATOM      9  C   UNL     1      -0.270  -4.908   0.836  0.00  0.00    +0.228 C 
ATOM     10  O   UNL     1      -0.036  -4.407   1.915  0.00  0.00    -0.275 OA
ATOM     11  H   UNL     1      -0.421  -4.551  -1.143  0.00  0.00    +0.155 HD
BRANCH   8  16
ATOM     12  C   UNL     1       0.286   1.486   0.157  0.00  0.00    +0.044 C 
ATOM     13  C   UNL     1       0.130  -0.009   0.043  0.00  0.00    -0.050 A 
ATOM     14  C   UNL     1       1.121  -0.844   0.526  0.00  0.00    +0.008 A 
ATOM     15  C   UNL     1       0.982  -2.215   0.423  0.00  0.00    -0.029 A 
ATOM     16  C   UNL     1      -0.155  -2.753  -0.166  0.00  0.00    +0.039 A 
ATOM     17  C   UNL     1      -1.148  -1.911  -0.649  0.00  0.00    -0.029 A 
ATOM     18  C   UNL     1      -1.005  -0.542  -0.539  0.00  0.00    +0.008 A 
ATOM     19  C   UNL     1      -2.383  -2.491  -1.289  0.00  0.00    +0.045 C 
ATOM     20  C   UNL     1       2.062  -3.124   0.949  0.00  0.00    +0.045 C 
ENDBRANCH   8  16
ENDBRANCH   7   9
ENDBRANCH   6   7
ENDBRANCH   1   6
BRANCH   5  21
ATOM     21  C   UNL     1      -0.542  -9.693   4.478  0.00  0.00    +0.128 C 
BRANCH  21  22
ATOM     22  C   UNL     1      -1.874  -9.413   5.177  0.00  0.00    +0.003 C 
ATOM     23  C   UNL     1      -1.659  -9.387   6.692  0.00  0.00    +0.009 C 
ATOM     24  C   UNL     1      -2.417  -8.059   4.716  0.00  0.00    +0.009 C 
ENDBRANCH  21  22
ENDBRANCH   5  21
BRANCH   4  25
ATOM     25  CA  UNL     1      -1.201 -12.363   2.952  0.00  0.00    +0.167 C 
BRANCH  25  26
ATOM     26  N   UNL     1      -0.472 -13.331   2.128  0.00  0.00    -0.299 N 
ATOM     27  C   UNL     1      -0.027 -14.480   2.675  0.00  0.00    +0.245 C 
ATOM     28  O   UNL     1      -0.230 -14.713   3.850  0.00  0.00    -0.270 OA
ATOM     29  H   UNL     1      -0.310 -13.145   1.190  0.00  0.00    +0.150 HD
BRANCH  27  30
ATOM     30  C   UNL     1       0.708 -15.457   1.844  0.00  0.00    +0.037 A 
ATOM     31  C   UNL     1       0.948 -15.189   0.495  0.00  0.00    +0.014 A 
ATOM     32  C   UNL     1       1.635 -16.104  -0.275  0.00  0.00    +0.021 A 
ATOM     33  C   UNL     1       2.087 -17.287   0.287  0.00  0.00    +0.041 A 
ATOM     34  C   UNL     1       1.852 -17.558   1.625  0.00  0.00    +0.021 A 
ATOM     35  C   UNL     1       1.171 -16.648   2.407  0.00  0.00    +0.014 A 
ATOM     36 CL   UNL     1       2.950 -18.434  -0.689  0.00  0.00    -0.084 Cl
ENDBRANCH  27  30
ENDBRANCH  25  26
BRANCH  25  37
ATOM     37  C   UNL     1      -2.682 -12.745   2.997  0.00  0.00    +0.186 C 
BRANCH  37  38
ATOM     38  O   UNL     1      -3.244 -12.627   1.688  0.00  0.00    -0.393 OA
ATOM     39  H   UNL     1      -4.183 -12.854   1.642  0.00  0.00    +0.209 HD
ENDBRANCH  37  38
ENDBRANCH  25  37
ENDBRANCH   4  25
TORSDOF 11
