REMARK  Name = ZINC45898090
REMARK  11 active torsions:
REMARK  status: ('A' for Active; 'I' for Inactive)
REMARK    1  A    between atoms: C_1  and  C_2
REMARK    2  A    between atoms: C_2  and  C_3
REMARK    3  A    between atoms: C_3  and  C_4
REMARK    4  A    between atoms: C_4  and  N_5
REMARK    5  A    between atoms: C_6  and  C_29
REMARK    6  A    between atoms: C_7  and  C_28
REMARK    7  A    between atoms: C_9  and  S_10
REMARK    8  A    between atoms: S_10  and  C_11
REMARK    9  A    between atoms: C_11  and  C_12
REMARK   10  A    between atoms: N_14  and  N_15
REMARK   11  A    between atoms: C_21  and  C_24
REMARK                            x       y       z     vdW  Elec       q    Type
REMARK                         _______ _______ _______ _____ _____    ______ ____
ROOT
ATOM      1  C   UNL     1       6.653  -2.933  -1.147  0.00  0.00    +0.240 C 
ATOM      2  O   UNL     1       6.435  -2.557  -0.015  0.00  0.00    -0.273 OA
ATOM      3  N   UNL     1       7.909  -3.247  -1.523  0.00  0.00    -0.223 N 
ATOM      4  H   UNL     1       8.083  -3.547  -2.429  0.00  0.00    +0.174 HD
ENDROOT
BRANCH   3   5
ATOM      5  N   UNL     1       8.962  -3.138  -0.606  0.00  0.00    -0.137 N 
ATOM      6  C   UNL     1       9.877  -2.147  -0.616  0.00  0.00    +0.263 C 
ATOM      7  O   UNL     1       9.942  -1.216  -1.391  0.00  0.00    -0.271 OA
ATOM      8  C   UNL     1      10.803  -2.440   0.541  0.00  0.00    +0.114 C 
ATOM      9  C   UNL     1      10.764  -1.303   1.556  0.00  0.00    +0.035 C 
ATOM     10  C   UNL     1      11.684  -1.634   2.733  0.00  0.00    +0.006 C 
ATOM     11  C   UNL     1      13.112  -1.834   2.222  0.00  0.00    -0.014 C 
ATOM     12  C   UNL     1      13.140  -2.993   1.223  0.00  0.00    +0.006 C 
ATOM     13  C   UNL     1      12.225  -2.667   0.040  0.00  0.00    +0.035 C 
ATOM     14  C   UNL     1      14.036  -2.153   3.399  0.00  0.00    +0.007 C 
ATOM     15  N   UNL     1      10.261  -3.673   1.128  0.00  0.00    -0.284 N 
ATOM     16  C   UNL     1       9.182  -4.002   0.392  0.00  0.00    +0.326 C 
ATOM     17  O   UNL     1       8.489  -4.976   0.609  0.00  0.00    -0.251 OA
ATOM     18  H   UNL     1      10.610  -4.152   1.895  0.00  0.00    +0.151 HD
ENDBRANCH   3   5
BRANCH   1  19
ATOM     19  C   UNL     1       5.520  -3.050  -2.134  0.00  0.00    +0.174 C 
BRANCH  19  20
ATOM     20  S   UNL     1       3.967  -2.562  -1.333  0.00  0.00    -0.080 S 
BRANCH  20  25
ATOM     21  N   UNL     1       1.425  -2.500  -2.470  0.00  0.00    -0.324 N 
ATOM     22  C   UNL     1       0.845  -2.769  -3.690  0.00  0.00    +0.037 A 
ATOM     23  C   UNL     1       1.829  -3.175  -4.510  0.00  0.00    +0.034 A 
ATOM     24  N   UNL     1       2.985  -3.160  -3.825  0.00  0.00    -0.338 N 
ATOM     25  C   UNL     1       2.756  -2.751  -2.599  0.00  0.00    +0.148 A 
ATOM     26  C   UNL     1       1.664  -3.580  -5.953  0.00  0.00    +0.065 C 
ATOM     27  C   UNL     1      -0.615  -2.634  -4.039  0.00  0.00    +0.065 C 
ATOM     28  H   UNL     1       3.852  -3.409  -4.181  0.00  0.00    +0.168 HD
BRANCH  21  29
ATOM     29  C   UNL     1       0.739  -2.027  -1.265  0.00  0.00    +0.124 C 
BRANCH  29  30
ATOM     30  C   UNL     1       0.718  -0.497  -1.257  0.00  0.00    +0.021 C 
BRANCH  30  32
ATOM     31  C   UNL     1      -0.019   1.526   0.010  0.00  0.00    +0.004 C 
ATOM     32  C   UNL     1       0.002  -0.004   0.002  0.00  0.00    -0.002 C 
ENDBRANCH  30  32
ENDBRANCH  29  30
ENDBRANCH  21  29
ENDBRANCH  20  25
ENDBRANCH  19  20
ENDBRANCH   1  19
TORSDOF 7
