REMARK  Name = ZINC32578726
REMARK  7 active torsions:
REMARK  status: ('A' for Active; 'I' for Inactive)
REMARK    1  A    between atoms: C_1  and  C_2
REMARK    2  A    between atoms: C_2  and  C_3
REMARK    3  A    between atoms: C_2  and  C_4
REMARK    4  A    between atoms: C_2  and  C_5
REMARK    5  A    between atoms: C_11  and  N_13
REMARK    6  A    between atoms: N_13  and  S_14
REMARK    7  A    between atoms: S_14  and  C_17
REMARK                            x       y       z     vdW  Elec       q    Type
REMARK                         _______ _______ _______ _____ _____    ______ ____
ROOT
ATOM      1  N   UNL     1      -1.380  -0.610   0.566  0.00  0.00    -0.187 NA
ATOM      2  H   UNL     1      -2.000  -0.926   1.418  0.00  0.00    +0.148 HD
ENDROOT
BRANCH   1   8
ATOM      3  C   UNL     1       0.513  -1.390   1.904  0.00  0.00    +0.013 C 
ATOM      4  C   UNL     1       2.034  -1.323   2.049  0.00  0.00    +0.005 C 
ATOM      5  C   UNL     1       2.463   0.130   2.265  0.00  0.00    +0.000 C 
ATOM      6  C   UNL     1       2.027   0.974   1.066  0.00  0.00    +0.002 C 
ATOM      7  C   UNL     1       0.505   0.907   0.921  0.00  0.00    +0.020 C 
ATOM      8  C   UNL     1       0.077  -0.546   0.705  0.00  0.00    +0.080 C 
BRANCH   3  10
ATOM      9  C   UNL     1       0.641  -3.345   0.353  0.00  0.00    +0.011 C 
ATOM     10  C   UNL     1       0.085  -2.843   1.687  0.00  0.00    -0.033 C 
ATOM     11  C   UNL     1       0.627  -3.710   2.825  0.00  0.00    +0.011 C 
ATOM     12  C   UNL     1      -1.443  -2.927   1.666  0.00  0.00    +0.011 C 
ENDBRANCH   3  10
ENDBRANCH   1   8
BRANCH   1  13
ATOM     13  S   UNL     1      -2.078  -0.449  -0.927  0.00  0.00    +0.061 S 
ATOM     14  O   UNL     1      -3.465  -0.704  -0.757  0.00  0.00    -0.153 OA
ATOM     15  O   UNL     1      -1.588   0.767  -1.476  0.00  0.00    -0.153 OA
BRANCH  13  16
ATOM     16  C   UNL     1      -1.448  -1.748  -1.939  0.00  0.00    +0.136 A 
ATOM     17  C   UNL     1      -2.254  -2.769  -2.321  0.00  0.00    +0.031 A 
ATOM     18  C   UNL     1      -1.791  -3.815  -3.129  0.00  0.00    +0.004 A 
ATOM     19  C   UNL     1      -0.509  -3.872  -3.565  0.00  0.00    +0.033 A 
ATOM     20  C   UNL     1       0.390  -2.849  -3.204  0.00  0.00    +0.136 A 
ATOM     21  C   UNL     1      -0.102  -1.737  -2.353  0.00  0.00    +0.160 A 
ATOM     22  N   UNL     1       0.963  -0.986  -2.214  0.00  0.00    -0.047 NA
ATOM     23  O   UNL     1       1.887  -1.491  -2.819  0.00  0.00    -0.242 OA
ATOM     24  N   UNL     1       1.646  -2.532  -3.397  0.00  0.00    -0.049 NA
ENDBRANCH  13  16
ENDBRANCH   1  13
TORSDOF 4
