REMARK  Name = ZINC32492600
REMARK  13 active torsions:
REMARK  status: ('A' for Active; 'I' for Inactive)
REMARK    1  A    between atoms: C_1  and  C_2
REMARK    2  A    between atoms: C_2  and  C_3
REMARK    3  A    between atoms: C_2  and  C_4
REMARK    4  A    between atoms: C_4  and  N_5
REMARK    5  A    between atoms: C_6  and  N_36
REMARK    6  A    between atoms: C_7  and  N_14
REMARK    7  A    between atoms: N_14  and  C_15
REMARK    8  A    between atoms: C_15  and  C_16
REMARK    9  A    between atoms: C_16  and  C_17
REMARK   10  A    between atoms: C_16  and  C_18
REMARK   11  A    between atoms: C_19  and  C_21
REMARK   12  A    between atoms: C_21  and  C_22
REMARK   13  A    between atoms: C_28  and  C_30
REMARK                            x       y       z     vdW  Elec       q    Type
REMARK                         _______ _______ _______ _____ _____    ______ ____
ROOT
ATOM      1  N   UNL     1       1.664   2.213   0.186  0.00  0.00    -0.264 N 
ATOM      2  C   UNL     1       0.365   1.933   0.422  0.00  0.00    +0.226 C 
ATOM      3  O   UNL     1      -0.376   2.797   0.842  0.00  0.00    -0.275 OA
ENDROOT
BRANCH   1   6
ATOM      4  N   UNL     1       2.108   5.833  -0.259  0.00  0.00    -0.280 N 
ATOM      5  C   UNL     1       1.628   4.556  -0.433  0.00  0.00    +0.127 A 
ATOM      6  C   UNL     1       2.139   3.533   0.338  0.00  0.00    +0.140 A 
ATOM      7  C   UNL     1       3.148   3.827   1.274  0.00  0.00    +0.277 A 
ATOM      8  O   UNL     1       3.622   2.941   1.965  0.00  0.00    -0.266 OA
ATOM      9  N   UNL     1       3.587   5.094   1.402  0.00  0.00    -0.273 N 
ATOM     10  H   UNL     1       4.375   5.332   2.132  0.00  0.00    +0.173 HD
ATOM     11  C   UNL     1       3.073   6.080   0.645  0.00  0.00    +0.331 A 
ATOM     12  O   UNL     1       3.488   7.215   0.781  0.00  0.00    -0.246 OA
BRANCH   5  13
ATOM     13  N   UNL     1       0.646   4.303  -1.361  0.00  0.00    -0.343 N 
ATOM     14  H   UNL     1       0.267   3.279  -1.496  0.00  0.00    +0.144 HD
ATOM     15  H   UNL     1       0.239   5.124  -1.970  0.00  0.00    +0.144 HD
ENDBRANCH   5  13
BRANCH   4  16
ATOM     16  C   UNL     1       1.569   6.930  -1.066  0.00  0.00    +0.131 C 
BRANCH  16  18
ATOM     17  C   UNL     1       1.749   8.126  -3.252  0.00  0.00    +0.009 C 
ATOM     18  C   UNL     1       2.386   7.065  -2.353  0.00  0.00    +0.003 C 
ATOM     19  C   UNL     1       3.817   7.482  -2.007  0.00  0.00    +0.009 C 
ENDBRANCH  16  18
ENDBRANCH   4  16
ENDBRANCH   1   6
BRANCH   1  20
ATOM     20  C   UNL     1       2.580   1.147  -0.226  0.00  0.00    +0.117 C 
BRANCH  20  21
ATOM     21  C   UNL     1       2.514   0.977  -1.746  0.00  0.00    +0.001 C 
ATOM     22  C   UNL     1       3.059   2.235  -2.424  0.00  0.00    +0.009 C 
ATOM     23  C   UNL     1       3.355  -0.232  -2.161  0.00  0.00    +0.009 C 
ENDBRANCH  20  21
ENDBRANCH   1  20
BRANCH   2  24
ATOM     24  C   UNL     1      -0.167   0.548   0.157  0.00  0.00    +0.150 C 
BRANCH  24  25
ATOM     25  C   UNL     1      -1.634   0.499   0.499  0.00  0.00    +0.041 A 
ATOM     26  C   UNL     1      -2.533   0.888  -0.404  0.00  0.00    +0.070 A 
ATOM     27  S   UNL     1      -4.069   0.640   0.473  0.00  0.00    -0.057 S 
ATOM     28  C   UNL     1      -3.375   0.037   1.996  0.00  0.00    +0.178 A 
ATOM     29  N   UNL     1      -2.028   0.059   1.743  0.00  0.00    -0.296 N 
ATOM     30  C   UNL     1      -1.435  -0.407   2.912  0.00  0.00    +0.121 A 
ATOM     31  C   UNL     1      -2.427  -0.681   3.793  0.00  0.00    +0.090 A 
ATOM     32  N   UNL     1      -3.605  -0.397   3.200  0.00  0.00    -0.221 NA
BRANCH  31  33
ATOM     33  C   UNL     1      -2.249  -1.201   5.171  0.00  0.00    +0.002 A 
ATOM     34  C   UNL     1      -0.970  -1.458   5.662  0.00  0.00    +0.010 A 
ATOM     35  C   UNL     1      -0.809  -1.937   6.946  0.00  0.00    +0.001 A 
ATOM     36  C   UNL     1      -1.916  -2.173   7.742  0.00  0.00    +0.000 A 
ATOM     37  C   UNL     1      -3.188  -1.925   7.258  0.00  0.00    +0.001 A 
ATOM     38  C   UNL     1      -3.360  -1.441   5.978  0.00  0.00    +0.010 A 
ENDBRANCH  31  33
ENDBRANCH  24  25
ENDBRANCH   2  24
TORSDOF 9
