REMARK  Name = ZINC16910936
REMARK  9 active torsions:
REMARK  status: ('A' for Active; 'I' for Inactive)
REMARK    1  A    between atoms: C_1  and  C_2
REMARK    2  A    between atoms: C_2  and  C_3
REMARK    3  A    between atoms: C_3  and  C_5
REMARK    4  A    between atoms: C_3  and  O_7
REMARK    5  A    between atoms: O_7  and  C_8
REMARK    6  A    between atoms: C_13  and  C_14
REMARK    7  A    between atoms: N_18  and  N_22
REMARK    8  A    between atoms: C_23  and  C_25
REMARK    9  A    between atoms: C_28  and  N_31
REMARK                            x       y       z     vdW  Elec       q    Type
REMARK                         _______ _______ _______ _____ _____    ______ ____
ROOT
ATOM      1  C   UNL     1       2.433   3.230  -0.015  0.00  0.00    +0.032 C 
ATOM      2  C   UNL     1       1.757   2.062   0.138  0.00  0.00    +0.079 C 
ATOM      3  C   UNL     1       2.260   0.725   0.510  0.00  0.00    +0.275 C 
ATOM      4  O   UNL     1       3.439   0.526   0.737  0.00  0.00    -0.267 OA
ATOM      5  N   UNL     1       1.364  -0.245   0.585  0.00  0.00    -0.169 N 
ATOM      6  C   UNL     1       0.059  -0.020   0.333  0.00  0.00    +0.138 C 
ATOM      7  S   UNL     1      -1.240  -1.135   0.377  0.00  0.00    -0.026 S 
ATOM      8  S   UNL     1       0.013   1.721  -0.058  0.00  0.00    -0.059 S 
ENDROOT
BRANCH   1  14
ATOM      9  C   UNL     1       4.583   4.236   0.737  0.00  0.00    +0.129 A 
ATOM     10  C   UNL     1       5.968   4.234   0.765  0.00  0.00    +0.046 A 
ATOM     11  C   UNL     1       6.673   3.253   0.094  0.00  0.00    +0.004 A 
ATOM     12  C   UNL     1       6.005   2.267  -0.613  0.00  0.00    +0.001 A 
ATOM     13  C   UNL     1       4.628   2.249  -0.649  0.00  0.00    +0.011 A 
ATOM     14  C   UNL     1       3.900   3.239   0.023  0.00  0.00    +0.018 A 
BRANCH   9  15
ATOM     15  O   UNL     1       3.889   5.198   1.397  0.00  0.00    -0.477 OA
BRANCH  15  16
ATOM     16  C   UNL     1       4.649   6.245   2.005  0.00  0.00    +0.285 C 
BRANCH  16  17
ATOM     17  C   UNL     1       3.922   7.554   1.840  0.00  0.00    +0.396 C 
ATOM     18  O   UNL     1       2.821   7.576   1.343  0.00  0.00    -0.242 OA
ATOM     19  O   UNL     1       4.497   8.697   2.245  0.00  0.00    -0.242 OA
ENDBRANCH  16  17
BRANCH  16  21
ATOM     20  C   UNL     1       5.676   4.682   3.661  0.00  0.00    +0.008 C 
ATOM     21  C   UNL     1       4.830   5.946   3.494  0.00  0.00    +0.053 C 
ENDBRANCH  16  21
ENDBRANCH  15  16
ENDBRANCH   9  15
ENDBRANCH   1  14
BRANCH   5  22
ATOM     22  N   UNL     1       1.782  -1.536   0.934  0.00  0.00    -0.222 N 
ATOM     23  C   UNL     1       1.866  -2.495  -0.009  0.00  0.00    +0.261 C 
ATOM     24  O   UNL     1       1.580  -2.240  -1.163  0.00  0.00    -0.269 OA
ATOM     25  H   UNL     1       2.010  -1.740   1.855  0.00  0.00    +0.174 HD
BRANCH  23  26
ATOM     26  C   UNL     1       2.307  -3.858   0.359  0.00  0.00    +0.038 A 
ATOM     27  C   UNL     1       2.641  -4.152   1.682  0.00  0.00    +0.015 A 
ATOM     28  C   UNL     1       3.047  -5.427   2.020  0.00  0.00    +0.033 A 
ATOM     29  C   UNL     1       3.133  -6.409   1.049  0.00  0.00    +0.126 A 
ATOM     30  C   UNL     1       2.807  -6.122  -0.265  0.00  0.00    +0.033 A 
ATOM     31  C   UNL     1       2.395  -4.853  -0.615  0.00  0.00    +0.015 A 
BRANCH  29  32
ATOM     32  N   UNL     1       3.575  -7.773   1.418  0.00  0.00    +0.056 N 
ATOM     33  O   UNL     1       3.651  -8.640   0.565  0.00  0.00    -0.126 OA
ATOM     34  O   UNL     1       3.862  -8.028   2.574  0.00  0.00    -0.126 OA
ENDBRANCH  29  32
ENDBRANCH  23  26
ENDBRANCH   5  22
TORSDOF 8
