REMARK  Name = ZINC02199768
REMARK  11 active torsions:
REMARK  status: ('A' for Active; 'I' for Inactive)
REMARK    1  A    between atoms: C_1  and  C_2
REMARK    2  A    between atoms: C_2  and  C_33
REMARK    3  A    between atoms: N_5  and  C_9
REMARK    4  A    between atoms: C_9  and  C_10
REMARK    5  A    between atoms: C_10  and  C_12
REMARK    6  A    between atoms: C_10  and  O_32
REMARK    7  A    between atoms: C_12  and  N_13
REMARK    8  A    between atoms: N_13  and  C_14
REMARK    9  A    between atoms: N_13  and  S_20
REMARK   10  A    between atoms: S_20  and  C_23
REMARK   11  A    between atoms: C_28  and  N_29
REMARK                            x       y       z     vdW  Elec       q    Type
REMARK                         _______ _______ _______ _____ _____    ______ ____
ROOT
ATOM      1  N   UNL     1      -3.529  -5.337   1.239  0.00  0.00    -0.200 N 
ENDROOT
BRANCH   1   2
ATOM      2  C   UNL     1      -3.112  -6.368   2.083  0.00  0.00    +0.051 A 
ATOM      3  C   UNL     1      -2.237  -6.101   3.129  0.00  0.00    +0.025 A 
ATOM      4  C   UNL     1      -1.827  -7.123   3.962  0.00  0.00    +0.002 A 
ATOM      5  C   UNL     1      -2.285  -8.411   3.756  0.00  0.00    +0.000 A 
ATOM      6  C   UNL     1      -3.156  -8.681   2.716  0.00  0.00    +0.002 A 
ATOM      7  C   UNL     1      -3.575  -7.662   1.883  0.00  0.00    +0.025 A 
ENDBRANCH   1   2
BRANCH   1   8
ATOM      8  S   UNL     1      -4.018  -5.678  -0.306  0.00  0.00    +0.077 S 
ATOM      9  O   UNL     1      -3.971  -4.454  -1.026  0.00  0.00    -0.150 OA
ATOM     10  O   UNL     1      -3.296  -6.831  -0.715  0.00  0.00    -0.150 OA
BRANCH   8  11
ATOM     11  C   UNL     1      -5.714  -6.149  -0.224  0.00  0.00    +0.139 A 
ATOM     12  C   UNL     1      -6.296  -6.425   0.999  0.00  0.00    +0.031 A 
ATOM     13  C   UNL     1      -7.627  -6.795   1.064  0.00  0.00    +0.002 A 
ATOM     14  C   UNL     1      -8.375  -6.888  -0.095  0.00  0.00    +0.002 A 
ATOM     15  C   UNL     1      -7.793  -6.611  -1.318  0.00  0.00    +0.035 A 
ATOM     16  C   UNL     1      -6.463  -6.237  -1.382  0.00  0.00    +0.153 A 
BRANCH  16  17
ATOM     17  N   UNL     1      -5.842  -5.936  -2.691  0.00  0.00    +0.058 N 
ATOM     18  O   UNL     1      -6.521  -5.906  -3.690  0.00  0.00    -0.126 OA
ATOM     19  O   UNL     1      -4.654  -5.720  -2.760  0.00  0.00    -0.126 OA
ENDBRANCH  16  17
ENDBRANCH   8  11
ENDBRANCH   1   8
BRANCH   1  20
ATOM     20  C   UNL     1      -3.535  -3.953   1.720  0.00  0.00    +0.164 C 
BRANCH  20  21
ATOM     21  C   UNL     1      -4.797  -3.706   2.550  0.00  0.00    +0.151 C 
BRANCH  21  22
ATOM     22  O   UNL     1      -5.950  -3.884   1.726  0.00  0.00    -0.389 OA
ATOM     23  H   UNL     1      -6.026  -3.238   1.010  0.00  0.00    +0.210 HD
ENDBRANCH  21  22
BRANCH  21  24
ATOM     24  C   UNL     1      -4.776  -2.278   3.097  0.00  0.00    +0.151 C 
BRANCH  24  29
ATOM     25  C   UNL     1      -7.191  -0.972   6.908  0.00  0.00    +0.041 C 
ATOM     26  C   UNL     1      -7.301  -2.031   5.809  0.00  0.00    +0.107 C 
ATOM     27  C   UNL     1      -5.926  -2.412   5.297  0.00  0.00    +0.246 C 
ATOM     28  O   UNL     1      -5.021  -2.912   5.930  0.00  0.00    -0.273 OA
ATOM     29  N   UNL     1      -5.920  -2.080   3.990  0.00  0.00    -0.222 N 
ATOM     30  C   UNL     1      -7.088  -1.549   3.611  0.00  0.00    +0.309 C 
ATOM     31  O   UNL     1      -7.322  -1.173   2.479  0.00  0.00    -0.252 OA
ATOM     32  N   UNL     1      -7.973  -1.477   4.621  0.00  0.00    -0.285 N 
ATOM     33  C   UNL     1      -8.048  -3.263   6.324  0.00  0.00    +0.041 C 
ATOM     34  H   UNL     1      -8.877  -1.129   4.576  0.00  0.00    +0.151 HD
ENDBRANCH  24  29
ENDBRANCH  21  24
ENDBRANCH  20  21
ENDBRANCH   1  20
TORSDOF 9
