REMARK  Name = ZINC67470465
REMARK  11 active torsions:
REMARK  status: ('A' for Active; 'I' for Inactive)
REMARK    1  A    between atoms: C_1  and  C_2
REMARK    2  A    between atoms: C_2  and  C_4
REMARK    3  A    between atoms: C_2  and  N_16
REMARK    4  A    between atoms: C_8  and  S_10
REMARK    5  A    between atoms: S_10  and  N_13
REMARK    6  A    between atoms: N_13  and  C_14
REMARK    7  A    between atoms: N_13  and  C_15
REMARK    8  A    between atoms: N_22  and  C_25
REMARK    9  A    between atoms: C_25  and  C_26
REMARK   10  A    between atoms: C_26  and  C_27
REMARK   11  A    between atoms: C_26  and  C_28
REMARK                            x       y       z     vdW  Elec       q    Type
REMARK                         _______ _______ _______ _____ _____    ______ ____
ROOT
ATOM      1  N   UNL     1       0.220  -1.068   1.390  0.00  0.00    -0.293 N 
ATOM      2  C   UNL     1      -0.330  -1.177   2.616  0.00  0.00    +0.303 C 
ATOM      3  O   UNL     1      -1.502  -0.902   2.783  0.00  0.00    -0.253 OA
ATOM      4  N   UNL     1       0.420  -1.591   3.656  0.00  0.00    -0.289 N 
ATOM      5  C   UNL     1       1.865  -1.825   3.502  0.00  0.00    +0.091 C 
ATOM      6  C   UNL     1       2.600  -1.079   4.621  0.00  0.00    -0.059 C 
ATOM      7  N   UNL     1       2.055  -1.490   5.921  0.00  0.00    +0.382 N 
ATOM      8  C   UNL     1       0.650  -1.077   6.028  0.00  0.00    -0.059 C 
ATOM      9  C   UNL     1      -0.181  -1.817   4.980  0.00  0.00    +0.091 C 
ATOM     10  H   UNL     1       1.171  -1.218   1.270  0.00  0.00    +0.151 HD
ATOM     11  H   UNL     1       2.117  -2.493   6.009  0.00  0.00    -0.082 HD
ENDROOT
BRANCH   1  13
ATOM     12  C   UNL     1      -0.763   0.796   0.149  0.00  0.00    +0.033 C 
ATOM     13  C   UNL     1      -0.619  -0.724   0.239  0.00  0.00    +0.102 C 
BRANCH  13  14
ATOM     14  C   UNL     1       0.021  -1.244  -1.022  0.00  0.00    -0.026 A 
ATOM     15  C   UNL     1       1.392  -1.164  -1.185  0.00  0.00    +0.005 A 
ATOM     16  C   UNL     1       1.979  -1.641  -2.342  0.00  0.00    +0.002 A 
ATOM     17  C   UNL     1       1.195  -2.197  -3.336  0.00  0.00    +0.028 A 
ATOM     18  C   UNL     1      -0.175  -2.278  -3.173  0.00  0.00    +0.106 A 
ATOM     19  C   UNL     1      -0.761  -1.805  -2.014  0.00  0.00    +0.034 A 
BRANCH  18  20
ATOM     20  S   UNL     1      -1.173  -2.987  -4.439  0.00  0.00    +0.060 S 
ATOM     21  O   UNL     1      -2.478  -2.449  -4.277  0.00  0.00    -0.153 OA
ATOM     22  O   UNL     1      -0.442  -2.860  -5.652  0.00  0.00    -0.153 OA
BRANCH  20  23
ATOM     23  N   UNL     1      -1.287  -4.609  -4.123  0.00  0.00    -0.183 NA
ATOM     24  C   UNL     1      -2.374  -5.117  -3.283  0.00  0.00    +0.131 C 
ATOM     25  C   UNL     1      -0.300  -5.535  -4.683  0.00  0.00    +0.131 C 
ENDBRANCH  20  23
ENDBRANCH  18  20
ENDBRANCH  13  14
ENDBRANCH   1  13
BRANCH   7  26
ATOM     26  C   UNL     1       2.832  -0.859   6.997  0.00  0.00    -0.076 C 
BRANCH  26  27
ATOM     27  C   UNL     1       4.262  -1.402   6.978  0.00  0.00    -0.034 C 
ATOM     28  C   UNL     1       5.089  -0.698   8.056  0.00  0.00    +0.005 C 
ATOM     29  C   UNL     1       4.240  -2.907   7.255  0.00  0.00    +0.005 C 
ENDBRANCH  26  27
ENDBRANCH   7  26
TORSDOF 6
