REMARK  Name = ZINC00651657
REMARK  14 active torsions:
REMARK  status: ('A' for Active; 'I' for Inactive)
REMARK    1  A    between atoms: C_1  and  C_2
REMARK    2  A    between atoms: C_2  and  C_40
REMARK    3  A    between atoms: C_6  and  C_14
REMARK    4  A    between atoms: C_8  and  C_12
REMARK    5  A    between atoms: C_9  and  N_11
REMARK    6  A    between atoms: C_17  and  O_22
REMARK    7  A    between atoms: C_18  and  O_20
REMARK    8  A    between atoms: O_20  and  C_21
REMARK    9  A    between atoms: O_22  and  C_23
REMARK   10  A    between atoms: C_23  and  C_24
REMARK   11  A    between atoms: N_26  and  C_27
REMARK   12  A    between atoms: C_30  and  C_33
REMARK   13  A    between atoms: C_33  and  O_35
REMARK   14  A    between atoms: O_35  and  C_36
REMARK                            x       y       z     vdW  Elec       q    Type
REMARK                         _______ _______ _______ _____ _____    ______ ____
ROOT
ATOM      1  C   UNL     1       0.011   5.067   0.766  0.00  0.00    -0.031 A 
ATOM      2  C   UNL     1      -0.780   5.585   1.775  0.00  0.00    +0.008 A 
ATOM      3  C   UNL     1      -1.333   4.746   2.724  0.00  0.00    +0.050 A 
ATOM      4  C   UNL     1      -1.095   3.382   2.666  0.00  0.00    +0.163 A 
ATOM      5  C   UNL     1      -0.298   2.861   1.651  0.00  0.00    +0.162 A 
ATOM      6  C   UNL     1       0.257   3.708   0.706  0.00  0.00    +0.054 A 
ENDROOT
BRANCH   1  12
ATOM      7  C   UNL     1       2.052   7.870   3.372  0.00  0.00    +0.012 C 
ATOM      8  C   UNL     1       2.893   8.561   2.296  0.00  0.00    -0.021 C 
ATOM      9  C   UNL     1       1.974   9.268   1.299  0.00  0.00    +0.081 C 
ATOM     10  C   UNL     1       1.077   8.254   0.627  0.00  0.00    +0.115 C 
ATOM     11  C   UNL     1       1.502   6.994   0.419  0.00  0.00    +0.046 C 
ATOM     12  C   UNL     1       0.611   5.986  -0.266  0.00  0.00    +0.101 C 
ATOM     13  C   UNL     1      -0.491   6.691  -1.006  0.00  0.00    +0.098 C 
ATOM     14  C   UNL     1      -0.806   7.975  -0.709  0.00  0.00    +0.198 C 
ATOM     15  O   UNL     1      -0.152   8.650   0.250  0.00  0.00    -0.445 OA
ATOM     16  C   UNL     1       2.782   6.575   0.830  0.00  0.00    +0.164 C 
ATOM     17  O   UNL     1       3.136   5.434   0.610  0.00  0.00    -0.292 OA
ATOM     18  C   UNL     1       3.719   7.516   1.538  0.00  0.00    +0.086 C 
ATOM     19  C   UNL     1       3.829   9.579   2.951  0.00  0.00    +0.012 C 
BRANCH  14  20
ATOM     20  N   UNL     1      -1.814   8.599  -1.402  0.00  0.00    -0.328 N 
ATOM     21  H   UNL     1      -2.047   9.518  -1.197  0.00  0.00    +0.145 HD
ATOM     22  H   UNL     1      -2.292   8.120  -2.096  0.00  0.00    +0.145 HD
ENDBRANCH  14  20
BRANCH  13  23
ATOM     23  C   UNL     1      -1.213   6.001  -2.033  0.00  0.00    +0.101 C 
ATOM     24  N   UNL     1      -1.786   5.454  -2.847  0.00  0.00    -0.191 NA
ENDBRANCH  13  23
ENDBRANCH   1  12
BRANCH   5  25
ATOM     25  O   UNL     1      -0.062   1.523   1.589  0.00  0.00    -0.491 OA
ATOM     26  C   UNL     1       0.765   1.058   0.520  0.00  0.00    +0.277 C 
ENDBRANCH   5  25
BRANCH   4  27
ATOM     27  O   UNL     1      -1.637   2.555   3.599  0.00  0.00    -0.479 OA
BRANCH  27  28
ATOM     28  C   UNL     1      -2.444   3.160   4.612  0.00  0.00    +0.325 C 
BRANCH  28  29
ATOM     29  C   UNL     1      -2.955   2.096   5.549  0.00  0.00    +0.255 C 
ATOM     30  O   UNL     1      -2.658   0.935   5.368  0.00  0.00    -0.272 OA
ATOM     31  N   UNL     1      -3.743   2.436   6.589  0.00  0.00    -0.283 N 
ATOM     32  H   UNL     1      -3.918   3.371   6.779  0.00  0.00    +0.155 HD
BRANCH  31  33
ATOM     33  C   UNL     1      -4.305   1.444   7.391  0.00  0.00    +0.034 A 
ATOM     34  C   UNL     1      -4.679   0.227   6.829  0.00  0.00    +0.024 A 
ATOM     35  C   UNL     1      -5.230  -0.756   7.619  0.00  0.00    +0.017 A 
ATOM     36  C   UNL     1      -5.425  -0.527   8.984  0.00  0.00    +0.059 A 
ATOM     37  C   UNL     1      -5.053   0.699   9.544  0.00  0.00    +0.017 A 
ATOM     38  C   UNL     1      -4.497   1.676   8.749  0.00  0.00    +0.024 A 
BRANCH  36  39
ATOM     39  C   UNL     1      -6.020  -1.577   9.832  0.00  0.00    +0.339 C 
ATOM     40  O   UNL     1      -6.188  -1.376  11.019  0.00  0.00    -0.245 OA
BRANCH  39  41
ATOM     41  O   UNL     1      -6.377  -2.758   9.291  0.00  0.00    -0.464 OA
ATOM     42  C   UNL     1      -6.957  -3.744  10.186  0.00  0.00    +0.280 C 
ENDBRANCH  39  41
ENDBRANCH  36  39
ENDBRANCH  31  33
ENDBRANCH  28  29
ENDBRANCH  27  28
ENDBRANCH   4  27
TORSDOF 10
