REMARK  Name = ZINC06194636
REMARK  11 active torsions:
REMARK  status: ('A' for Active; 'I' for Inactive)
REMARK    1  A    between atoms: C_1  and  C_2
REMARK    2  A    between atoms: C_2  and  O_3
REMARK    3  A    between atoms: O_3  and  C_4
REMARK    4  A    between atoms: C_4  and  C_6
REMARK    5  A    between atoms: C_11  and  C_13
REMARK    6  A    between atoms: C_11  and  C_27
REMARK    7  A    between atoms: C_11  and  N_70
REMARK    8  A    between atoms: C_17  and  C_26
REMARK    9  A    between atoms: C_19  and  C_25
REMARK   10  A    between atoms: N_31  and  C_32
REMARK   11  A    between atoms: C_32  and  C_33
REMARK                            x       y       z     vdW  Elec       q    Type
REMARK                         _______ _______ _______ _____ _____    ______ ____
ROOT
ATOM      1  C   UNL     1      -0.013   1.086   0.008  0.00  0.00    +0.039 C 
ENDROOT
BRANCH   1   2
ATOM      2  C   UNL     1       1.401   1.607  -0.003  0.00  0.00    +0.011 A 
ATOM      3  C   UNL     1       2.441   0.742   0.085  0.00  0.00    +0.017 A 
ATOM      4  C   UNL     1       3.802   1.281   0.072  0.00  0.00    -0.001 A 
ATOM      5  C   UNL     1       4.915   0.438   0.159  0.00  0.00    +0.013 A 
ATOM      6  C   UNL     1       6.172   0.972   0.144  0.00  0.00    -0.050 A 
ATOM      7  C   UNL     1       6.356   2.344   0.043  0.00  0.00    +0.008 A 
ATOM      8  C   UNL     1       5.274   3.194  -0.045  0.00  0.00    -0.026 A 
ATOM      9  C   UNL     1       3.984   2.673  -0.031  0.00  0.00    +0.052 A 
ATOM     10  N   UNL     1       2.884   3.499  -0.117  0.00  0.00    -0.322 N 
ATOM     11  H   UNL     1       3.015   4.488  -0.187  0.00  0.00    +0.169 HD
ATOM     12  C   UNL     1       1.638   2.995  -0.110  0.00  0.00    +0.251 A 
ATOM     13  O   UNL     1       0.689   3.755  -0.193  0.00  0.00    -0.268 OA
ATOM     14  C   UNL     1       5.488   4.681  -0.154  0.00  0.00    +0.046 C 
ATOM     15  C   UNL     1       7.371   0.063   0.238  0.00  0.00    +0.044 C 
ENDBRANCH   1   2
BRANCH   1  21
ATOM     16  C   UNL     1      -2.061   1.378  -3.734  0.00  0.00    +0.094 C 
ATOM     17  C   UNL     1      -2.829   1.626  -2.433  0.00  0.00    -0.004 C 
ATOM     18  C   UNL     1      -2.068   0.989  -1.268  0.00  0.00    -0.077 C 
ATOM     19  C   UNL     1       0.050   1.306  -2.402  0.00  0.00    -0.077 C 
ATOM     20  C   UNL     1      -0.648   1.953  -3.601  0.00  0.00    -0.004 C 
ATOM     21  N   UNL     1      -0.726   1.602  -1.179  0.00  0.00    +0.389 N 
ATOM     22  H   UNL     1      -0.830   2.619  -1.088  0.00  0.00    -0.080 HD
BRANCH  16  23
ATOM     23  C   UNL     1      -2.774   2.054  -4.876  0.00  0.00    +0.310 C 
ATOM     24  O   UNL     1      -3.793   2.671  -4.672  0.00  0.00    -0.251 OA
BRANCH  23  25
ATOM     25  O   UNL     1      -2.278   1.970  -6.121  0.00  0.00    -0.465 OA
BRANCH  25  27
ATOM     26  C   UNL     1      -2.305   2.441  -8.510  0.00  0.00    +0.048 C 
ATOM     27  C   UNL     1      -3.018   2.646  -7.172  0.00  0.00    +0.229 C 
ENDBRANCH  25  27
ENDBRANCH  23  25
ENDBRANCH  16  23
ENDBRANCH   1  21
BRANCH   1  28
ATOM     28  C   UNL     1      -0.718   1.572   1.248  0.00  0.00    +0.143 A 
ATOM     29  N   UNL     1      -1.168   2.783   1.468  0.00  0.00    -0.115 NA
ATOM     30  N   UNL     1      -1.707   2.800   2.638  0.00  0.00    -0.023 NA
ATOM     31  N   UNL     1      -1.612   1.632   3.170  0.00  0.00    -0.044 NA
ATOM     32  N   UNL     1      -1.013   0.845   2.342  0.00  0.00    -0.228 N 
BRANCH  32  33
ATOM     33  C   UNL     1      -0.709  -0.572   2.553  0.00  0.00    +0.178 C 
BRANCH  33  34
ATOM     34  C   UNL     1       0.667  -0.706   3.208  0.00  0.00    +0.140 C 
ATOM     35  C   UNL     1       0.987  -2.196   3.490  0.00  0.00    +0.035 C 
ATOM     36  C   UNL     1       2.539  -2.166   3.510  0.00  0.00    +0.031 C 
ATOM     37  C   UNL     1       2.860  -1.087   2.453  0.00  0.00    +0.160 C 
ATOM     38  O   UNL     1       1.695  -0.267   2.305  0.00  0.00    -0.375 OA
ENDBRANCH  33  34
ENDBRANCH  32  33
ENDBRANCH   1  28
TORSDOF 8
