REMARK  Name = ZINC51712867
REMARK  5 active torsions:
REMARK  status: ('A' for Active; 'I' for Inactive)
REMARK    1  A    between atoms: C_3  and  O_7
REMARK    2  A    between atoms: O_7  and  C_8
REMARK    3  A    between atoms: C_11  and  C_15
REMARK    4  A    between atoms: C_15  and  N_16
REMARK    5  A    between atoms: C_23  and  C_26
REMARK                            x       y       z     vdW  Elec       q    Type
REMARK                         _______ _______ _______ _____ _____    ______ ____
ROOT
ATOM      1  C   UNL     1       8.235  -1.161   0.353  0.00  0.00    +0.141 C 
ENDROOT
BRANCH   1   2
ATOM      2  N   UNL     1       8.752  -1.426  -0.992  0.00  0.00    -0.295 N 
ATOM      3  C   UNL     1       9.860  -2.178  -1.152  0.00  0.00    +0.303 C 
ATOM      4  O   UNL     1      10.378  -2.710  -0.189  0.00  0.00    -0.253 OA
ATOM      5  N   UNL     1      10.393  -2.340  -2.379  0.00  0.00    -0.281 N 
ATOM      6  C   UNL     1       9.720  -1.806  -3.574  0.00  0.00    +0.137 C 
ATOM      7  C   UNL     1       9.619  -2.927  -4.614  0.00  0.00    +0.180 C 
ATOM      8  O   UNL     1      10.914  -3.499  -4.816  0.00  0.00    -0.364 OA
ATOM      9  C   UNL     1      11.470  -4.116  -3.653  0.00  0.00    +0.221 C 
ATOM     10  C   UNL     1      11.668  -3.051  -2.563  0.00  0.00    +0.150 C 
ATOM     11  H   UNL     1       8.298  -1.061  -1.767  0.00  0.00    +0.151 HD
BRANCH   9  12
ATOM     12  C   UNL     1      12.799  -4.736  -3.998  0.00  0.00    +0.241 C 
ATOM     13  O   UNL     1      13.272  -4.580  -5.104  0.00  0.00    -0.273 OA
ATOM     14  N   UNL     1      13.463  -5.463  -3.078  0.00  0.00    -0.327 N 
ATOM     15  H   UNL     1      13.085  -5.588  -2.194  0.00  0.00    +0.145 HD
ATOM     16  H   UNL     1      14.319  -5.862  -3.300  0.00  0.00    +0.145 HD
ENDBRANCH   9  12
ENDBRANCH   1   2
BRANCH   1  20
ATOM     17  C   UNL     1       4.729   1.269   0.077  0.00  0.00    +0.164 A 
ATOM     18  C   UNL     1       4.620  -0.114   0.055  0.00  0.00    +0.049 A 
ATOM     19  C   UNL     1       5.755  -0.896   0.144  0.00  0.00    +0.009 A 
ATOM     20  C   UNL     1       6.999  -0.304   0.256  0.00  0.00    -0.027 A 
ATOM     21  C   UNL     1       7.112   1.074   0.278  0.00  0.00    +0.047 A 
ATOM     22  C   UNL     1       5.980   1.863   0.183  0.00  0.00    +0.166 A 
ATOM     23  F   UNL     1       6.090   3.209   0.199  0.00  0.00    -0.202 F 
BRANCH  17  24
ATOM     24  O   UNL     1       3.613   2.041  -0.011  0.00  0.00    -0.452 OA
BRANCH  24  27
ATOM     25  C   UNL     1       0.723   0.146   1.117  0.00  0.00    +0.023 A 
ATOM     26  C   UNL     1       1.962   0.765   1.149  0.00  0.00    +0.049 A 
ATOM     27  C   UNL     1       2.405   1.420   0.004  0.00  0.00    +0.147 A 
ATOM     28  C   UNL     1       1.594   1.430  -1.122  0.00  0.00    +0.156 A 
ATOM     29  N   UNL     1       0.420   0.829  -1.111  0.00  0.00    -0.260 NA
ATOM     30  C   UNL     1      -0.028   0.200  -0.042  0.00  0.00    +0.111 A 
ENDBRANCH  24  27
ENDBRANCH  17  24
ENDBRANCH   1  20
TORSDOF 5
