REMARK  Name = ZINC34890223
REMARK  8 active torsions:
REMARK  status: ('A' for Active; 'I' for Inactive)
REMARK    1  A    between atoms: C_3  and  N_27
REMARK    2  A    between atoms: C_6  and  C_7
REMARK    3  A    between atoms: C_10  and  S_12
REMARK    4  A    between atoms: S_12  and  C_13
REMARK    5  A    between atoms: C_13  and  C_14
REMARK    6  A    between atoms: N_16  and  C_17
REMARK    7  A    between atoms: C_20  and  O_23
REMARK    8  A    between atoms: O_23  and  C_24
REMARK                            x       y       z     vdW  Elec       q    Type
REMARK                         _______ _______ _______ _____ _____    ______ ____
ROOT
ATOM      1  S   UNL     1      -3.468  -3.957   0.026  0.00  0.00    -0.056 S 
ENDROOT
BRANCH   1   5
ATOM      2  C   UNL     1      -1.266  -0.763   0.033  0.00  0.00    +0.249 A 
ATOM      3  N   UNL     1      -2.474  -0.256   0.048  0.00  0.00    -0.106 NA
ATOM      4  N   UNL     1      -3.338  -1.209   0.047  0.00  0.00    -0.101 NA
ATOM      5  C   UNL     1      -2.714  -2.364   0.033  0.00  0.00    +0.278 A 
ATOM      6  O   UNL     1      -1.392  -2.108   0.018  0.00  0.00    -0.411 OA
BRANCH   2  12
ATOM      7  C   UNL     1      -0.017   1.393   0.047  0.00  0.00    +0.015 A 
ATOM      8  C   UNL     1       1.170   2.095   0.043  0.00  0.00    +0.033 A 
ATOM      9  C   UNL     1       2.377   1.420   0.021  0.00  0.00    +0.126 A 
ATOM     10  C   UNL     1       2.403   0.037   0.003  0.00  0.00    +0.033 A 
ATOM     11  C   UNL     1       1.224  -0.678   0.007  0.00  0.00    +0.015 A 
ATOM     12  C   UNL     1       0.002  -0.003   0.029  0.00  0.00    +0.039 A 
BRANCH   9  13
ATOM     13  N   UNL     1       3.647   2.181   0.017  0.00  0.00    +0.056 N 
ATOM     14  O   UNL     1       3.628   3.390   0.032  0.00  0.00    -0.126 OA
ATOM     15  O   UNL     1       4.704   1.594  -0.003  0.00  0.00    -0.126 OA
ENDBRANCH   9  13
ENDBRANCH   2  12
ENDBRANCH   1   5
BRANCH   1  16
ATOM     16  C   UNL     1      -5.247  -3.600   0.043  0.00  0.00    +0.175 C 
BRANCH  16  17
ATOM     17  C   UNL     1      -6.019  -4.894   0.039  0.00  0.00    +0.228 C 
ATOM     18  O   UNL     1      -5.427  -5.953   0.026  0.00  0.00    -0.275 OA
ATOM     19  N   UNL     1      -7.366  -4.875   0.050  0.00  0.00    -0.285 N 
ATOM     20  H   UNL     1      -7.839  -4.032   0.128  0.00  0.00    +0.155 HD
BRANCH  19  21
ATOM     21  C   UNL     1      -8.085  -6.074  -0.051  0.00  0.00    +0.034 A 
ATOM     22  C   UNL     1      -9.287  -6.106  -0.745  0.00  0.00    +0.027 A 
ATOM     23  C   UNL     1      -9.995  -7.288  -0.845  0.00  0.00    +0.047 A 
ATOM     24  C   UNL     1      -9.504  -8.443  -0.253  0.00  0.00    +0.127 A 
ATOM     25  C   UNL     1      -8.303  -8.411   0.441  0.00  0.00    +0.047 A 
ATOM     26  C   UNL     1      -7.591  -7.231   0.536  0.00  0.00    +0.027 A 
BRANCH  24  27
ATOM     27  O   UNL     1     -10.201  -9.606  -0.351  0.00  0.00    -0.434 OA
BRANCH  27  28
ATOM     28  C   UNL     1      -9.637 -10.756   0.283  0.00  0.00    +0.541 C 
ATOM     29  F   UNL     1      -8.380 -11.023  -0.269  0.00  0.00    -0.166 F 
ATOM     30  F   UNL     1      -9.502 -10.513   1.654  0.00  0.00    -0.166 F 
ENDBRANCH  27  28
ENDBRANCH  24  27
ENDBRANCH  19  21
ENDBRANCH  16  17
ENDBRANCH   1  16
TORSDOF 8
