REMARK  Name = ZINC21691564
REMARK  11 active torsions:
REMARK  status: ('A' for Active; 'I' for Inactive)
REMARK    1  A    between atoms: C_1  and  C_2
REMARK    2  A    between atoms: C_3  and  C_14
REMARK    3  A    between atoms: C_4  and  C_13
REMARK    4  A    between atoms: N_5  and  C_7
REMARK    5  A    between atoms: C_15  and  C_16
REMARK    6  A    between atoms: C_16  and  O_18
REMARK    7  A    between atoms: O_18  and  C_19
REMARK    8  A    between atoms: C_19  and  C_21
REMARK    9  A    between atoms: C_19  and  C_22
REMARK   10  A    between atoms: N_24  and  C_25
REMARK   11  A    between atoms: C_28  and  N_31
REMARK                            x       y       z     vdW  Elec       q    Type
REMARK                         _______ _______ _______ _____ _____    ______ ____
ROOT
ATOM      1  C   UNL     1      -1.384  -0.101  -4.340  0.00  0.00    +0.333 C 
ATOM      2  O   UNL     1      -0.693  -0.209  -5.336  0.00  0.00    -0.246 OA
ENDROOT
BRANCH   1   4
ATOM      3  C   UNL     1       0.286  -1.206  -3.023  0.00  0.00    +0.018 C 
ATOM      4  C   UNL     1      -0.922  -0.605  -3.100  0.00  0.00    +0.092 C 
BRANCH   3   7
ATOM      5  C   UNL     1       0.336   0.383  -0.278  0.00  0.00    +0.068 C 
ATOM      6  C   UNL     1       0.794  -1.035  -0.505  0.00  0.00    +0.068 A 
ATOM      7  C   UNL     1       0.766  -1.730  -1.737  0.00  0.00    +0.019 A 
ATOM      8  C   UNL     1       1.274  -2.995  -1.502  0.00  0.00    +0.049 A 
ATOM      9  N   UNL     1       1.594  -3.063  -0.196  0.00  0.00    -0.236 N 
ATOM     10  N   UNL     1       1.291  -1.833   0.399  0.00  0.00    -0.171 NA
ATOM     11  C   UNL     1       1.438  -4.094  -2.520  0.00  0.00    +0.066 C 
BRANCH   9  12
ATOM     12  C   UNL     1       2.141  -4.176   0.456  0.00  0.00    +0.066 A 
ATOM     13  C   UNL     1       3.145  -4.916  -0.155  0.00  0.00    +0.028 A 
ATOM     14  C   UNL     1       3.682  -6.013   0.491  0.00  0.00    +0.002 A 
ATOM     15  C   UNL     1       3.221  -6.374   1.743  0.00  0.00    +0.000 A 
ATOM     16  C   UNL     1       2.222  -5.639   2.354  0.00  0.00    +0.002 A 
ATOM     17  C   UNL     1       1.685  -4.537   1.717  0.00  0.00    +0.028 A 
ENDBRANCH   9  12
ENDBRANCH   3   7
ENDBRANCH   1   4
BRANCH   1  18
ATOM     18  O   UNL     1      -2.590   0.500  -4.416  0.00  0.00    -0.449 OA
BRANCH  18  19
ATOM     19  C   UNL     1      -2.993   0.985  -5.699  0.00  0.00    +0.259 C 
ATOM     20  C   UNL     1      -2.521   2.430  -5.868  0.00  0.00    +0.062 C 
BRANCH  19  21
ATOM     21  C   UNL     1      -4.495   0.930  -5.808  0.00  0.00    +0.258 C 
ATOM     22  O   UNL     1      -5.161   0.603  -4.848  0.00  0.00    -0.271 OA
ATOM     23  N   UNL     1      -5.098   1.245  -6.971  0.00  0.00    -0.282 N 
ATOM     24  H   UNL     1      -4.564   1.437  -7.758  0.00  0.00    +0.155 HD
BRANCH  23  25
ATOM     25  C   UNL     1      -6.494   1.296  -7.044  0.00  0.00    +0.034 A 
ATOM     26  C   UNL     1      -7.144   0.925  -8.214  0.00  0.00    +0.025 A 
ATOM     27  C   UNL     1      -8.522   0.976  -8.282  0.00  0.00    +0.034 A 
ATOM     28  C   UNL     1      -9.256   1.395  -7.188  0.00  0.00    +0.126 A 
ATOM     29  C   UNL     1      -8.612   1.766  -6.021  0.00  0.00    +0.034 A 
ATOM     30  C   UNL     1      -7.234   1.711  -5.944  0.00  0.00    +0.025 A 
BRANCH  28  31
ATOM     31  N   UNL     1     -10.733   1.449  -7.265  0.00  0.00    +0.056 N 
ATOM     32  O   UNL     1     -11.297   1.126  -8.284  0.00  0.00    -0.126 OA
ATOM     33  O   UNL     1     -11.375   1.816  -6.308  0.00  0.00    -0.126 OA
ENDBRANCH  28  31
ENDBRANCH  23  25
ENDBRANCH  19  21
ENDBRANCH  18  19
ENDBRANCH   1  18
TORSDOF 8
