REMARK  Name = ZINC23015058
REMARK  11 active torsions:
REMARK  status: ('A' for Active; 'I' for Inactive)
REMARK    1  A    between atoms: C_1  and  C_2
REMARK    2  A    between atoms: C_2  and  O_3
REMARK    3  A    between atoms: O_3  and  C_4
REMARK    4  A    between atoms: C_4  and  C_6
REMARK    5  A    between atoms: C_7  and  C_20
REMARK    6  A    between atoms: C_12  and  C_14
REMARK    7  A    between atoms: C_17  and  C_19
REMARK    8  A    between atoms: C_20  and  O_21
REMARK    9  A    between atoms: O_21  and  C_22
REMARK   10  A    between atoms: C_22  and  C_24
REMARK   11  A    between atoms: C_25  and  C_29
REMARK                            x       y       z     vdW  Elec       q    Type
REMARK                         _______ _______ _______ _____ _____    ______ ____
ROOT
ATOM      1  C   UNL     1       3.058   1.339  -1.477  0.00  0.00    +0.084 C 
ATOM      2  C   UNL     1       4.165   2.064  -1.748  0.00  0.00    +0.061 C 
ATOM      3  N   UNL     1       4.694   2.916  -0.821  0.00  0.00    -0.269 N 
ATOM      4  C   UNL     1       4.177   3.099   0.400  0.00  0.00    +0.305 C 
ATOM      5  O   UNL     1       4.719   3.880   1.157  0.00  0.00    -0.252 OA
ATOM      6  N   UNL     1       3.074   2.446   0.816  0.00  0.00    -0.285 N 
ATOM      7  C   UNL     1       2.426   1.503  -0.110  0.00  0.00    +0.179 C 
ATOM      8  H   UNL     1       5.597   3.497  -1.061  0.00  0.00    +0.156 HD
ATOM      9  H   UNL     1       2.656   2.604   1.822  0.00  0.00    +0.151 HD
ENDROOT
BRANCH   7  10
ATOM     10  C   UNL     1       1.001   1.952  -0.309  0.00  0.00    +0.130 A 
ATOM     11  C   UNL     1      -0.074   1.147  -0.386  0.00  0.00    +0.047 A 
ATOM     12  C   UNL     1      -1.198   1.982  -0.579  0.00  0.00    +0.045 A 
ATOM     13  C   UNL     1      -0.745   3.248  -0.598  0.00  0.00    +0.102 A 
ATOM     14  O   UNL     1       0.589   3.223  -0.437  0.00  0.00    -0.463 OA
ATOM     15  C   UNL     1      -1.588   4.484  -0.776  0.00  0.00    +0.086 C 
ENDBRANCH   7  10
BRANCH   1  16
ATOM     16  C   UNL     1       2.509   0.456  -2.436  0.00  0.00    +0.339 C 
ATOM     17  O   UNL     1       2.714  -0.740  -2.349  0.00  0.00    -0.245 OA
BRANCH  16  18
ATOM     18  O   UNL     1       1.759   0.941  -3.448  0.00  0.00    -0.462 OA
BRANCH  18  20
ATOM     19  C   UNL     1       0.418   0.723  -5.446  0.00  0.00    +0.048 C 
ATOM     20  C   UNL     1       1.236  -0.008  -4.380  0.00  0.00    +0.229 C 
ENDBRANCH  18  20
ENDBRANCH  16  18
ENDBRANCH   1  16
BRANCH   2  21
ATOM     21  C   UNL     1       4.826   1.932  -3.096  0.00  0.00    +0.284 C 
BRANCH  21  22
ATOM     22  O   UNL     1       4.731   3.173  -3.798  0.00  0.00    -0.453 OA
BRANCH  22  23
ATOM     23  C   UNL     1       5.278   3.223  -5.030  0.00  0.00    +0.376 C 
ATOM     24  O   UNL     1       5.821   2.239  -5.496  0.00  0.00    -0.241 OA
BRANCH  23  25
ATOM     25  C   UNL     1       5.218   4.460  -5.806  0.00  0.00    +0.219 A 
ATOM     26  C   UNL     1       5.735   4.655  -7.080  0.00  0.00    +0.034 A 
ATOM     27  C   UNL     1       5.442   5.995  -7.424  0.00  0.00    +0.050 A 
ATOM     28  C   UNL     1       4.782   6.537  -6.381  0.00  0.00    +0.196 A 
ATOM     29  O   UNL     1       4.644   5.618  -5.417  0.00  0.00    -0.456 OA
BRANCH  26  30
ATOM     30  C   UNL     1       6.451   3.660  -7.912  0.00  0.00    -0.014 A 
ATOM     31  C   UNL     1       7.516   2.936  -7.376  0.00  0.00    +0.008 A 
ATOM     32  C   UNL     1       8.176   2.007  -8.154  0.00  0.00    +0.001 A 
ATOM     33  C   UNL     1       7.789   1.800  -9.466  0.00  0.00    +0.000 A 
ATOM     34  C   UNL     1       6.737   2.518 -10.005  0.00  0.00    +0.001 A 
ATOM     35  C   UNL     1       6.066   3.446  -9.235  0.00  0.00    +0.008 A 
ENDBRANCH  26  30
ENDBRANCH  23  25
ENDBRANCH  22  23
ENDBRANCH  21  22
ENDBRANCH   2  21
TORSDOF 9
