REMARK  Name = ZINC08624138
REMARK  10 active torsions:
REMARK  status: ('A' for Active; 'I' for Inactive)
REMARK    1  A    between atoms: C_1  and  C_2
REMARK    2  A    between atoms: C_2  and  O_3
REMARK    3  A    between atoms: O_3  and  C_4
REMARK    4  A    between atoms: C_4  and  C_6
REMARK    5  A    between atoms: C_7  and  C_35
REMARK    6  A    between atoms: C_8  and  C_31
REMARK    7  A    between atoms: C_10  and  N_11
REMARK    8  A    between atoms: C_12  and  C_14
REMARK    9  A    between atoms: C_14  and  N_15
REMARK   10  A    between atoms: N_33  and  C_34
REMARK                            x       y       z     vdW  Elec       q    Type
REMARK                         _______ _______ _______ _____ _____    ______ ____
ROOT
ATOM      1  N   UNL     1       1.858   5.093   1.678  0.00  0.00    -0.278 N 
ATOM      2  C   UNL     1       1.603   3.794   1.427  0.00  0.00    +0.236 C 
ATOM      3  O   UNL     1       1.462   3.015   2.347  0.00  0.00    -0.274 OA
ATOM      4  H   UNL     1       1.971   5.716   0.943  0.00  0.00    +0.155 HD
ENDROOT
BRANCH   1   9
ATOM      5  C   UNL     1       2.221   6.833   3.443  0.00  0.00    +0.091 A 
ATOM      6  C   UNL     1       2.268   7.032   4.814  0.00  0.00    -0.015 A 
ATOM      7  C   UNL     1       2.067   5.946   5.621  0.00  0.00    +0.079 A 
ATOM      8  S   UNL     1       1.799   4.630   4.449  0.00  0.00    -0.068 S 
ATOM      9  C   UNL     1       1.959   5.539   2.981  0.00  0.00    +0.087 A 
ATOM     10  C   UNL     1       2.539   8.396   5.396  0.00  0.00    +0.046 C 
BRANCH   7  11
ATOM     11  C   UNL     1       2.070   5.880   7.084  0.00  0.00    +0.251 C 
ATOM     12  O   UNL     1       2.272   6.886   7.738  0.00  0.00    -0.270 OA
ATOM     13  N   UNL     1       1.849   4.705   7.707  0.00  0.00    -0.314 N 
ATOM     14  C   UNL     1       1.853   4.639   9.170  0.00  0.00    +0.128 C 
ATOM     15  H   UNL     1       1.689   3.903   7.186  0.00  0.00    +0.149 HD
ENDBRANCH   7  11
BRANCH   5  16
ATOM     16  C   UNL     1       2.434   7.943   2.507  0.00  0.00    +0.342 C 
ATOM     17  O   UNL     1       1.489   8.609   2.129  0.00  0.00    -0.245 OA
BRANCH  16  18
ATOM     18  O   UNL     1       3.677   8.225   2.067  0.00  0.00    -0.461 OA
BRANCH  18  20
ATOM     19  C   UNL     1       5.284   9.503   0.757  0.00  0.00    +0.048 C 
ATOM     20  C   UNL     1       3.812   9.337   1.143  0.00  0.00    +0.229 C 
ENDBRANCH  18  20
ENDBRANCH  16  18
ENDBRANCH   5  16
ENDBRANCH   1   9
BRANCH   2  21
ATOM     21  C   UNL     1       1.493   3.308   0.005  0.00  0.00    +0.214 C 
BRANCH  21  22
ATOM     22  N   UNL     1       1.214   1.870   0.001  0.00  0.00    -0.215 N 
ATOM     23  C   UNL     1       2.165   0.913  -0.013  0.00  0.00    +0.251 C 
ATOM     24  O   UNL     1       3.366   1.073  -0.024  0.00  0.00    -0.272 OA
ATOM     25  C   UNL     1       1.417  -0.402  -0.013  0.00  0.00    +0.138 C 
ATOM     26  C   UNL     1       1.734  -1.190  -1.278  0.00  0.00    +0.040 C 
ATOM     27  C   UNL     1       1.113  -2.587  -1.149  0.00  0.00    +0.008 C 
ATOM     28  C   UNL     1       1.874  -3.355  -0.070  0.00  0.00    +0.035 C 
ATOM     29  C   UNL     1       1.955  -2.550   1.200  0.00  0.00    -0.042 A 
ATOM     30  C   UNL     1       1.750  -1.187   1.224  0.00  0.00    -0.012 A 
ATOM     31  C   UNL     1       1.850  -0.499   2.426  0.00  0.00    +0.006 A 
ATOM     32  C   UNL     1       2.149  -1.169   3.595  0.00  0.00    +0.000 A 
ATOM     33  C   UNL     1       2.351  -2.536   3.570  0.00  0.00    +0.000 A 
ATOM     34  C   UNL     1       2.254  -3.222   2.377  0.00  0.00    +0.004 A 
ATOM     35  N   UNL     1       0.002  -0.004   0.002  0.00  0.00    -0.281 N 
ATOM     36  C   UNL     1      -0.016   1.342   0.009  0.00  0.00    +0.310 C 
ATOM     37  O   UNL     1      -1.035   2.004   0.018  0.00  0.00    -0.252 OA
ATOM     38  H   UNL     1      -0.767  -0.595   0.006  0.00  0.00    +0.152 HD
ENDBRANCH  21  22
ENDBRANCH   2  21
TORSDOF 7
