REMARK  Name = ZINC01771872
REMARK  4 active torsions:
REMARK  status: ('A' for Active; 'I' for Inactive)
REMARK    1  A    between atoms: C_1  and  C_2
REMARK    2  A    between atoms: C_2  and  C_3
REMARK    3  A    between atoms: C_6  and  C_9
REMARK    4  A    between atoms: C_12  and  C_19
REMARK                            x       y       z     vdW  Elec       q    Type
REMARK                         _______ _______ _______ _____ _____    ______ ____
ROOT
ATOM      1  C   UNL     1       2.707  -1.868  -4.752  0.00  0.00    +0.158 C 
ATOM      2  C   UNL     1       3.294  -0.663  -5.464  0.00  0.00    +0.030 C 
ATOM      3  C   UNL     1       4.625  -0.653  -5.672  0.00  0.00    +0.073 C 
ATOM      4  N   UNL     1       5.417  -1.676  -5.263  0.00  0.00    -0.216 NA
ATOM      5  C   UNL     1       4.979  -2.747  -4.644  0.00  0.00    +0.227 C 
ATOM      6  N   UNL     1       3.655  -2.917  -4.355  0.00  0.00    -0.162 N 
ATOM      7  N   UNL     1       3.517  -4.142  -3.702  0.00  0.00    -0.055 NA
ATOM      8  N   UNL     1       4.625  -4.680  -3.593  0.00  0.00    -0.058 NA
ATOM      9  N   UNL     1       5.607  -3.864  -4.163  0.00  0.00    -0.187 N 
ATOM     10  H   UNL     1       6.557  -4.054  -4.210  0.00  0.00    +0.179 HD
ENDROOT
BRANCH   3  11
ATOM     11  C   UNL     1       5.240   0.507  -6.364  0.00  0.00    +0.000 A 
ATOM     12  C   UNL     1       4.446   1.571  -6.786  0.00  0.00    +0.011 A 
ATOM     13  C   UNL     1       5.022   2.647  -7.429  0.00  0.00    +0.020 A 
ATOM     14  C   UNL     1       6.388   2.670  -7.656  0.00  0.00    +0.041 A 
ATOM     15  C   UNL     1       7.181   1.615  -7.239  0.00  0.00    +0.020 A 
ATOM     16  C   UNL     1       6.615   0.538  -6.589  0.00  0.00    +0.011 A 
ATOM     17 CL   UNL     1       7.107   4.027  -8.466  0.00  0.00    -0.084 Cl
ENDBRANCH   3  11
BRANCH   1  21
ATOM     18  C   UNL     1       0.707  -0.490  -1.238  0.00  0.00    -0.048 A 
ATOM     19  C   UNL     1      -0.011  -0.719  -2.397  0.00  0.00    +0.004 A 
ATOM     20  C   UNL     1       0.636  -1.164  -3.534  0.00  0.00    +0.006 A 
ATOM     21  C   UNL     1       2.002  -1.381  -3.513  0.00  0.00    -0.021 A 
ATOM     22  C   UNL     1       2.720  -1.152  -2.354  0.00  0.00    +0.006 A 
ATOM     23  C   UNL     1       2.073  -0.702  -1.218  0.00  0.00    +0.004 A 
BRANCH  18  25
ATOM     24  C   UNL     1      -0.019   1.526   0.010  0.00  0.00    +0.009 C 
ATOM     25  C   UNL     1       0.002  -0.004   0.002  0.00  0.00    +0.032 C 
ENDBRANCH  18  25
ENDBRANCH   1  21
TORSDOF 3
