REMARK  Name = ZINC01208764
REMARK  4 active torsions:
REMARK  status: ('A' for Active; 'I' for Inactive)
REMARK    1  A    between atoms: C_4  and  C_7
REMARK    2  A    between atoms: C_8  and  C_18
REMARK    3  A    between atoms: C_11  and  C_13
REMARK    4  A    between atoms: C_21  and  N_24
REMARK                            x       y       z     vdW  Elec       q    Type
REMARK                         _______ _______ _______ _____ _____    ______ ____
ROOT
ATOM      1  C   UNL     1       0.933   7.191   0.031  0.00  0.00    +0.097 A 
ATOM      2  C   UNL     1       2.337   6.710   0.015  0.00  0.00    +0.074 A 
ATOM      3  N   UNL     1       2.259   5.356   0.014  0.00  0.00    -0.337 N 
ATOM      4  H   UNL     1       3.030   4.719   0.009  0.00  0.00    +0.167 HD
ATOM      5  C   UNL     1       0.923   5.018   0.020  0.00  0.00    +0.146 A 
ATOM      6  N   UNL     1       0.166   6.119   0.033  0.00  0.00    -0.227 NA
ENDROOT
BRANCH   1  10
ATOM      7  C   UNL     1      -0.361  11.232   0.065  0.00  0.00    +0.000 A 
ATOM      8  C   UNL     1      -1.095  10.279  -0.623  0.00  0.00    +0.001 A 
ATOM      9  C   UNL     1      -0.682   8.965  -0.639  0.00  0.00    +0.010 A 
ATOM     10  C   UNL     1       0.484   8.593   0.042  0.00  0.00    +0.002 A 
ATOM     11  C   UNL     1       1.217   9.562   0.740  0.00  0.00    +0.010 A 
ATOM     12  C   UNL     1       0.793  10.873   0.742  0.00  0.00    +0.001 A 
ENDBRANCH   1  10
BRANCH   2  13
ATOM     13  C   UNL     1       3.513   7.499   0.008  0.00  0.00    +0.001 A 
ATOM     14  C   UNL     1       3.616   8.610  -0.852  0.00  0.00    +0.012 A 
ATOM     15  C   UNL     1       4.754   9.367  -0.848  0.00  0.00    +0.033 A 
ATOM     16  C   UNL     1       5.808   9.040  -0.007  0.00  0.00    +0.126 A 
ATOM     17  C   UNL     1       5.719   7.945   0.840  0.00  0.00    +0.033 A 
ATOM     18  C   UNL     1       4.590   7.176   0.856  0.00  0.00    +0.012 A 
BRANCH  16  19
ATOM     19  N   UNL     1       7.037   9.864  -0.016  0.00  0.00    +0.056 N 
ATOM     20  O   UNL     1       8.041   9.558   0.779  0.00  0.00    -0.126 OA
ATOM     21  O   UNL     1       7.127  10.905  -0.819  0.00  0.00    -0.126 OA
ENDBRANCH  16  19
ENDBRANCH   2  13
BRANCH   5  22
ATOM     22  C   UNL     1       0.430   3.708   0.018  0.00  0.00    +0.054 A 
ATOM     23  C   UNL     1      -0.911   3.262   0.028  0.00  0.00    +0.019 A 
ATOM     24  C   UNL     1      -1.113   1.921   0.017  0.00  0.00    +0.008 A 
ATOM     25  C   UNL     1      -0.013   1.076   0.008  0.00  0.00    +0.046 A 
ATOM     26  S   UNL     1       1.333   2.169   0.001  0.00  0.00    -0.094 S 
ENDBRANCH   5  22
TORSDOF 4
