REMARK  Name = ZINC29788827
REMARK  9 active torsions:
REMARK  status: ('A' for Active; 'I' for Inactive)
REMARK    1  A    between atoms: C_1  and  C_2
REMARK    2  A    between atoms: C_12  and  C_14
REMARK    3  A    between atoms: C_14  and  C_16
REMARK    4  A    between atoms: C_14  and  N_20
REMARK    5  A    between atoms: C_16  and  C_17
REMARK    6  A    between atoms: C_17  and  S_18
REMARK    7  A    between atoms: S_18  and  C_19
REMARK    8  A    between atoms: N_20  and  S_21
REMARK    9  A    between atoms: S_21  and  C_24
REMARK                            x       y       z     vdW  Elec       q    Type
REMARK                         _______ _______ _______ _____ _____    ______ ____
ROOT
ATOM      1  C   UNL     1       4.531   0.070  -2.505  0.00  0.00    +0.163 C 
ENDROOT
BRANCH   1  12
ATOM      2  C   UNL     1       0.541   1.072 -11.642  0.00  0.00    +0.008 C 
ATOM      3  C   UNL     1       1.342   0.660 -10.405  0.00  0.00    -0.009 C 
ATOM      4  C   UNL     1       0.475  -0.223  -9.503  0.00  0.00    +0.010 C 
ATOM      5  C   UNL     1       1.330  -0.841  -8.395  0.00  0.00    +0.056 C 
ATOM      6  C   UNL     1       2.088   0.273  -7.682  0.00  0.00    +0.054 A 
ATOM      7  C   UNL     1       2.246   1.484  -8.278  0.00  0.00    +0.015 A 
ATOM      8  S   UNL     1       3.169   2.394  -7.070  0.00  0.00    -0.057 S 
ATOM      9  C   UNL     1       3.277   1.127  -5.885  0.00  0.00    +0.165 A 
ATOM     10  N   UNL     1       2.633   0.142  -6.475  0.00  0.00    -0.229 NA
ATOM     11  N   UNL     1       3.891   1.147  -4.638  0.00  0.00    -0.263 N 
ATOM     12  C   UNL     1       3.865   0.049  -3.857  0.00  0.00    +0.237 C 
ATOM     13  O   UNL     1       3.306  -0.956  -4.242  0.00  0.00    -0.274 OA
ATOM     14  C   UNL     1       1.755   1.914  -9.618  0.00  0.00    +0.047 C 
ATOM     15  H   UNL     1       4.398   2.058  -4.289  0.00  0.00    +0.157 HD
ENDBRANCH   1  12
BRANCH   1  16
ATOM     16  N   UNL     1       4.364  -1.234  -1.858  0.00  0.00    -0.178 NA
ATOM     17  H   UNL     1       4.229  -2.138  -2.469  0.00  0.00    +0.149 HD
BRANCH  16  18
ATOM     18  S   UNL     1       4.129  -1.321  -0.221  0.00  0.00    +0.059 S 
ATOM     19  O   UNL     1       5.127  -0.505   0.377  0.00  0.00    -0.153 OA
ATOM     20  O   UNL     1       3.982  -2.699   0.095  0.00  0.00    -0.153 OA
BRANCH  18  21
ATOM     21  C   UNL     1       2.579  -0.557   0.125  0.00  0.00    +0.109 A 
ATOM     22  C   UNL     1       1.422  -1.313   0.125  0.00  0.00    +0.032 A 
ATOM     23  C   UNL     1       0.204  -0.717   0.393  0.00  0.00    +0.051 A 
ATOM     24  C   UNL     1       0.140   0.642   0.664  0.00  0.00    +0.162 A 
ATOM     25  C   UNL     1       1.304   1.401   0.667  0.00  0.00    +0.164 A 
ATOM     26  C   UNL     1       2.523   0.797   0.395  0.00  0.00    +0.078 A 
ATOM     27  O   UNL     1       1.266   2.735   0.938  0.00  0.00    -0.485 OA
ATOM     28  C   UNL     1      -0.011   3.375   0.837  0.00  0.00    +0.270 C 
ATOM     29  C   UNL     1      -1.047   2.500   1.555  0.00  0.00    +0.270 C 
ATOM     30  O   UNL     1      -1.067   1.217   0.918  0.00  0.00    -0.485 OA
ENDBRANCH  18  21
ENDBRANCH  16  18
ENDBRANCH   1  16
BRANCH   1  31
ATOM     31  C   UNL     1       6.022   0.367  -2.675  0.00  0.00    +0.040 C 
BRANCH  31  32
ATOM     32  C   UNL     1       6.673  -0.745  -3.500  0.00  0.00    +0.071 C 
BRANCH  32  33
ATOM     33  S   UNL     1       8.413  -0.332  -3.805  0.00  0.00    -0.164 S 
ATOM     34  C   UNL     1       9.031  -1.731  -4.781  0.00  0.00    +0.084 C 
ENDBRANCH  32  33
ENDBRANCH  31  32
ENDBRANCH   1  31
TORSDOF 7
