REMARK  Name = ZINC63743105
REMARK  10 active torsions:
REMARK  status: ('A' for Active; 'I' for Inactive)
REMARK    1  A    between atoms: C_1  and  O_2
REMARK    2  A    between atoms: O_2  and  C_3
REMARK    3  A    between atoms: C_3  and  C_5
REMARK    4  A    between atoms: C_5  and  C_7
REMARK    5  A    between atoms: C_5  and  N_17
REMARK    6  A    between atoms: C_7  and  C_8
REMARK    7  A    between atoms: C_18  and  C_20
REMARK    8  A    between atoms: C_20  and  C_21
REMARK    9  A    between atoms: C_24  and  S_27
REMARK   10  A    between atoms: S_27  and  N_30
REMARK                            x       y       z     vdW  Elec       q    Type
REMARK                         _______ _______ _______ _____ _____    ______ ____
ROOT
ATOM      1  N   UNL     1      -2.643  -2.570   0.013  0.00  0.00    -0.302 N 
ATOM      2  C   UNL     1      -3.306  -2.679   1.182  0.00  0.00    +0.218 C 
ATOM      3  O   UNL     1      -2.744  -2.417   2.224  0.00  0.00    -0.275 OA
ATOM      4  H   UNL     1      -3.092  -2.779  -0.820  0.00  0.00    +0.150 HD
ENDROOT
BRANCH   1   5
ATOM      5  C   UNL     1      -1.244  -2.135   0.003  0.00  0.00    +0.186 C 
BRANCH   5   6
ATOM      6  C   UNL     1      -1.185  -0.630   0.010  0.00  0.00    +0.328 C 
ATOM      7  O   UNL     1      -2.208   0.015   0.023  0.00  0.00    -0.249 OA
BRANCH   6   9
ATOM      8  C   UNL     1      -0.017   1.425   0.010  0.00  0.00    +0.280 C 
ATOM      9  O   UNL     1       0.002  -0.004   0.002  0.00  0.00    -0.467 OA
ENDBRANCH   6   9
ENDBRANCH   5   6
BRANCH   5  10
ATOM     10  C   UNL     1      -0.555  -2.666  -1.256  0.00  0.00    +0.067 C 
BRANCH  10  11
ATOM     11  C   UNL     1      -0.505  -4.172  -1.204  0.00  0.00    -0.039 C 
ATOM     12  C   UNL     1      -1.383  -5.034  -1.765  0.00  0.00    -0.001 A 
ATOM     13  C   UNL     1      -2.601  -4.837  -2.559  0.00  0.00    +0.010 A 
ATOM     14  C   UNL     1      -3.286  -5.921  -2.990  0.00  0.00    +0.001 A 
ATOM     15  C   UNL     1      -2.862  -7.225  -2.698  0.00  0.00    +0.002 A 
ATOM     16  C   UNL     1      -1.753  -7.486  -1.974  0.00  0.00    +0.026 A 
ATOM     17  C   UNL     1      -0.956  -6.421  -1.470  0.00  0.00    +0.043 A 
ATOM     18  N   UNL     1       0.143  -6.416  -0.756  0.00  0.00    -0.380 N 
ATOM     19  C   UNL     1       0.542  -5.023  -0.521  0.00  0.00    +0.144 C 
ATOM     20  H   UNL     1       0.616  -7.201  -0.439  0.00  0.00    +0.160 HD
ENDBRANCH  10  11
ENDBRANCH   5  10
ENDBRANCH   1   5
BRANCH   2  21
ATOM     21  C   UNL     1      -4.745  -3.126   1.193  0.00  0.00    +0.130 C 
BRANCH  21  22
ATOM     22  C   UNL     1      -5.248  -3.164   2.614  0.00  0.00    -0.039 A 
ATOM     23  C   UNL     1      -5.119  -4.319   3.361  0.00  0.00    +0.006 A 
ATOM     24  C   UNL     1      -5.580  -4.355   4.664  0.00  0.00    +0.029 A 
ATOM     25  C   UNL     1      -6.170  -3.234   5.219  0.00  0.00    +0.105 A 
ATOM     26  C   UNL     1      -6.298  -2.079   4.471  0.00  0.00    +0.029 A 
ATOM     27  C   UNL     1      -5.833  -2.042   3.170  0.00  0.00    +0.006 A 
BRANCH  25  28
ATOM     28  S   UNL     1      -6.759  -3.280   6.879  0.00  0.00    +0.061 S 
ATOM     29  O   UNL     1      -7.760  -2.276   6.982  0.00  0.00    -0.153 OA
ATOM     30  O   UNL     1      -7.014  -4.644   7.183  0.00  0.00    -0.153 OA
BRANCH  28  31
ATOM     31  N   UNL     1      -5.509  -2.803   7.855  0.00  0.00    -0.177 NA
ATOM     32  C   UNL     1      -4.562  -3.788   8.393  0.00  0.00    +0.109 C 
ATOM     33  C   UNL     1      -3.138  -3.348   8.038  0.00  0.00    +0.017 C 
ATOM     34  C   UNL     1      -2.910  -1.920   8.537  0.00  0.00    +0.003 C 
ATOM     35  C   UNL     1      -3.894  -0.973   7.846  0.00  0.00    +0.017 C 
ATOM     36  C   UNL     1      -5.323  -1.385   8.195  0.00  0.00    +0.109 C 
ENDBRANCH  28  31
ENDBRANCH  25  28
ENDBRANCH  21  22
ENDBRANCH   2  21
TORSDOF 9
