REMARK  Name = ZINC24772961
REMARK  11 active torsions:
REMARK  status: ('A' for Active; 'I' for Inactive)
REMARK    1  A    between atoms: C_1  and  C_2
REMARK    2  A    between atoms: C_7  and  C_8
REMARK    3  A    between atoms: C_13  and  C_16
REMARK    4  A    between atoms: N_18  and  C_19
REMARK    5  A    between atoms: N_18  and  C_23
REMARK    6  A    between atoms: C_19  and  C_20
REMARK    7  A    between atoms: C_20  and  C_21
REMARK    8  A    between atoms: C_20  and  C_22
REMARK    9  A    between atoms: C_24  and  N_39
REMARK   10  A    between atoms: N_25  and  C_32
REMARK   11  A    between atoms: C_32  and  C_33
REMARK                            x       y       z     vdW  Elec       q    Type
REMARK                         _______ _______ _______ _____ _____    ______ ____
ROOT
ATOM      1  C   UNL     1      -2.687  -2.808   7.093  0.00  0.00    +0.223 C 
ATOM      2  O   UNL     1      -1.884  -2.295   6.342  0.00  0.00    -0.275 OA
ATOM      3  N   UNL     1      -3.117  -2.136   8.181  0.00  0.00    -0.264 N 
ENDROOT
BRANCH   3   4
ATOM      4  C   UNL     1      -3.966  -2.771   9.112  0.00  0.00    +0.140 A 
ATOM      5  C   UNL     1      -3.506  -3.102  10.370  0.00  0.00    +0.128 A 
ATOM      6  N   UNL     1      -4.357  -3.719  11.256  0.00  0.00    -0.276 N 
ATOM      7  C   UNL     1      -5.625  -3.998  10.900  0.00  0.00    +0.331 A 
ATOM      8  O   UNL     1      -6.362  -4.544  11.698  0.00  0.00    -0.246 OA
ATOM      9  N   UNL     1      -6.091  -3.682   9.679  0.00  0.00    -0.273 N 
ATOM     10  H   UNL     1      -7.009  -3.893   9.447  0.00  0.00    +0.173 HD
ATOM     11  C   UNL     1      -5.299  -3.072   8.776  0.00  0.00    +0.277 A 
ATOM     12  O   UNL     1      -5.733  -2.786   7.673  0.00  0.00    -0.266 OA
BRANCH   5  13
ATOM     13  N   UNL     1      -2.211  -2.817  10.734  0.00  0.00    -0.343 N 
ATOM     14  H   UNL     1      -1.636  -2.319  10.132  0.00  0.00    +0.144 HD
ATOM     15  H   UNL     1      -1.872  -3.115  11.592  0.00  0.00    +0.144 HD
ENDBRANCH   5  13
BRANCH   6  16
ATOM     16  C   UNL     1      -3.882  -4.077  12.595  0.00  0.00    +0.163 C 
BRANCH  16  17
ATOM     17  C   UNL     1      -4.133  -2.930  13.540  0.00  0.00    -0.028 A 
ATOM     18  C   UNL     1      -3.174  -1.949  13.707  0.00  0.00    +0.005 A 
ATOM     19  C   UNL     1      -3.405  -0.897  14.574  0.00  0.00    +0.000 A 
ATOM     20  C   UNL     1      -4.595  -0.827  15.274  0.00  0.00    +0.000 A 
ATOM     21  C   UNL     1      -5.555  -1.807  15.106  0.00  0.00    +0.000 A 
ATOM     22  C   UNL     1      -5.326  -2.857  14.236  0.00  0.00    +0.005 A 
ENDBRANCH  16  17
ENDBRANCH   6  16
ENDBRANCH   3   4
BRANCH   1  28
ATOM     23  C   UNL     1      -2.400  -7.904   5.238  0.00  0.00    +0.247 C 
ATOM     24  O   UNL     1      -1.855  -8.748   5.922  0.00  0.00    -0.270 OA
ATOM     25  N   UNL     1      -2.978  -6.835   5.821  0.00  0.00    -0.297 N 
ATOM     26  C   UNL     1      -3.722  -5.855   5.017  0.00  0.00    +0.109 C 
ATOM     27  C   UNL     1      -3.163  -4.457   5.303  0.00  0.00    +0.032 C 
ATOM     28  C   UNL     1      -3.204  -4.195   6.811  0.00  0.00    +0.078 C 
ATOM     29  C   UNL     1      -2.329  -5.222   7.533  0.00  0.00    +0.032 C 
ATOM     30  C   UNL     1      -2.883  -6.631   7.273  0.00  0.00    +0.109 C 
BRANCH  23  37
ATOM     31  C   UNL     1       0.078  -8.253   3.787  0.00  0.00    +0.044 C 
ATOM     32  C   UNL     1      -1.239  -8.218   3.056  0.00  0.00    -0.038 A 
ATOM     33  C   UNL     1      -1.274  -8.359   1.684  0.00  0.00    +0.004 A 
ATOM     34  C   UNL     1      -2.482  -8.327   1.012  0.00  0.00    +0.000 A 
ATOM     35  C   UNL     1      -3.665  -8.154   1.710  0.00  0.00    +0.001 A 
ATOM     36  C   UNL     1      -3.644  -8.012   3.083  0.00  0.00    +0.013 A 
ATOM     37  C   UNL     1      -2.429  -8.049   3.767  0.00  0.00    +0.040 A 
ENDBRANCH  23  37
ENDBRANCH   1  28
BRANCH   3  38
ATOM     38  C   UNL     1      -2.702  -0.747   8.396  0.00  0.00    +0.117 C 
BRANCH  38  39
ATOM     39  C   UNL     1      -3.760   0.196   7.819  0.00  0.00    +0.001 C 
ATOM     40  C   UNL     1      -3.372   1.644   8.125  0.00  0.00    +0.009 C 
ATOM     41  C   UNL     1      -3.846  -0.000   6.304  0.00  0.00    +0.009 C 
ENDBRANCH  38  39
ENDBRANCH   3  38
TORSDOF 8
