REMARK  Name = ZINC39351043
REMARK  9 active torsions:
REMARK  status: ('A' for Active; 'I' for Inactive)
REMARK    1  A    between atoms: C_1  and  C_2
REMARK    2  A    between atoms: C_2  and  O_3
REMARK    3  A    between atoms: O_3  and  C_4
REMARK    4  A    between atoms: C_6  and  C_15
REMARK    5  A    between atoms: C_9  and  O_10
REMARK    6  A    between atoms: O_10  and  C_11
REMARK    7  A    between atoms: C_11  and  C_12
REMARK    8  A    between atoms: N_16  and  N_17
REMARK    9  A    between atoms: N_17  and  C_18
REMARK                            x       y       z     vdW  Elec       q    Type
REMARK                         _______ _______ _______ _____ _____    ______ ____
ROOT
ATOM      1  C   UNL     1       0.621  -4.950  -0.019  0.00  0.00    +0.138 C 
ATOM      2  N   UNL     1       0.464  -6.238  -0.024  0.00  0.00    -0.191 NA
ENDROOT
BRANCH   1   5
ATOM      3  C   UNL     1      -1.498  -1.849   0.006  0.00  0.00    +0.164 A 
ATOM      4  C   UNL     1      -0.390  -2.676  -0.003  0.00  0.00    +0.059 A 
ATOM      5  C   UNL     1      -0.557  -4.063  -0.008  0.00  0.00    -0.000 A 
ATOM      6  C   UNL     1      -1.844  -4.608  -0.004  0.00  0.00    +0.033 A 
ATOM      7  C   UNL     1      -2.945  -3.776   0.005  0.00  0.00    +0.087 A 
ATOM      8  C   UNL     1      -2.778  -2.399   0.016  0.00  0.00    +0.182 A 
ATOM      9 CL   UNL     1      -4.543  -4.455   0.009  0.00  0.00    -0.080 Cl
BRANCH   3  10
ATOM     10  O   UNL     1      -1.339  -0.499   0.012  0.00  0.00    -0.489 OA
BRANCH  10  12
ATOM     11  C   UNL     1      -0.019   1.526   0.010  0.00  0.00    +0.048 C 
ATOM     12  C   UNL     1       0.002  -0.004   0.002  0.00  0.00    +0.226 C 
ENDBRANCH  10  12
ENDBRANCH   3  10
BRANCH   8  13
ATOM     13  O   UNL     1      -3.866  -1.583   0.030  0.00  0.00    -0.474 OA
BRANCH  13  14
ATOM     14  C   UNL     1      -4.397  -1.188  -1.236  0.00  0.00    +0.317 C 
BRANCH  14  15
ATOM     15  C   UNL     1      -5.563  -0.314  -1.028  0.00  0.00    -0.065 C 
ATOM     16  C   UNL     1      -6.493   0.383  -0.862  0.00  0.00    +0.007 C 
ENDBRANCH  14  15
ENDBRANCH  13  14
ENDBRANCH   8  13
ENDBRANCH   1   5
BRANCH   2  17
ATOM     17  N   UNL     1       1.583  -7.080  -0.033  0.00  0.00    -0.229 N 
ATOM     18  H   UNL     1       2.476  -6.700  -0.036  0.00  0.00    +0.172 HD
BRANCH  17  19
ATOM     19  C   UNL     1       1.406  -8.534  -0.039  0.00  0.00    +0.283 C 
ATOM     20  N   UNL     1       1.425  -9.050   1.336  0.00  0.00    -0.347 N 
ATOM     21  C   UNL     1       2.423  -9.880   1.427  0.00  0.00    +0.061 A 
ATOM     22  C   UNL     1       2.944 -10.698   2.531  0.00  0.00    +0.027 A 
ATOM     23  C   UNL     1       4.020 -11.484   2.327  0.00  0.00    +0.002 A 
ATOM     24  C   UNL     1       4.679 -11.559   1.087  0.00  0.00    +0.002 A 
ATOM     25  C   UNL     1       4.284 -10.851   0.010  0.00  0.00    +0.027 A 
ATOM     26  C   UNL     1       3.120  -9.960   0.115  0.00  0.00    +0.061 A 
ATOM     27  N   UNL     1       2.527  -9.176  -0.738  0.00  0.00    -0.347 N 
ATOM     28  H   UNL     1       0.808  -8.814   2.046  0.00  0.00    +0.163 HD
ATOM     29  H   UNL     1       2.779  -9.040  -1.665  0.00  0.00    +0.163 HD
ENDBRANCH  17  19
ENDBRANCH   2  17
TORSDOF 8
