REMARK  Name = ZINC20464325
REMARK  9 active torsions:
REMARK  status: ('A' for Active; 'I' for Inactive)
REMARK    1  A    between atoms: C_1  and  C_2
REMARK    2  A    between atoms: C_5  and  S_8
REMARK    3  A    between atoms: S_8  and  N_11
REMARK    4  A    between atoms: N_11  and  C_12
REMARK    5  A    between atoms: C_15  and  C_20
REMARK    6  A    between atoms: N_17  and  C_19
REMARK    7  A    between atoms: C_22  and  C_25
REMARK    8  A    between atoms: C_25  and  C_26
REMARK    9  A    between atoms: C_25  and  C_27
REMARK                            x       y       z     vdW  Elec       q    Type
REMARK                         _______ _______ _______ _____ _____    ______ ____
ROOT
ATOM      1  C   UNL     1      -1.125   3.309  -1.574  0.00  0.00    +0.059 C 
ATOM      2  C   UNL     1      -1.260   3.572  -3.097  0.00  0.00    +0.012 C 
ATOM      3  C   UNL     1      -2.124   4.857  -3.117  0.00  0.00    +0.023 C 
ATOM      4  N   UNL     1      -3.079   4.687  -2.001  0.00  0.00    +0.387 N 
ATOM      5  C   UNL     1      -2.495   3.753  -1.021  0.00  0.00    -0.058 C 
ATOM      6  C   UNL     1      -3.393   5.979  -1.375  0.00  0.00    -0.095 C 
ATOM      7  H   UNL     1      -4.028   4.279  -2.381  0.00  0.00    -0.081 HD
ENDROOT
BRANCH   3   8
ATOM      8  C   UNL     1      -2.862   4.973  -4.426  0.00  0.00    +0.214 A 
ATOM      9  N   UNL     1      -2.615   5.829  -5.388  0.00  0.00    -0.197 NA
ATOM     10  C   UNL     1      -3.515   5.561  -6.351  0.00  0.00    +0.174 A 
ATOM     11  N   UNL     1      -4.255   4.580  -5.929  0.00  0.00    -0.061 NA
ATOM     12  O   UNL     1      -3.896   4.228  -4.825  0.00  0.00    -0.340 OA
BRANCH  10  13
ATOM     13  C   UNL     1      -3.646   6.273  -7.673  0.00  0.00    +0.054 C 
ATOM     14  C   UNL     1      -3.455   5.270  -8.812  0.00  0.00    +0.015 C 
ATOM     15  C   UNL     1      -5.035   6.905  -7.777  0.00  0.00    +0.015 C 
ENDBRANCH  10  13
ENDBRANCH   3   8
BRANCH   1  16
ATOM     16  N   UNL     1      -0.897   1.885  -1.312  0.00  0.00    -0.189 NA
ATOM     17  H   UNL     1      -1.442   1.126  -1.892  0.00  0.00    +0.148 HD
BRANCH  16  18
ATOM     18  S   UNL     1      -0.017   1.417   0.010  0.00  0.00    +0.059 S 
ATOM     19  O   UNL     1       0.002  -0.004   0.002  0.00  0.00    -0.153 OA
ATOM     20  O   UNL     1       1.172   2.195   0.003  0.00  0.00    -0.153 OA
BRANCH  18  25
ATOM     21  C   UNL     1      -3.131   3.072   4.906  0.00  0.00    +0.044 C 
ATOM     22  C   UNL     1      -2.353   2.659   3.683  0.00  0.00    -0.050 A 
ATOM     23  C   UNL     1      -2.559   1.412   3.121  0.00  0.00    +0.005 A 
ATOM     24  C   UNL     1      -1.846   1.033   2.000  0.00  0.00    +0.029 A 
ATOM     25  C   UNL     1      -0.927   1.900   1.439  0.00  0.00    +0.105 A 
ATOM     26  C   UNL     1      -0.717   3.145   2.004  0.00  0.00    +0.029 A 
ATOM     27  C   UNL     1      -1.434   3.525   3.123  0.00  0.00    +0.005 A 
ENDBRANCH  18  25
ENDBRANCH  16  18
ENDBRANCH   1  16
TORSDOF 5
