REMARK  Name = ZINC39684218
REMARK  6 active torsions:
REMARK  status: ('A' for Active; 'I' for Inactive)
REMARK    1  A    between atoms: C_1  and  C_2
REMARK    2  A    between atoms: C_7  and  C_11
REMARK    3  A    between atoms: C_11  and  C_12
REMARK    4  A    between atoms: C_12  and  N_13
REMARK    5  A    between atoms: C_14  and  C_16
REMARK    6  A    between atoms: C_27  and  C_29
REMARK                            x       y       z     vdW  Elec       q    Type
REMARK                         _______ _______ _______ _____ _____    ______ ____
ROOT
ATOM      1  C   UNL     1      -8.680   1.722  -6.216  0.00  0.00    +0.100 C 
ATOM      2  C   UNL     1      -8.192   2.852  -7.151  0.00  0.00    +0.121 C 
ATOM      3  N   UNL     1      -7.816   2.162  -8.407  0.00  0.00    -0.300 N 
ATOM      4  C   UNL     1      -8.858   1.123  -8.584  0.00  0.00    +0.115 C 
ATOM      5  C   UNL     1      -9.119   0.591  -7.161  0.00  0.00    -0.004 C 
ATOM      6  C   UNL     1      -8.287  -0.663  -6.906  0.00  0.00    -0.010 C 
ATOM      7  C   UNL     1      -8.780  -1.791  -7.817  0.00  0.00    -0.082 C 
ATOM      8  N   UNL     1     -10.198  -2.057  -7.546  0.00  0.00    +0.379 N 
ATOM      9  C   UNL     1     -11.003  -0.876  -7.881  0.00  0.00    -0.082 C 
ATOM     10  C   UNL     1     -10.603   0.291  -6.973  0.00  0.00    -0.010 C 
ATOM     11  C   UNL     1      -6.764   2.421  -9.209  0.00  0.00    +0.219 C 
ATOM     12  O   UNL     1      -6.589   1.763 -10.212  0.00  0.00    -0.275 OA
ATOM     13  H   UNL     1     -10.505  -2.840  -8.103  0.00  0.00    -0.086 HD
ATOM     14  H   UNL     1     -10.317  -2.276  -6.568  0.00  0.00    -0.086 HD
ENDROOT
BRANCH  11  15
ATOM     15  C   UNL     1      -5.804   3.529  -8.858  0.00  0.00    +0.079 C 
ATOM     16  C   UNL     1      -4.711   3.623  -9.929  0.00  0.00    +0.017 C 
ATOM     17  C   UNL     1      -3.658   4.629  -9.460  0.00  0.00    +0.027 C 
ATOM     18  C   UNL     1      -4.320   5.900  -9.014  0.00  0.00    -0.031 C 
ATOM     19  C   UNL     1      -5.578   6.001  -8.729  0.00  0.00    -0.030 C 
ATOM     20  C   UNL     1      -6.554   4.862  -8.808  0.00  0.00    +0.039 C 
ENDBRANCH  11  15
BRANCH   1  22
ATOM     21  N   UNL     1      -7.830   0.739  -4.112  0.00  0.00    -0.315 N 
ATOM     22  C   UNL     1      -7.557   1.256  -5.326  0.00  0.00    +0.218 C 
ATOM     23  O   UNL     1      -6.408   1.347  -5.702  0.00  0.00    -0.275 OA
ATOM     24  H   UNL     1      -8.750   0.666  -3.811  0.00  0.00    +0.149 HD
BRANCH  21  25
ATOM     25  C   UNL     1      -6.739   0.286  -3.246  0.00  0.00    +0.109 C 
BRANCH  25  26
ATOM     26  C   UNL     1      -7.317  -0.254  -1.936  0.00  0.00    +0.056 C 
BRANCH  26  33
ATOM     27  C   UNL     1      -2.589  -1.160   2.082  0.00  0.00    +0.046 C 
ATOM     28  C   UNL     1      -3.586  -0.247   1.416  0.00  0.00    -0.027 A 
ATOM     29  C   UNL     1      -3.613   1.094   1.729  0.00  0.00    +0.005 A 
ATOM     30  C   UNL     1      -4.527   1.945   1.123  0.00  0.00    +0.001 A 
ATOM     31  C   UNL     1      -5.417   1.465   0.203  0.00  0.00    +0.010 A 
ATOM     32  C   UNL     1      -5.407   0.110  -0.130  0.00  0.00    +0.003 A 
ATOM     33  C   UNL     1      -6.194  -0.720  -1.046  0.00  0.00    -0.021 A 
ATOM     34  C   UNL     1      -5.726  -1.973  -0.941  0.00  0.00    +0.087 A 
ATOM     35  N   UNL     1      -4.703  -2.015  -0.033  0.00  0.00    -0.360 N 
ATOM     36  C   UNL     1      -4.479  -0.756   0.478  0.00  0.00    +0.050 A 
ATOM     37  H   UNL     1      -4.207  -2.812   0.212  0.00  0.00    +0.165 HD
ENDBRANCH  26  33
ENDBRANCH  25  26
ENDBRANCH  21  25
ENDBRANCH   1  22
TORSDOF 5
