REMARK  Name = ZINC24625692
REMARK  7 active torsions:
REMARK  status: ('A' for Active; 'I' for Inactive)
REMARK    1  A    between atoms: C_1  and  C_2
REMARK    2  A    between atoms: C_3  and  C_13
REMARK    3  A    between atoms: C_4  and  C_12
REMARK    4  A    between atoms: C_13  and  C_14
REMARK    5  A    between atoms: N_16  and  C_17
REMARK    6  A    between atoms: C_17  and  C_19
REMARK    7  A    between atoms: C_17  and  C_20
REMARK                            x       y       z     vdW  Elec       q    Type
REMARK                         _______ _______ _______ _____ _____    ______ ____
ROOT
ATOM      1  C   UNL     1       5.521   1.956  -0.040  0.00  0.00    +0.066 C 
ATOM      2  C   UNL     1       4.017   1.877  -0.026  0.00  0.00    +0.047 A 
ATOM      3  C   UNL     1       3.258   3.053  -0.012  0.00  0.00    +0.004 A 
ATOM      4  C   UNL     1       1.902   2.968   0.000  0.00  0.00    +0.049 A 
ATOM      5  N   UNL     1       1.318   1.741  -0.001  0.00  0.00    -0.199 N 
ATOM      6  C   UNL     1       2.088   0.612  -0.015  0.00  0.00    +0.255 A 
ATOM      7  N   UNL     1       3.422   0.705  -0.027  0.00  0.00    -0.216 NA
ATOM      8  N   UNL     1       1.263  -0.430  -0.012  0.00  0.00    -0.176 NA
ATOM      9  C   UNL     1       0.002  -0.004   0.002  0.00  0.00    +0.234 A 
ATOM     10  N   UNL     1      -0.016   1.313   0.009  0.00  0.00    -0.128 NA
ATOM     11  N   UNL     1      -1.123  -0.824   0.008  0.00  0.00    -0.326 N 
ATOM     12  C   UNL     1       1.058   4.216   0.015  0.00  0.00    +0.066 C 
ATOM     13  H   UNL     1      -2.129  -0.377   0.020  0.00  0.00    +0.145 HD
ATOM     14  H   UNL     1      -1.008  -1.917   0.001  0.00  0.00    +0.145 HD
ENDROOT
BRANCH   3  15
ATOM     15  C   UNL     1       3.937   4.399  -0.011  0.00  0.00    +0.134 C 
BRANCH  15  16
ATOM     16  C   UNL     1       4.149   4.855  -1.432  0.00  0.00    +0.218 C 
ATOM     17  O   UNL     1       3.785   4.156  -2.354  0.00  0.00    -0.275 OA
ATOM     18  N   UNL     1       4.744   6.039  -1.678  0.00  0.00    -0.308 N 
ATOM     19  H   UNL     1       5.074   6.673  -0.841  0.00  0.00    +0.149 HD
BRANCH  18  20
ATOM     20  C   UNL     1       4.950   6.483  -3.058  0.00  0.00    +0.100 C 
ATOM     21  C   UNL     1       6.251   5.884  -3.598  0.00  0.00    +0.033 C 
BRANCH  20  22
ATOM     22  C   UNL     1       5.037   7.987  -3.095  0.00  0.00    -0.027 A 
ATOM     23  C   UNL     1       5.715   8.665  -2.100  0.00  0.00    +0.006 A 
ATOM     24  C   UNL     1       5.798  10.044  -2.136  0.00  0.00    +0.015 A 
ATOM     25  C   UNL     1       5.194  10.746  -3.163  0.00  0.00    +0.018 A 
ATOM     26  C   UNL     1       4.511  10.068  -4.156  0.00  0.00    +0.015 A 
ATOM     27  C   UNL     1       4.433   8.688  -4.122  0.00  0.00    +0.006 A 
ATOM     28 BR   UNL     1       5.301  12.634  -3.208  0.00  0.00    -0.050 Br
ENDBRANCH  20  22
ENDBRANCH  18  20
ENDBRANCH  15  16
ENDBRANCH   3  15
TORSDOF 4
