REMARK  Name = ZINC66120503
REMARK  5 active torsions:
REMARK  status: ('A' for Active; 'I' for Inactive)
REMARK    1  A    between atoms: C_4  and  C_7
REMARK    2  A    between atoms: C_12  and  N_15
REMARK    3  A    between atoms: C_22  and  C_25
REMARK    4  A    between atoms: C_25  and  C_26
REMARK    5  A    between atoms: C_26  and  C_27
REMARK                            x       y       z     vdW  Elec       q    Type
REMARK                         _______ _______ _______ _____ _____    ______ ____
ROOT
ATOM      1  N   UNL     1       5.502  -5.123  -1.962  0.00  0.00    -0.296 N 
ATOM      2  C   UNL     1       5.944  -6.131  -2.739  0.00  0.00    +0.302 C 
ATOM      3  O   UNL     1       5.511  -6.264  -3.867  0.00  0.00    -0.253 OA
ATOM      4  N   UNL     1       6.868  -6.992  -2.267  0.00  0.00    -0.285 N 
ATOM      5  C   UNL     1       7.482  -6.782  -0.949  0.00  0.00    +0.109 C 
ATOM      6  C   UNL     1       9.006  -6.788  -1.108  0.00  0.00    +0.019 C 
ATOM      7  C   UNL     1       9.436  -8.082  -1.803  0.00  0.00    +0.006 C 
ATOM      8  C   UNL     1       8.805  -8.150  -3.195  0.00  0.00    +0.007 C 
ATOM      9  C   UNL     1       7.275  -8.162  -3.057  0.00  0.00    +0.112 C 
ATOM     10  H   UNL     1       5.900  -4.973  -1.090  0.00  0.00    +0.151 HD
ENDROOT
BRANCH   1  16
ATOM     11  C   UNL     1       2.849  -0.460  -2.498  0.00  0.00    +0.219 C 
ATOM     12  O   UNL     1       3.216   0.338  -3.334  0.00  0.00    -0.275 OA
ATOM     13  N   UNL     1       3.080  -1.776  -2.675  0.00  0.00    -0.301 N 
ATOM     14  C   UNL     1       2.546  -2.763  -1.728  0.00  0.00    +0.109 C 
ATOM     15  C   UNL     1       3.696  -3.644  -1.232  0.00  0.00    +0.041 C 
ATOM     16  C   UNL     1       4.422  -4.254  -2.433  0.00  0.00    +0.077 C 
ATOM     17  C   UNL     1       5.008  -3.136  -3.299  0.00  0.00    +0.041 C 
ATOM     18  C   UNL     1       3.867  -2.250  -3.822  0.00  0.00    +0.109 C 
BRANCH  11  22
ATOM     19  C   UNL     1       1.745   2.020   0.845  0.00  0.00    +0.000 C 
ATOM     20  C   UNL     1       2.418   0.677   1.133  0.00  0.00    +0.001 C 
ATOM     21  C   UNL     1       3.143   0.189  -0.123  0.00  0.00    +0.013 C 
ATOM     22  C   UNL     1       2.135   0.021  -1.261  0.00  0.00    +0.075 C 
ATOM     23  C   UNL     1       1.462   1.364  -1.549  0.00  0.00    +0.013 C 
ATOM     24  C   UNL     1       0.737   1.851  -0.293  0.00  0.00    +0.001 C 
ENDBRANCH  11  22
ENDBRANCH   1  16
BRANCH   8  25
ATOM     25  C   UNL     1       9.262  -9.428  -3.902  0.00  0.00    +0.014 C 
BRANCH  25  26
ATOM     26  C   UNL     1       8.732  -9.434  -5.337  0.00  0.00    +0.096 C 
BRANCH  26  27
ATOM     27  C   UNL     1       9.183 -10.693  -6.033  0.00  0.00    +0.210 C 
ATOM     28  O   UNL     1       9.862 -11.504  -5.440  0.00  0.00    -0.276 OA
ATOM     29  N   UNL     1       8.832 -10.917  -7.315  0.00  0.00    -0.329 N 
ATOM     30  H   UNL     1       8.289 -10.268  -7.790  0.00  0.00    +0.145 HD
ATOM     31  H   UNL     1       9.122 -11.726  -7.763  0.00  0.00    +0.145 HD
ENDBRANCH  26  27
ENDBRANCH  25  26
ENDBRANCH   8  25
TORSDOF 5
