REMARK  Name = ZINC17054250
REMARK  10 active torsions:
REMARK  status: ('A' for Active; 'I' for Inactive)
REMARK    1  A    between atoms: C_1  and  C_2
REMARK    2  A    between atoms: C_5  and  N_26
REMARK    3  A    between atoms: C_7  and  S_8
REMARK    4  A    between atoms: S_8  and  N_11
REMARK    5  A    between atoms: C_14  and  C_17
REMARK    6  A    between atoms: N_19  and  C_20
REMARK    7  A    between atoms: C_20  and  C_22
REMARK    8  A    between atoms: C_20  and  C_23
REMARK    9  A    between atoms: C_23  and  C_24
REMARK   10  A    between atoms: C_23  and  C_25
REMARK                            x       y       z     vdW  Elec       q    Type
REMARK                         _______ _______ _______ _____ _____    ______ ____
ROOT
ATOM      1  N   UNL     1       3.392   3.239   1.842  0.00  0.00    -0.177 NA
ATOM      2  C   UNL     1       3.040   3.963   3.071  0.00  0.00    +0.110 C 
ATOM      3  C   UNL     1       4.322   4.332   3.816  0.00  0.00    +0.030 C 
ATOM      4  C   UNL     1       5.155   3.069   4.047  0.00  0.00    +0.077 C 
ATOM      5  C   UNL     1       5.538   2.455   2.699  0.00  0.00    +0.030 C 
ATOM      6  C   UNL     1       4.266   2.062   1.942  0.00  0.00    +0.110 C 
ENDROOT
BRANCH   4   7
ATOM      7  C   UNL     1       6.405   3.426   4.809  0.00  0.00    +0.216 C 
ATOM      8  O   UNL     1       7.495   3.210   4.322  0.00  0.00    -0.276 OA
ATOM      9  N   UNL     1       6.313   3.985   6.032  0.00  0.00    -0.312 N 
ATOM     10  H   UNL     1       5.441   4.158   6.422  0.00  0.00    +0.149 HD
BRANCH   9  11
ATOM     11  C   UNL     1       7.528   4.332   6.773  0.00  0.00    +0.072 C 
ATOM     12  C   UNL     1       8.030   3.103   7.534  0.00  0.00    +0.028 C 
BRANCH  11  13
ATOM     13  C   UNL     1       7.218   5.454   7.766  0.00  0.00    +0.003 C 
ATOM     14  C   UNL     1       6.232   4.945   8.819  0.00  0.00    +0.009 C 
ATOM     15  C   UNL     1       8.511   5.902   8.450  0.00  0.00    +0.009 C 
ENDBRANCH  11  13
ENDBRANCH   9  11
ENDBRANCH   4   7
BRANCH   1  16
ATOM     16  S   UNL     1       2.821   3.744   0.372  0.00  0.00    +0.061 S 
ATOM     17  O   UNL     1       3.803   3.384  -0.591  0.00  0.00    -0.153 OA
ATOM     18  O   UNL     1       2.381   5.084   0.546  0.00  0.00    -0.153 OA
BRANCH  16  25
ATOM     19  C   UNL     1       0.279   3.810   2.009  0.00  0.00    +0.046 C 
ATOM     20  C   UNL     1       0.270   2.883   0.820  0.00  0.00    -0.024 A 
ATOM     21  C   UNL     1      -0.855   2.130   0.538  0.00  0.00    +0.007 A 
ATOM     22  C   UNL     1      -0.860   1.276  -0.548  0.00  0.00    +0.033 A 
ATOM     23  C   UNL     1       0.255   1.182  -1.359  0.00  0.00    +0.128 A 
ATOM     24  C   UNL     1       1.380   1.935  -1.078  0.00  0.00    +0.061 A 
ATOM     25  C   UNL     1       1.387   2.785   0.013  0.00  0.00    +0.111 A 
BRANCH  23  26
ATOM     26  N   UNL     1       0.247   0.271  -2.526  0.00  0.00    +0.056 N 
ATOM     27  O   UNL     1       1.232   0.185  -3.238  0.00  0.00    -0.126 OA
ATOM     28  O   UNL     1      -0.744  -0.392  -2.774  0.00  0.00    -0.126 OA
ENDBRANCH  23  26
ENDBRANCH  16  25
ENDBRANCH   1  16
TORSDOF 6
