REMARK  Name = ZINC59351120
REMARK  8 active torsions:
REMARK  status: ('A' for Active; 'I' for Inactive)
REMARK    1  A    between atoms: C_1  and  C_2
REMARK    2  A    between atoms: C_5  and  C_9
REMARK    3  A    between atoms: C_7  and  C_8
REMARK    4  A    between atoms: C_9  and  C_11
REMARK    5  A    between atoms: C_9  and  N_12
REMARK    6  A    between atoms: C_13  and  C_15
REMARK    7  A    between atoms: C_18  and  C_24
REMARK    8  A    between atoms: C_19  and  N_21
REMARK                            x       y       z     vdW  Elec       q    Type
REMARK                         _______ _______ _______ _____ _____    ______ ____
ROOT
ATOM      1  N   UNL     1       0.884  -4.636  -1.294  0.00  0.00    -0.305 N 
ATOM      2  C   UNL     1       1.585  -5.760  -1.046  0.00  0.00    +0.245 C 
ATOM      3  O   UNL     1       1.505  -6.298   0.041  0.00  0.00    -0.270 OA
ATOM      4  H   UNL     1       0.948  -4.206  -2.162  0.00  0.00    +0.150 HD
ENDROOT
BRANCH   2   5
ATOM      5  C   UNL     1       2.449  -6.340  -2.096  0.00  0.00    +0.039 A 
ATOM      6  C   UNL     1       2.548  -5.721  -3.343  0.00  0.00    +0.013 A 
ATOM      7  C   UNL     1       3.357  -6.267  -4.318  0.00  0.00    +0.006 A 
ATOM      8  C   UNL     1       4.069  -7.425  -4.062  0.00  0.00    -0.020 A 
ATOM      9  C   UNL     1       3.976  -8.043  -2.828  0.00  0.00    +0.130 A 
ATOM     10  C   UNL     1       3.175  -7.504  -1.842  0.00  0.00    +0.046 A 
ATOM     11  C   UNL     1       4.951  -8.015  -5.132  0.00  0.00    +0.046 C 
BRANCH   9  12
ATOM     12  N   UNL     1       4.742  -9.281  -2.562  0.00  0.00    +0.057 N 
ATOM     13  O   UNL     1       4.259 -10.157  -1.883  0.00  0.00    -0.126 OA
ATOM     14  O   UNL     1       5.850  -9.418  -3.025  0.00  0.00    -0.126 OA
ENDBRANCH   9  12
ENDBRANCH   2   5
BRANCH   1  15
ATOM     15  C   UNL     1       0.028  -4.061  -0.254  0.00  0.00    +0.100 C 
ATOM     16  C   UNL     1      -1.341  -4.745  -0.286  0.00  0.00    +0.033 C 
BRANCH  15  21
ATOM     17  C   UNL     1      -0.629   1.601  -1.204  0.00  0.00    +0.044 C 
ATOM     18  C   UNL     1      -0.457   0.124  -0.957  0.00  0.00    -0.048 A 
ATOM     19  C   UNL     1      -0.466  -0.761  -2.019  0.00  0.00    +0.004 A 
ATOM     20  C   UNL     1      -0.309  -2.115  -1.792  0.00  0.00    +0.006 A 
ATOM     21  C   UNL     1      -0.143  -2.585  -0.502  0.00  0.00    -0.027 A 
ATOM     22  C   UNL     1      -0.133  -1.700   0.560  0.00  0.00    +0.009 A 
ATOM     23  C   UNL     1      -0.286  -0.345   0.332  0.00  0.00    -0.047 A 
ATOM     24  C   UNL     1      -0.270   0.620   1.490  0.00  0.00    +0.044 C 
ENDBRANCH  15  21
ENDBRANCH   1  15
TORSDOF 4
