REMARK  Name = ZINC64410434
REMARK  6 active torsions:
REMARK  status: ('A' for Active; 'I' for Inactive)
REMARK    1  A    between atoms: C_1  and  C_2
REMARK    2  A    between atoms: C_2  and  O_3
REMARK    3  A    between atoms: O_3  and  C_4
REMARK    4  A    between atoms: C_9  and  N_12
REMARK    5  A    between atoms: C_13  and  C_15
REMARK    6  A    between atoms: N_18  and  C_21
REMARK                            x       y       z     vdW  Elec       q    Type
REMARK                         _______ _______ _______ _____ _____    ______ ____
ROOT
ATOM      1  C   UNL     1       1.048  -5.034  -8.370  0.00  0.00    +0.077 C 
ATOM      2  C   UNL     1      -0.397  -5.521  -8.228  0.00  0.00    +0.028 C 
ATOM      3  C   UNL     1      -0.920  -5.953  -9.600  0.00  0.00    +0.087 C 
ATOM      4  N   UNL     1      -0.072  -7.027 -10.134  0.00  0.00    -0.275 NA
ATOM      5  C   UNL     1       1.310  -6.567 -10.322  0.00  0.00    +0.087 C 
ATOM      6  C   UNL     1       1.900  -6.154  -8.972  0.00  0.00    +0.028 C 
ENDROOT
BRANCH   4   7
ATOM      7  C   UNL     1      -0.625  -7.561 -11.385  0.00  0.00    +0.239 C 
ATOM      8  C   UNL     1       0.208  -8.759 -11.783  0.00  0.00    +0.255 C 
ATOM      9  O   UNL     1       0.326  -9.704 -11.029  0.00  0.00    -0.272 OA
ATOM     10  N   UNL     1       0.812  -8.764 -12.973  0.00  0.00    -0.281 N 
ATOM     11  C   UNL     1       0.700  -7.748 -13.812  0.00  0.00    +0.057 A 
ATOM     12  C   UNL     1       1.353  -7.785 -15.064  0.00  0.00    +0.025 A 
ATOM     13  C   UNL     1       1.242  -6.748 -15.926  0.00  0.00    +0.002 A 
ATOM     14  C   UNL     1       0.489  -5.597 -15.638  0.00  0.00    +0.002 A 
ATOM     15  C   UNL     1      -0.175  -5.458 -14.470  0.00  0.00    +0.027 A 
ATOM     16  C   UNL     1      -0.103  -6.544 -13.478  0.00  0.00    +0.058 A 
ATOM     17  N   UNL     1      -0.729  -6.448 -12.341  0.00  0.00    -0.360 N 
ATOM     18  H   UNL     1      -1.252  -5.659 -12.129  0.00  0.00    +0.162 HD
ATOM     19  H   UNL     1       1.347  -9.531 -13.229  0.00  0.00    +0.155 HD
ENDBRANCH   4   7
BRANCH   1  21
ATOM     20  N   UNL     1       0.993  -3.693  -6.291  0.00  0.00    -0.312 N 
ATOM     21  C   UNL     1       1.589  -4.663  -7.013  0.00  0.00    +0.216 C 
ATOM     22  O   UNL     1       2.561  -5.238  -6.570  0.00  0.00    -0.276 OA
ATOM     23  H   UNL     1       0.216  -3.234  -6.645  0.00  0.00    +0.149 HD
BRANCH  20  29
ATOM     24  C   UNL     1       0.652  -2.100  -1.151  0.00  0.00    +0.403 C 
ATOM     25  O   UNL     1       0.299  -2.926  -0.333  0.00  0.00    -0.226 OA
ATOM     26  N   UNL     1       1.269  -2.494  -2.283  0.00  0.00    -0.267 N 
ATOM     27  C   UNL     1       1.708  -1.507  -3.279  0.00  0.00    +0.113 C 
ATOM     28  C   UNL     1       1.127  -1.891  -4.643  0.00  0.00    +0.041 C 
ATOM     29  C   UNL     1       1.519  -3.333  -4.972  0.00  0.00    +0.076 C 
ATOM     30  C   UNL     1       0.937  -4.276  -3.916  0.00  0.00    +0.041 C 
ATOM     31  C   UNL     1       1.521  -3.918  -2.541  0.00  0.00    +0.113 C 
BRANCH  24  32
ATOM     32  O   UNL     1       0.428  -0.791  -0.927  0.00  0.00    -0.451 OA
BRANCH  32  34
ATOM     33  C   UNL     1      -0.396   1.074   0.370  0.00  0.00    +0.048 C 
ATOM     34  C   UNL     1      -0.230  -0.445   0.293  0.00  0.00    +0.230 C 
ENDBRANCH  32  34
ENDBRANCH  24  32
ENDBRANCH  20  29
ENDBRANCH   1  21
TORSDOF 5
