REMARK  Name = ZINC25048750
REMARK  9 active torsions:
REMARK  status: ('A' for Active; 'I' for Inactive)
REMARK    1  A    between atoms: C_1  and  C_2
REMARK    2  A    between atoms: C_3  and  C_29
REMARK    3  A    between atoms: N_9  and  C_28
REMARK    4  A    between atoms: C_10  and  S_12
REMARK    5  A    between atoms: S_12  and  C_13
REMARK    6  A    between atoms: C_13  and  C_15
REMARK    7  A    between atoms: C_13  and  C_16
REMARK    8  A    between atoms: N_18  and  C_19
REMARK    9  A    between atoms: C_22  and  C_25
REMARK                            x       y       z     vdW  Elec       q    Type
REMARK                         _______ _______ _______ _____ _____    ______ ____
ROOT
ATOM      1  C   UNL     1       2.408  -4.242  -0.258  0.00  0.00    +0.137 C 
ATOM      2  C   UNL     1       2.207  -4.636  -1.723  0.00  0.00    +0.029 C 
ENDROOT
BRANCH   1   3
ATOM      3  C   UNL     1       2.400  -2.740  -0.137  0.00  0.00    +0.230 C 
ATOM      4  O   UNL     1       3.445  -2.125  -0.144  0.00  0.00    -0.274 OA
ATOM      5  N   UNL     1       1.231  -2.079  -0.020  0.00  0.00    -0.285 N 
ATOM      6  H   UNL     1       0.288  -2.640   0.062  0.00  0.00    +0.155 HD
BRANCH   5   7
ATOM      7  C   UNL     1       1.216  -0.685  -0.004  0.00  0.00    +0.033 A 
ATOM      8  C   UNL     1       2.255   0.013   0.603  0.00  0.00    +0.024 A 
ATOM      9  C   UNL     1       2.244   1.390   0.620  0.00  0.00    +0.015 A 
ATOM     10  C   UNL     1       1.188   2.086   0.026  0.00  0.00    +0.037 A 
ATOM     11  C   UNL     1       0.146   1.382  -0.583  0.00  0.00    +0.015 A 
ATOM     12  C   UNL     1       0.163   0.005  -0.596  0.00  0.00    +0.024 A 
BRANCH  10  13
ATOM     13  C   UNL     1       1.173   3.562   0.043  0.00  0.00    +0.242 C 
ATOM     14  O   UNL     1       2.080   4.173   0.574  0.00  0.00    -0.270 OA
ATOM     15  N   UNL     1       0.153   4.232  -0.530  0.00  0.00    -0.325 N 
ATOM     16  H   UNL     1       0.141   5.332  -0.517  0.00  0.00    +0.145 HD
ATOM     17  H   UNL     1      -0.668   3.679  -1.010  0.00  0.00    +0.145 HD
ENDBRANCH  10  13
ENDBRANCH   5   7
ENDBRANCH   1   3
BRANCH   1  18
ATOM     18  S   UNL     1       3.994  -4.886   0.329  0.00  0.00    -0.075 S 
BRANCH  18  28
ATOM     19  C   UNL     1       3.649 -11.838   0.238  0.00  0.00    +0.045 C 
ATOM     20  C   UNL     1       2.735 -10.690  -0.104  0.00  0.00    -0.026 A 
ATOM     21  C   UNL     1       1.495 -10.921  -0.559  0.00  0.00    -0.008 A 
ATOM     22  S   UNL     1       0.834  -9.285  -0.811  0.00  0.00    -0.073 S 
ATOM     23  C   UNL     1       2.243  -8.336  -0.297  0.00  0.00    +0.117 A 
ATOM     24  C   UNL     1       3.188  -9.319   0.055  0.00  0.00    +0.075 A 
ATOM     25  C   UNL     1       4.450  -8.830   0.518  0.00  0.00    +0.263 A 
ATOM     26  O   UNL     1       5.331  -9.607   0.846  0.00  0.00    -0.267 OA
ATOM     27  N   UNL     1       4.656  -7.501   0.580  0.00  0.00    -0.290 N 
ATOM     28  C   UNL     1       3.680  -6.616   0.222  0.00  0.00    +0.173 A 
ATOM     29  N   UNL     1       2.508  -7.039  -0.207  0.00  0.00    -0.216 NA
ATOM     30  C   UNL     1       5.949  -6.995   1.046  0.00  0.00    +0.154 C 
ATOM     31  C   UNL     1       0.821 -12.248  -0.799  0.00  0.00    +0.052 C 
ENDBRANCH  18  28
ENDBRANCH   1  18
TORSDOF 5
