REMARK  Name = ZINC06782984
REMARK  11 active torsions:
REMARK  status: ('A' for Active; 'I' for Inactive)
REMARK    1  A    between atoms: C_1  and  C_2
REMARK    2  A    between atoms: C_2  and  C_3
REMARK    3  A    between atoms: C_3  and  C_4
REMARK    4  A    between atoms: C_4  and  C_5
REMARK    5  A    between atoms: C_5  and  C_6
REMARK    6  A    between atoms: C_6  and  N_7
REMARK    7  A    between atoms: C_10  and  C_11
REMARK    8  A    between atoms: N_12  and  C_13
REMARK    9  A    between atoms: C_14  and  C_26
REMARK   10  A    between atoms: N_15  and  C_25
REMARK   11  A    between atoms: N_16  and  C_19
REMARK                            x       y       z     vdW  Elec       q    Type
REMARK                         _______ _______ _______ _____ _____    ______ ____
ROOT
ATOM      1  N   UNL     1       2.535  -3.047  -4.409  0.00  0.00    -0.260 N 
ATOM      2  C   UNL     1       1.780  -3.451  -5.451  0.00  0.00    +0.269 A 
ATOM      3  O   UNL     1       0.614  -3.112  -5.542  0.00  0.00    -0.267 OA
ATOM      4  C   UNL     1       2.392  -4.306  -6.473  0.00  0.00    +0.122 A 
ATOM      5  C   UNL     1       3.732  -4.661  -6.314  0.00  0.00    +0.266 A 
ATOM      6  N   UNL     1       4.415  -4.202  -5.223  0.00  0.00    -0.274 N 
ATOM      7  C   UNL     1       3.823  -3.416  -4.310  0.00  0.00    +0.332 A 
ATOM      8  O   UNL     1       4.473  -3.028  -3.359  0.00  0.00    -0.246 OA
ATOM      9  O   UNL     1       4.344  -5.445  -7.223  0.00  0.00    -0.267 OA
ATOM     10  H   UNL     1       5.346  -4.446  -5.108  0.00  0.00    +0.173 HD
ENDROOT
BRANCH   4  11
ATOM     11  C   UNL     1       1.619  -4.775  -7.628  0.00  0.00    +0.130 C 
ATOM     12  N   UNL     1       2.183  -5.535  -8.526  0.00  0.00    -0.247 NA
BRANCH  12  13
ATOM     13  C   UNL     1       1.460  -5.973  -9.606  0.00  0.00    +0.150 A 
ATOM     14  C   UNL     1       1.911  -6.771 -10.614  0.00  0.00    +0.064 A 
ATOM     15  N   UNL     1       0.888  -6.979 -11.494  0.00  0.00    -0.282 N 
ATOM     16  N   UNL     1      -0.253  -6.301 -11.050  0.00  0.00    -0.215 N 
ATOM     17  C   UNL     1       0.050  -5.676  -9.893  0.00  0.00    +0.298 A 
ATOM     18  O   UNL     1      -0.700  -4.994  -9.219  0.00  0.00    -0.264 OA
ATOM     19  C   UNL     1       0.971  -7.785 -12.715  0.00  0.00    +0.171 C 
ATOM     20  C   UNL     1       3.305  -7.331 -10.737  0.00  0.00    +0.067 C 
BRANCH  16  21
ATOM     21  C   UNL     1      -1.495  -6.280 -11.691  0.00  0.00    +0.067 A 
ATOM     22  C   UNL     1      -2.152  -5.074 -11.897  0.00  0.00    +0.028 A 
ATOM     23  C   UNL     1      -3.379  -5.057 -12.531  0.00  0.00    +0.002 A 
ATOM     24  C   UNL     1      -3.953  -6.239 -12.960  0.00  0.00    +0.000 A 
ATOM     25  C   UNL     1      -3.302  -7.442 -12.756  0.00  0.00    +0.002 A 
ATOM     26  C   UNL     1      -2.072  -7.466 -12.128  0.00  0.00    +0.028 A 
ENDBRANCH  16  21
ENDBRANCH  12  13
ENDBRANCH   4  11
BRANCH   1  27
ATOM     27  C   UNL     1       1.945  -2.192  -3.376  0.00  0.00    +0.130 C 
BRANCH  27  28
ATOM     28  C   UNL     1       2.132  -0.723  -3.762  0.00  0.00    +0.022 C 
BRANCH  28  29
ATOM     29  C   UNL     1       1.516   0.170  -2.683  0.00  0.00    +0.002 C 
BRANCH  29  30
ATOM     30  C   UNL     1       1.703   1.639  -3.069  0.00  0.00    -0.000 C 
BRANCH  30  32
ATOM     31  C   UNL     1       1.274   4.001  -2.376  0.00  0.00    +0.004 C 
ATOM     32  C   UNL     1       1.087   2.532  -1.990  0.00  0.00    -0.003 C 
ENDBRANCH  30  32
ENDBRANCH  29  30
ENDBRANCH  28  29
ENDBRANCH  27  28
ENDBRANCH   1  27
TORSDOF 8
