REMARK  Name = ZINC04893112
REMARK  4 active torsions:
REMARK  status: ('A' for Active; 'I' for Inactive)
REMARK    1  A    between atoms: C_6  and  C_7
REMARK    2  A    between atoms: C_8  and  C_9
REMARK    3  A    between atoms: N_11  and  C_12
REMARK    4  A    between atoms: C_15  and  N_19
REMARK                            x       y       z     vdW  Elec       q    Type
REMARK                         _______ _______ _______ _____ _____    ______ ____
ROOT
ATOM      1  C   UNL     1       1.241   2.094  -0.004  0.00  0.00    +0.241 C 
ATOM      2  O   UNL     1       2.304   1.500  -0.014  0.00  0.00    -0.270 OA
ATOM      3  N   UNL     1       1.222   3.441   0.009  0.00  0.00    -0.281 N 
ATOM      4  H   UNL     1       0.378   3.915  -0.050  0.00  0.00    +0.155 HD
ENDROOT
BRANCH   3   5
ATOM      5  C   UNL     1       2.421   4.156   0.107  0.00  0.00    +0.052 A 
ATOM      6  C   UNL     1       3.572   3.671  -0.498  0.00  0.00    +0.027 A 
ATOM      7  C   UNL     1       4.754   4.379  -0.400  0.00  0.00    +0.034 A 
ATOM      8  C   UNL     1       4.791   5.572   0.300  0.00  0.00    +0.128 A 
ATOM      9  C   UNL     1       3.647   6.059   0.903  0.00  0.00    +0.054 A 
ATOM     10  C   UNL     1       2.460   5.357   0.805  0.00  0.00    +0.064 A 
ATOM     11 CL   UNL     1       1.021   5.973   1.557  0.00  0.00    -0.082 Cl
BRANCH   8  12
ATOM     12  N   UNL     1       6.059   6.328   0.402  0.00  0.00    +0.056 N 
ATOM     13  O   UNL     1       7.068   5.901  -0.130  0.00  0.00    -0.126 OA
ATOM     14  O   UNL     1       6.094   7.379   1.018  0.00  0.00    -0.126 OA
ENDBRANCH   8  12
ENDBRANCH   3   5
BRANCH   1  16
ATOM     15  C   UNL     1       0.003  -0.004  -0.021  0.00  0.00    +0.013 C 
ATOM     16  C   UNL     1      -0.016   1.345  -0.008  0.00  0.00    +0.068 C 
BRANCH  15  22
ATOM     17  C   UNL     1      -2.483  -0.078  -0.008  0.00  0.00    +0.011 A 
ATOM     18  C   UNL     1      -3.663  -0.789  -0.017  0.00  0.00    +0.039 A 
ATOM     19  C   UNL     1      -3.640  -2.176  -0.031  0.00  0.00    +0.123 A 
ATOM     20  C   UNL     1      -2.432  -2.856  -0.041  0.00  0.00    +0.039 A 
ATOM     21  C   UNL     1      -1.244  -2.156  -0.038  0.00  0.00    +0.011 A 
ATOM     22  C   UNL     1      -1.260  -0.757  -0.024  0.00  0.00    -0.025 A 
ATOM     23  F   UNL     1      -4.801  -2.868  -0.033  0.00  0.00    -0.205 F 
ENDBRANCH  15  22
ENDBRANCH   1  16
TORSDOF 4
