REMARK  Name = ZINC47804545
REMARK  6 active torsions:
REMARK  status: ('A' for Active; 'I' for Inactive)
REMARK    1  A    between atoms: C_1  and  C_2
REMARK    2  A    between atoms: C_8  and  N_10
REMARK    3  A    between atoms: N_13  and  C_14
REMARK    4  A    between atoms: C_18  and  S_20
REMARK    5  A    between atoms: S_20  and  N_23
REMARK    6  A    between atoms: N_28  and  C_29
REMARK                            x       y       z     vdW  Elec       q    Type
REMARK                         _______ _______ _______ _____ _____    ______ ____
ROOT
ATOM      1  C   UNL     1       0.879   0.732   5.860  0.00  0.00    +0.037 A 
ATOM      2  C   UNL     1       2.248   0.503   5.829  0.00  0.00    +0.023 A 
ATOM      3  C   UNL     1       3.007   0.706   6.965  0.00  0.00    +0.004 A 
ATOM      4  C   UNL     1       2.405   1.136   8.133  0.00  0.00    +0.029 A 
ATOM      5  C   UNL     1       1.042   1.365   8.168  0.00  0.00    +0.114 A 
ATOM      6  C   UNL     1       0.278   1.170   7.033  0.00  0.00    +0.052 A 
ENDROOT
BRANCH   1  10
ATOM      7  N   UNL     1      -1.628   1.196   3.300  0.00  0.00    -0.296 N 
ATOM      8  C   UNL     1      -0.942   1.333   4.452  0.00  0.00    +0.304 C 
ATOM      9  O   UNL     1      -1.269   2.183   5.257  0.00  0.00    -0.253 OA
ATOM     10  N   UNL     1       0.107   0.528   4.711  0.00  0.00    -0.269 N 
ATOM     11  H   UNL     1      -1.367   0.518   2.657  0.00  0.00    +0.151 HD
ATOM     12  H   UNL     1       0.327  -0.193   4.101  0.00  0.00    +0.156 HD
BRANCH   7  19
ATOM     13  C   UNL     1      -4.220   0.069   2.669  0.00  0.00    +0.009 C 
ATOM     14  C   UNL     1      -3.720   1.373   2.045  0.00  0.00    +0.006 C 
ATOM     15  C   UNL     1      -2.980   1.064   0.742  0.00  0.00    +0.005 C 
ATOM     16  C   UNL     1      -2.479   2.368   0.118  0.00  0.00    +0.000 C 
ATOM     17  C   UNL     1      -1.528   3.067   1.091  0.00  0.00    +0.002 C 
ATOM     18  C   UNL     1      -2.268   3.376   2.394  0.00  0.00    +0.022 C 
ATOM     19  C   UNL     1      -2.768   2.072   3.018  0.00  0.00    +0.077 C 
ENDBRANCH   7  19
ENDBRANCH   1  10
BRANCH   5  20
ATOM     20  S   UNL     1       0.279   1.912   9.659  0.00  0.00    +0.100 S 
ATOM     21  O   UNL     1      -1.087   1.529   9.580  0.00  0.00    -0.146 OA
ATOM     22  O   UNL     1       1.126   1.500  10.723  0.00  0.00    -0.146 OA
BRANCH  20  23
ATOM     23  N   UNL     1       0.308   3.568   9.645  0.00  0.00    -0.118 NA
ATOM     24  C   UNL     1      -0.194   4.232  10.634  0.00  0.00    +0.119 C 
ATOM     25  C   UNL     1      -0.834   3.633  11.872  0.00  0.00    +0.075 C 
ATOM     26  C   UNL     1      -1.858   4.710  12.301  0.00  0.00    +0.026 C 
ATOM     27  C   UNL     1      -1.252   6.005  11.724  0.00  0.00    +0.106 C 
ATOM     28  N   UNL     1      -0.234   5.596  10.747  0.00  0.00    -0.320 N 
ATOM     29  C   UNL     1       0.620   6.518   9.995  0.00  0.00    +0.130 C 
ENDBRANCH  20  23
ENDBRANCH   5  20
TORSDOF 4
