REMARK  Name = ZINC09284061
REMARK  6 active torsions:
REMARK  status: ('A' for Active; 'I' for Inactive)
REMARK    1  A    between atoms: C_1  and  C_2
REMARK    2  A    between atoms: C_2  and  C_4
REMARK    3  A    between atoms: C_2  and  O_10
REMARK    4  A    between atoms: O_10  and  C_11
REMARK    5  A    between atoms: C_11  and  C_13
REMARK    6  A    between atoms: C_26  and  C_27
REMARK                            x       y       z     vdW  Elec       q    Type
REMARK                         _______ _______ _______ _____ _____    ______ ____
ROOT
ATOM      1  C   UNL     1       2.526  -1.154  -2.390  0.00  0.00    +0.073 A 
ATOM      2  C   UNL     1       2.851  -0.244  -3.488  0.00  0.00    +0.015 A 
ATOM      3  C   UNL     1       2.547   1.119  -3.424  0.00  0.00    +0.011 A 
ATOM      4  C   UNL     1       2.869   1.931  -4.472  0.00  0.00    +0.001 A 
ATOM      5  C   UNL     1       3.496   1.418  -5.605  0.00  0.00    +0.002 A 
ATOM      6  C   UNL     1       3.806   0.096  -5.699  0.00  0.00    +0.028 A 
ATOM      7  C   UNL     1       3.490  -0.773  -4.638  0.00  0.00    +0.072 A 
ATOM      8  N   UNL     1       3.780  -2.070  -4.701  0.00  0.00    -0.247 NA
ATOM      9  C   UNL     1       3.499  -2.922  -3.721  0.00  0.00    +0.072 A 
ATOM     10  C   UNL     1       2.871  -2.490  -2.541  0.00  0.00    -0.007 A 
ATOM     11  C   UNL     1       2.682  -3.659  -1.605  0.00  0.00    +0.043 C 
ATOM     12  C   UNL     1       3.265  -4.883  -2.323  0.00  0.00    +0.042 C 
ATOM     13  C   UNL     1       3.760  -4.373  -3.654  0.00  0.00    -0.021 C 
ATOM     14  C   UNL     1       4.351  -5.112  -4.609  0.00  0.00    +0.018 C 
ENDROOT
BRANCH  14  15
ATOM     15  C   UNL     1       4.428  -6.575  -4.466  0.00  0.00    +0.029 A 
ATOM     16  C   UNL     1       3.256  -7.339  -4.397  0.00  0.00    +0.132 A 
ATOM     17  C   UNL     1       3.338  -8.711  -4.263  0.00  0.00    +0.039 A 
ATOM     18  C   UNL     1       4.574  -9.331  -4.198  0.00  0.00    +0.004 A 
ATOM     19  C   UNL     1       5.736  -8.584  -4.266  0.00  0.00    +0.021 A 
ATOM     20  C   UNL     1       5.672  -7.212  -4.405  0.00  0.00    +0.051 A 
ATOM     21 CL   UNL     1       7.133  -6.277  -4.497  0.00  0.00    -0.083 Cl
ATOM     22  F   UNL     1       2.049  -6.735  -4.460  0.00  0.00    -0.205 F 
ENDBRANCH  14  15
BRANCH   1  23
ATOM     23  C   UNL     1       1.861  -0.669  -1.163  0.00  0.00    +0.341 C 
ATOM     24  O   UNL     1       2.526  -0.275  -0.226  0.00  0.00    -0.245 OA
BRANCH  23  25
ATOM     25  O   UNL     1       0.516  -0.662  -1.083  0.00  0.00    -0.449 OA
BRANCH  25  27
ATOM     26  C   UNL     1      -0.291   1.329   0.023  0.00  0.00    +0.062 C 
ATOM     27  C   UNL     1      -0.060  -0.179   0.133  0.00  0.00    +0.259 C 
BRANCH  27  28
ATOM     28  C   UNL     1      -1.375  -0.873   0.376  0.00  0.00    +0.261 C 
ATOM     29  O   UNL     1      -1.824  -1.631  -0.457  0.00  0.00    -0.271 OA
ATOM     30  N   UNL     1      -2.053  -0.651   1.519  0.00  0.00    -0.237 N 
ATOM     31  C   UNL     1      -3.230  -1.271   1.736  0.00  0.00    +0.303 C 
ATOM     32  O   UNL     1      -3.679  -2.031   0.901  0.00  0.00    -0.253 OA
ATOM     33  N   UNL     1      -3.908  -1.048   2.880  0.00  0.00    -0.313 N 
ATOM     34  H   UNL     1      -1.694  -0.044   2.185  0.00  0.00    +0.159 HD
ATOM     35  H   UNL     1      -3.549  -0.442   3.546  0.00  0.00    +0.146 HD
ATOM     36  H   UNL     1      -4.755  -1.495   3.036  0.00  0.00    +0.146 HD
ENDBRANCH  27  28
ENDBRANCH  25  27
ENDBRANCH  23  25
ENDBRANCH   1  23
TORSDOF 5
