REMARK  Name = ZINC36532568
REMARK  16 active torsions:
REMARK  status: ('A' for Active; 'I' for Inactive)
REMARK    1  A    between atoms: C_1  and  C_2
REMARK    2  A    between atoms: C_2  and  C_41
REMARK    3  A    between atoms: C_8  and  C_40
REMARK    4  A    between atoms: C_10  and  O_39
REMARK    5  A    between atoms: C_12  and  C_28
REMARK    6  A    between atoms: C_14  and  C_27
REMARK    7  A    between atoms: C_18  and  C_26
REMARK    8  A    between atoms: C_22  and  O_25
REMARK    9  A    between atoms: C_28  and  C_29
REMARK   10  A    between atoms: C_28  and  C_30
REMARK   11  A    between atoms: C_28  and  O_38
REMARK   12  A    between atoms: C_30  and  C_32
REMARK   13  A    between atoms: C_33  and  C_34
REMARK   14  A    between atoms: C_34  and  C_35
REMARK   15  A    between atoms: C_34  and  C_36
REMARK   16  A    between atoms: C_34  and  O_37
REMARK                            x       y       z     vdW  Elec       q    Type
REMARK                         _______ _______ _______ _____ _____    ______ ____
ROOT
ATOM      1  C   UNL     1       0.629   0.876  -0.407  0.00  0.00    +0.024 C 
ATOM      2  C   UNL     1       0.366  -0.628  -0.303  0.00  0.00    +0.052 C 
ATOM      3  C   UNL     1      -1.116  -0.947  -0.192  0.00  0.00    -0.052 C 
ATOM      4  C   UNL     1      -2.030  -0.046  -0.369  0.00  0.00    -0.026 C 
ATOM      5  C   UNL     1      -3.510  -0.321  -0.215  0.00  0.00    +0.032 C 
ATOM      6  C   UNL     1      -3.682  -1.556   0.672  0.00  0.00    +0.013 C 
ATOM      7  C   UNL     1      -5.100  -1.833   1.048  0.00  0.00    -0.019 C 
ATOM      8  C   UNL     1      -6.097  -1.908  -0.116  0.00  0.00    +0.039 C 
ATOM      9  C   UNL     1      -7.347  -2.573   0.509  0.00  0.00    +0.122 C 
ATOM     10  C   UNL     1      -6.864  -3.308   1.772  0.00  0.00    +0.063 C 
ATOM     11  C   UNL     1      -5.324  -3.158   1.810  0.00  0.00    -0.011 C 
ATOM     12  C   UNL     1      -4.689  -4.314   1.041  0.00  0.00    +0.082 C 
ATOM     13  C   UNL     1      -3.235  -4.001   0.755  0.00  0.00    +0.141 C 
ATOM     14  O   UNL     1      -2.376  -4.796   1.065  0.00  0.00    -0.297 OA
ATOM     15  C   UNL     1      -2.905  -2.709   0.056  0.00  0.00    +0.040 C 
ATOM     16  C   UNL     1      -1.426  -2.390   0.133  0.00  0.00    +0.055 C 
ATOM     17  C   UNL     1      -0.787  -2.734   1.440  0.00  0.00    +0.031 C 
ATOM     18  C   UNL     1       0.361  -2.153   1.797  0.00  0.00    +0.157 C 
ATOM     19  C   UNL     1       1.026  -1.151   0.962  0.00  0.00    +0.206 C 
ATOM     20  O   UNL     1       2.123  -0.728   1.282  0.00  0.00    -0.288 OA
ATOM     21  C   UNL     1      -3.247  -2.870  -1.431  0.00  0.00    +0.020 C 
ATOM     22  C   UNL     1      -4.796  -3.073   3.246  0.00  0.00    +0.012 C 
ATOM     23  C   UNL     1      -5.561  -0.702   1.988  0.00  0.00    +0.012 C 
ATOM     24  C   UNL     1       0.969  -1.330  -1.526  0.00  0.00    +0.024 C 
ENDROOT
BRANCH  18  25
ATOM     25  O   UNL     1       0.932  -2.513   2.979  0.00  0.00    -0.504 OA
ATOM     26  H   UNL     1       1.760  -2.052   3.172  0.00  0.00    +0.292 HD
ENDBRANCH  18  25
BRANCH  10  27
ATOM     27  C   UNL     1      -7.298  -4.771   1.741  0.00  0.00    +0.130 C 
ATOM     28  C   UNL     1      -6.734  -5.497   2.964  0.00  0.00    +0.050 C 
BRANCH  27  29
ATOM     29  C   UNL     1      -8.803  -4.850   1.761  0.00  0.00    +0.187 C 
ATOM     30  O   UNL     1      -9.452  -3.942   2.238  0.00  0.00    -0.290 OA
BRANCH  29  31
ATOM     31  C   UNL     1      -9.482  -6.020   1.205  0.00  0.00    +0.048 C 
ATOM     32  C   UNL     1     -10.815  -6.089   1.222  0.00  0.00    +0.010 C 
BRANCH  32  33
ATOM     33  C   UNL     1     -11.514  -7.295   0.649  0.00  0.00    +0.079 C 
ATOM     34  C   UNL     1     -12.345  -7.969   1.742  0.00  0.00    +0.045 C 
ATOM     35  C   UNL     1     -12.432  -6.857  -0.493  0.00  0.00    +0.045 C 
BRANCH  33  36
ATOM     36  O   UNL     1     -10.543  -8.218   0.152  0.00  0.00    -0.385 OA
ATOM     37  H   UNL     1     -10.922  -9.020  -0.232  0.00  0.00    +0.211 HD
ENDBRANCH  33  36
ENDBRANCH  32  33
ENDBRANCH  29  31
ENDBRANCH  27  29
BRANCH  27  38
ATOM     38  O   UNL     1      -6.805  -5.389   0.551  0.00  0.00    -0.381 OA
ATOM     39  H   UNL     1      -7.122  -4.980  -0.266  0.00  0.00    +0.211 HD
ENDBRANCH  27  38
ENDBRANCH  10  27
BRANCH   9  40
ATOM     40  O   UNL     1      -8.325  -1.589   0.844  0.00  0.00    -0.391 OA
ATOM     41  H   UNL     1      -8.653  -1.087   0.085  0.00  0.00    +0.210 HD
ENDBRANCH   9  40
TORSDOF 8
