REMARK  Name = ZINC63502736
REMARK  7 active torsions:
REMARK  status: ('A' for Active; 'I' for Inactive)
REMARK    1  A    between atoms: C_6  and  N_10
REMARK    2  A    between atoms: C_14  and  C_17
REMARK    3  A    between atoms: N_19  and  C_20
REMARK    4  A    between atoms: C_20  and  C_21
REMARK    5  A    between atoms: C_21  and  C_22
REMARK    6  A    between atoms: C_25  and  S_28
REMARK    7  A    between atoms: S_28  and  N_31
REMARK                            x       y       z     vdW  Elec       q    Type
REMARK                         _______ _______ _______ _____ _____    ______ ____
ROOT
ATOM      1  C   UNL     1       3.127  -6.293  -2.509  0.00  0.00    +0.217 C 
ATOM      2  O   UNL     1       2.353  -6.679  -1.658  0.00  0.00    -0.275 OA
ATOM      3  N   UNL     1       3.526  -7.131  -3.486  0.00  0.00    -0.315 N 
ATOM      4  H   UNL     1       4.146  -6.823  -4.166  0.00  0.00    +0.149 HD
ENDROOT
BRANCH   1   9
ATOM      5  N   UNL     1       3.523  -2.758  -1.251  0.00  0.00    -0.265 NA
ATOM      6  C   UNL     1       3.112  -2.030  -2.459  0.00  0.00    +0.088 C 
ATOM      7  C   UNL     1       3.721  -2.702  -3.692  0.00  0.00    +0.016 C 
ATOM      8  C   UNL     1       3.245  -4.156  -3.763  0.00  0.00    +0.015 C 
ATOM      9  C   UNL     1       3.643  -4.878  -2.472  0.00  0.00    +0.089 C 
ATOM     10  C   UNL     1       3.036  -4.143  -1.275  0.00  0.00    +0.100 C 
BRANCH   5  16
ATOM     11  C   UNL     1      -0.016   1.344   0.009  0.00  0.00    +0.002 A 
ATOM     12  C   UNL     1       1.158   2.118   0.002  0.00  0.00    +0.002 A 
ATOM     13  C   UNL     1       2.389   1.570  -0.013  0.00  0.00    +0.027 A 
ATOM     14  C   UNL     1       2.533   0.108  -0.022  0.00  0.00    +0.061 A 
ATOM     15  N   UNL     1       3.569  -0.680  -0.036  0.00  0.00    -0.351 N 
ATOM     16  C   UNL     1       3.071  -2.062  -0.039  0.00  0.00    +0.252 C 
ATOM     17  N   UNL     1       1.606  -1.974  -0.024  0.00  0.00    -0.351 N 
ATOM     18  C   UNL     1       1.290  -0.712  -0.014  0.00  0.00    +0.061 A 
ATOM     19  C   UNL     1       0.002  -0.004   0.002  0.00  0.00    +0.027 A 
ATOM     20  H   UNL     1       4.499  -0.405  -0.045  0.00  0.00    +0.163 HD
ATOM     21  H   UNL     1       0.987  -2.721  -0.022  0.00  0.00    +0.163 HD
ENDBRANCH   5  16
ENDBRANCH   1   9
BRANCH   3  22
ATOM     22  C   UNL     1       3.025  -8.507  -3.521  0.00  0.00    +0.109 C 
BRANCH  22  23
ATOM     23  C   UNL     1       3.629  -9.239  -4.722  0.00  0.00    +0.054 C 
BRANCH  23  24
ATOM     24  C   UNL     1       3.114 -10.655  -4.758  0.00  0.00    -0.046 A 
ATOM     25  C   UNL     1       3.795 -11.656  -4.091  0.00  0.00    +0.005 A 
ATOM     26  C   UNL     1       3.322 -12.954  -4.125  0.00  0.00    +0.029 A 
ATOM     27  C   UNL     1       2.168 -13.252  -4.824  0.00  0.00    +0.105 A 
ATOM     28  C   UNL     1       1.486 -12.251  -5.490  0.00  0.00    +0.029 A 
ATOM     29  C   UNL     1       1.956 -10.951  -5.453  0.00  0.00    +0.005 A 
BRANCH  27  30
ATOM     30  S   UNL     1       1.566 -14.907  -4.867  0.00  0.00    +0.056 S 
ATOM     31  O   UNL     1       0.770 -15.020  -6.040  0.00  0.00    -0.153 OA
ATOM     32  O   UNL     1       2.682 -15.752  -4.620  0.00  0.00    -0.153 OA
BRANCH  30  33
ATOM     33  N   UNL     1       0.540 -15.089  -3.580  0.00  0.00    -0.204 NA
ATOM     34  H   UNL     1      -0.203 -15.710  -3.636  0.00  0.00    +0.144 HD
ATOM     35  H   UNL     1       0.682 -14.575  -2.770  0.00  0.00    +0.144 HD
ENDBRANCH  30  33
ENDBRANCH  27  30
ENDBRANCH  23  24
ENDBRANCH  22  23
ENDBRANCH   3  22
TORSDOF 7
