REMARK  Name = ZINC09777333
REMARK  14 active torsions:
REMARK  status: ('A' for Active; 'I' for Inactive)
REMARK    1  A    between atoms: C_1  and  C_2
REMARK    2  A    between atoms: C_2  and  C_3
REMARK    3  A    between atoms: C_3  and  N_4
REMARK    4  A    between atoms: N_4  and  C_5
REMARK    5  A    between atoms: N_4  and  C_8
REMARK    6  A    between atoms: C_5  and  C_6
REMARK    7  A    between atoms: C_6  and  C_7
REMARK    8  A    between atoms: C_8  and  C_9
REMARK    9  A    between atoms: C_9  and  N_10
REMARK   10  A    between atoms: C_11  and  C_35
REMARK   11  A    between atoms: C_19  and  C_25
REMARK   12  A    between atoms: N_27  and  C_28
REMARK   13  A    between atoms: C_31  and  C_34
REMARK   14  A    between atoms: N_37  and  C_38
REMARK                            x       y       z     vdW  Elec       q    Type
REMARK                         _______ _______ _______ _____ _____    ______ ____
ROOT
ATOM      1  N   UNL     1      -0.307  -2.707   5.616  0.00  0.00    -0.288 N 
ATOM      2  C   UNL     1      -0.586  -4.031   6.255  0.00  0.00    +0.198 C 
ATOM      3  C   UNL     1      -0.161  -3.786   7.670  0.00  0.00    +0.127 C 
ATOM      4  C   UNL     1      -1.111  -2.872   8.421  0.00  0.00    +0.009 C 
ATOM      5  C   UNL     1      -0.611  -2.760   9.643  0.00  0.00    +0.004 C 
ATOM      6  C   UNL     1       0.692  -3.568   9.615  0.00  0.00    +0.155 C 
ATOM      7  O   UNL     1       0.341  -4.654   8.659  0.00  0.00    -0.358 OA
ATOM      8  C   UNL     1       1.639  -2.640   8.759  0.00  0.00    +0.123 C 
ATOM      9  C   UNL     1       1.164  -2.984   7.348  0.00  0.00    +0.128 C 
ATOM     10  C   UNL     1       0.664  -2.046   6.328  0.00  0.00    +0.223 C 
ATOM     11  O   UNL     1       1.038  -0.905   6.152  0.00  0.00    -0.275 OA
ENDROOT
BRANCH   8  12
ATOM     12  C   UNL     1       1.413  -1.187   9.088  0.00  0.00    +0.224 C 
ATOM     13  O   UNL     1       1.031  -0.423   8.227  0.00  0.00    -0.275 OA
ATOM     14  N   UNL     1       1.637  -0.736  10.338  0.00  0.00    -0.285 N 
ATOM     15  H   UNL     1       2.005  -1.331  11.010  0.00  0.00    +0.155 HD
BRANCH  14  16
ATOM     16  C   UNL     1       1.337   0.591  10.667  0.00  0.00    +0.033 A 
ATOM     17  C   UNL     1       0.853   0.902  11.931  0.00  0.00    +0.023 A 
ATOM     18  C   UNL     1       0.558   2.212  12.253  0.00  0.00    +0.005 A 
ATOM     19  C   UNL     1       0.745   3.214  11.318  0.00  0.00    -0.050 A 
ATOM     20  C   UNL     1       1.226   2.908  10.058  0.00  0.00    +0.005 A 
ATOM     21  C   UNL     1       1.528   1.600   9.732  0.00  0.00    +0.023 A 
ATOM     22  C   UNL     1       0.422   4.643  11.672  0.00  0.00    +0.044 C 
ENDBRANCH  14  16
ENDBRANCH   8  12
BRANCH   2  23
ATOM     23  C   UNL     1       0.243  -5.119   5.623  0.00  0.00    +0.237 C 
ATOM     24  O   UNL     1       1.228  -4.833   4.976  0.00  0.00    -0.274 OA
ATOM     25  N   UNL     1      -0.110  -6.411   5.778  0.00  0.00    -0.311 N 
ATOM     26  H   UNL     1      -0.897  -6.640   6.296  0.00  0.00    +0.149 HD
BRANCH  25  27
ATOM     27  C   UNL     1       0.697  -7.469   5.164  0.00  0.00    +0.073 C 
ATOM     28  C   UNL     1       0.251  -7.673   3.714  0.00  0.00    +0.022 C 
ATOM     29  C   UNL     1       1.093  -8.778   3.073  0.00  0.00    +0.002 C 
ATOM     30  C   UNL     1       0.904 -10.081   3.853  0.00  0.00    +0.000 C 
ATOM     31  C   UNL     1       1.349  -9.877   5.302  0.00  0.00    +0.002 C 
ATOM     32  C   UNL     1       0.508  -8.772   5.944  0.00  0.00    +0.022 C 
ENDBRANCH  25  27
ENDBRANCH   2  23
BRANCH   1  33
ATOM     33  C   UNL     1      -0.965  -2.196   4.410  0.00  0.00    +0.090 C 
BRANCH  33  34
ATOM     34  C   UNL     1      -0.176  -2.634   3.175  0.00  0.00    -0.060 C 
BRANCH  34  35
ATOM     35  N   UNL     1      -0.837  -2.122   1.966  0.00  0.00    +0.381 N 
ATOM     36  H   UNL     1      -1.800  -2.422   1.956  0.00  0.00    -0.082 HD
BRANCH  35  37
ATOM     37  C   UNL     1      -0.782  -0.654   1.963  0.00  0.00    -0.079 C 
BRANCH  37  39
ATOM     38  C   UNL     1      -1.629   1.411   0.839  0.00  0.00    +0.002 C 
ATOM     39  C   UNL     1      -1.573  -0.117   0.768  0.00  0.00    -0.022 C 
ENDBRANCH  37  39
ENDBRANCH  35  37
BRANCH  35  40
ATOM     40  C   UNL     1      -0.149  -2.640   0.776  0.00  0.00    -0.079 C 
BRANCH  40  41
ATOM     41  C   UNL     1      -0.315  -4.160   0.713  0.00  0.00    -0.022 C 
ATOM     42  C   UNL     1       0.285  -4.684  -0.594  0.00  0.00    +0.002 C 
ENDBRANCH  40  41
ENDBRANCH  35  40
ENDBRANCH  34  35
ENDBRANCH  33  34
ENDBRANCH   1  33
TORSDOF 11
