REMARK  Name = ZINC31118634
REMARK  10 active torsions:
REMARK  status: ('A' for Active; 'I' for Inactive)
REMARK    1  A    between atoms: C_1  and  C_2
REMARK    2  A    between atoms: C_13  and  C_15
REMARK    3  A    between atoms: C_15  and  C_16
REMARK    4  A    between atoms: N_18  and  C_19
REMARK    5  A    between atoms: C_19  and  C_20
REMARK    6  A    between atoms: C_20  and  C_21
REMARK    7  A    between atoms: C_21  and  C_22
REMARK    8  A    between atoms: C_23  and  C_35
REMARK    9  A    between atoms: C_24  and  N_34
REMARK   10  A    between atoms: N_25  and  C_27
REMARK                            x       y       z     vdW  Elec       q    Type
REMARK                         _______ _______ _______ _____ _____    ______ ____
ROOT
ATOM      1  C   UNL     1       5.927  -2.659   2.794  0.00  0.00    +0.104 C 
ENDROOT
BRANCH   1   4
ATOM      2  C   UNL     1       7.215  -3.345   4.746  0.00  0.00    +0.215 C 
ATOM      3  O   UNL     1       7.306  -4.452   4.260  0.00  0.00    -0.276 OA
ATOM      4  N   UNL     1       6.545  -2.375   4.092  0.00  0.00    -0.315 N 
ATOM      5  H   UNL     1       6.462  -1.371   4.533  0.00  0.00    +0.149 HD
BRANCH   2   6
ATOM      6  C   UNL     1       7.850  -3.053   6.081  0.00  0.00    +0.123 C 
BRANCH   6  19
ATOM      7  C   UNL     1       6.347  -7.440   6.304  0.00  0.00    +0.109 C 
ATOM      8  C   UNL     1       7.380  -6.380   6.021  0.00  0.00    +0.217 C 
ATOM      9  O   UNL     1       8.070  -6.455   5.027  0.00  0.00    -0.276 OA
ATOM     10  N   UNL     1       7.537  -5.348   6.874  0.00  0.00    -0.270 N 
ATOM     11  C   UNL     1       6.748  -5.259   8.015  0.00  0.00    +0.079 C 
ATOM     12  C   UNL     1       7.253  -4.709   9.125  0.00  0.00    +0.023 C 
ATOM     13  C   UNL     1       8.631  -4.182   9.107  0.00  0.00    -0.019 A 
ATOM     14  C   UNL     1       9.286  -3.849  10.292  0.00  0.00    +0.008 A 
ATOM     15  C   UNL     1      10.579  -3.368  10.246  0.00  0.00    +0.001 A 
ATOM     16  C   UNL     1      11.220  -3.209   9.031  0.00  0.00    +0.000 A 
ATOM     17  C   UNL     1      10.568  -3.520   7.849  0.00  0.00    +0.006 A 
ATOM     18  C   UNL     1       9.278  -3.994   7.880  0.00  0.00    -0.019 A 
ATOM     19  C   UNL     1       8.542  -4.314   6.603  0.00  0.00    +0.120 C 
ENDBRANCH   6  19
ENDBRANCH   2   6
ENDBRANCH   1   4
BRANCH   1  20
ATOM     20  C   UNL     1       5.236  -1.398   2.272  0.00  0.00    +0.025 C 
BRANCH  20  21
ATOM     21  C   UNL     1       4.590  -1.694   0.917  0.00  0.00    +0.060 C 
BRANCH  21  22
ATOM     22  C   UNL     1       3.909  -0.452   0.403  0.00  0.00    +0.083 A 
ATOM     23  C   UNL     1       4.503   0.543  -0.409  0.00  0.00    +0.114 A 
ATOM     24  C   UNL     1       3.527   1.506  -0.652  0.00  0.00    +0.138 A 
ATOM     25  N   UNL     1       2.404   1.104  -0.014  0.00  0.00    -0.217 N 
ATOM     26  N   UNL     1       2.673  -0.107   0.634  0.00  0.00    -0.168 NA
BRANCH  25  27
ATOM     27  C   UNL     1       1.180   1.787   0.000  0.00  0.00    +0.068 A 
ATOM     28  C   UNL     1      -0.013   1.076   0.008  0.00  0.00    +0.030 A 
ATOM     29  C   UNL     1      -1.218   1.750   0.017  0.00  0.00    +0.040 A 
ATOM     30  C   UNL     1      -1.237   3.135   0.030  0.00  0.00    +0.124 A 
ATOM     31  C   UNL     1      -0.048   3.846   0.022  0.00  0.00    +0.040 A 
ATOM     32  C   UNL     1       1.159   3.175   0.008  0.00  0.00    +0.030 A 
ATOM     33  F   UNL     1      -2.417   3.793   0.044  0.00  0.00    -0.205 F 
ENDBRANCH  25  27
BRANCH  24  34
ATOM     34  N   UNL     1       3.677   2.656  -1.403  0.00  0.00    -0.342 N 
ATOM     35  H   UNL     1       2.830   3.347  -1.526  0.00  0.00    +0.144 HD
ATOM     36  H   UNL     1       4.643   2.880  -1.878  0.00  0.00    +0.144 HD
ENDBRANCH  24  34
BRANCH  23  37
ATOM     37  C   UNL     1       5.851   0.557  -0.890  0.00  0.00    +0.104 C 
ATOM     38  N   UNL     1       6.921   0.569  -1.271  0.00  0.00    -0.191 NA
ENDBRANCH  23  37
ENDBRANCH  21  22
ENDBRANCH  20  21
ENDBRANCH   1  20
TORSDOF 9
