REMARK  Name = ZINC66149253
REMARK  8 active torsions:
REMARK  status: ('A' for Active; 'I' for Inactive)
REMARK    1  A    between atoms: C_1  and  C_2
REMARK    2  A    between atoms: N_8  and  C_9
REMARK    3  A    between atoms: C_9  and  C_10
REMARK    4  A    between atoms: C_10  and  C_11
REMARK    5  A    between atoms: C_11  and  N_12
REMARK    6  A    between atoms: N_15  and  C_16
REMARK    7  A    between atoms: N_15  and  C_17
REMARK    8  A    between atoms: N_20  and  C_23
REMARK                            x       y       z     vdW  Elec       q    Type
REMARK                         _______ _______ _______ _____ _____    ______ ____
ROOT
ATOM      1  N   UNL     1       0.983  -0.177   6.069  0.00  0.00    -0.299 N 
ATOM      2  C   UNL     1       0.579   0.209   7.295  0.00  0.00    +0.302 C 
ATOM      3  O   UNL     1      -0.429   0.877   7.421  0.00  0.00    -0.253 OA
ATOM      4  N   UNL     1       1.292  -0.145   8.382  0.00  0.00    -0.286 N 
ATOM      5  C   UNL     1       2.507  -0.950   8.230  0.00  0.00    +0.134 C 
ATOM      6  H   UNL     1       1.787  -0.710   5.968  0.00  0.00    +0.150 HD
ENDROOT
BRANCH   4   7
ATOM      7  C   UNL     1       0.853   0.274   9.715  0.00  0.00    +0.074 C 
ATOM      8  C   UNL     1       1.949   1.118  10.373  0.00  0.00    +0.004 C 
ATOM      9  C   UNL     1       1.517   1.486  11.795  0.00  0.00    -0.077 C 
ATOM     10  N   UNL     1       1.304   0.263  12.577  0.00  0.00    +0.382 N 
ATOM     11  C   UNL     1       0.206  -0.517  11.993  0.00  0.00    -0.077 C 
ATOM     12  C   UNL     1       0.587  -0.962  10.579  0.00  0.00    +0.004 C 
ATOM     13  H   UNL     1       2.148  -0.291  12.572  0.00  0.00    -0.081 HD
BRANCH  10  14
ATOM     14  C   UNL     1       0.966   0.621  13.961  0.00  0.00    -0.064 C 
ATOM     15  C   UNL     1       2.118   1.417  14.580  0.00  0.00    +0.013 C 
ATOM     16  C   UNL     1       1.791   1.718  16.045  0.00  0.00    +0.158 C 
ATOM     17  O   UNL     1       1.564   0.492  16.743  0.00  0.00    -0.380 OA
ATOM     18  C   UNL     1       0.468  -0.273  16.238  0.00  0.00    +0.158 C 
ATOM     19  C   UNL     1       0.742  -0.654  14.780  0.00  0.00    +0.013 C 
ENDBRANCH  10  14
ENDBRANCH   4   7
BRANCH   1  20
ATOM     20  C   UNL     1       0.207   0.209   4.887  0.00  0.00    +0.104 C 
BRANCH  20  21
ATOM     21  C   UNL     1       0.877  -0.353   3.631  0.00  0.00    +0.000 C 
BRANCH  21  22
ATOM     22  C   UNL     1       0.067   0.050   2.397  0.00  0.00    -0.077 C 
BRANCH  22  29
ATOM     23  C   UNL     1      -0.019   1.526   0.010  0.00  0.00    -0.013 C 
ATOM     24  C   UNL     1       0.002  -0.004   0.002  0.00  0.00    -0.072 C 
ATOM     25  C   UNL     1       0.717  -0.497  -1.258  0.00  0.00    -0.016 C 
ATOM     26  C   UNL     1       0.735  -2.028  -1.262  0.00  0.00    -0.003 C 
ATOM     27  C   UNL     1       1.410  -2.524   0.020  0.00  0.00    -0.019 C 
ATOM     28  C   UNL     1       0.669  -1.956   1.232  0.00  0.00    -0.078 C 
ATOM     29  N   UNL     1       0.711  -0.490   1.192  0.00  0.00    +0.381 N 
ATOM     30  H   UNL     1       1.671  -0.182   1.159  0.00  0.00    -0.081 HD
ENDBRANCH  22  29
ENDBRANCH  21  22
ENDBRANCH  20  21
ENDBRANCH   1  20
TORSDOF 6
