REMARK  Name = ZINC31635241
REMARK  7 active torsions:
REMARK  status: ('A' for Active; 'I' for Inactive)
REMARK    1  A    between atoms: C_1  and  C_2
REMARK    2  A    between atoms: C_2  and  C_3
REMARK    3  A    between atoms: C_3  and  C_24
REMARK    4  A    between atoms: N_6  and  C_10
REMARK    5  A    between atoms: C_10  and  C_11
REMARK    6  A    between atoms: N_13  and  C_14
REMARK    7  A    between atoms: C_19  and  N_20
REMARK                            x       y       z     vdW  Elec       q    Type
REMARK                         _______ _______ _______ _____ _____    ______ ____
ROOT
ATOM      1  C   UNL     1      -0.052   5.668   0.016  0.00  0.00    +0.138 C 
ATOM      2  C   UNL     1      -0.029   6.196   1.437  0.00  0.00    +0.251 C 
ATOM      3  O   UNL     1      -0.865   6.019   2.297  0.00  0.00    -0.272 OA
ATOM      4  N   UNL     1       1.114   6.902   1.545  0.00  0.00    -0.215 N 
ATOM      5  C   UNL     1       1.809   6.894   0.402  0.00  0.00    +0.310 C 
ATOM      6  O   UNL     1       2.873   7.462   0.254  0.00  0.00    -0.252 OA
ATOM      7  N   UNL     1       1.198   6.186  -0.566  0.00  0.00    -0.281 N 
ATOM      8  H   UNL     1       1.454   5.958  -1.611  0.00  0.00    +0.152 HD
ENDROOT
BRANCH   1   9
ATOM      9  C   UNL     1      -0.054   4.161   0.011  0.00  0.00    -0.015 A 
ATOM     10  C   UNL     1       1.143   3.469   0.004  0.00  0.00    +0.009 A 
ATOM     11  C   UNL     1       1.142   2.087  -0.001  0.00  0.00    +0.039 A 
ATOM     12  C   UNL     1      -0.058   1.395   0.001  0.00  0.00    +0.123 A 
ATOM     13  C   UNL     1      -1.256   2.090   0.002  0.00  0.00    +0.039 A 
ATOM     14  C   UNL     1      -1.252   3.472   0.012  0.00  0.00    +0.009 A 
ATOM     15  F   UNL     1      -0.059   0.044  -0.004  0.00  0.00    -0.205 F 
ENDBRANCH   1   9
BRANCH   1  17
ATOM     16  C   UNL     1      -1.176   7.734  -0.827  0.00  0.00    +0.007 C 
ATOM     17  C   UNL     1      -1.267   6.209  -0.740  0.00  0.00    +0.037 C 
ENDBRANCH   1  17
BRANCH   4  18
ATOM     18  C   UNL     1       1.542   7.593   2.764  0.00  0.00    +0.214 C 
BRANCH  18  19
ATOM     19  C   UNL     1       2.373   6.659   3.605  0.00  0.00    +0.235 C 
ATOM     20  O   UNL     1       2.586   5.527   3.224  0.00  0.00    -0.274 OA
ATOM     21  N   UNL     1       2.879   7.081   4.781  0.00  0.00    -0.282 N 
ATOM     22  H   UNL     1       2.748   8.127   5.092  0.00  0.00    +0.155 HD
BRANCH  21  23
ATOM     23  C   UNL     1       3.572   6.187   5.605  0.00  0.00    +0.064 A 
ATOM     24  C   UNL     1       4.366   5.195   5.044  0.00  0.00    +0.027 A 
ATOM     25  C   UNL     1       5.053   4.318   5.860  0.00  0.00    +0.022 A 
ATOM     26  C   UNL     1       4.942   4.420   7.236  0.00  0.00    +0.043 A 
ATOM     27  C   UNL     1       4.148   5.404   7.798  0.00  0.00    +0.054 A 
ATOM     28  C   UNL     1       3.463   6.287   6.986  0.00  0.00    +0.149 A 
ATOM     29 CL   UNL     1       5.802   3.312   8.259  0.00  0.00    -0.083 Cl
BRANCH  28  30
ATOM     30  N   UNL     1       2.613   7.339   7.587  0.00  0.00    +0.058 N 
ATOM     31  O   UNL     1       2.595   7.490   8.796  0.00  0.00    -0.126 OA
ATOM     32  O   UNL     1       1.931   8.053   6.874  0.00  0.00    -0.126 OA
ENDBRANCH  28  30
ENDBRANCH  21  23
ENDBRANCH  18  19
ENDBRANCH   4  18
TORSDOF 6
