REMARK  Name = ZINC67100297
REMARK  5 active torsions:
REMARK  status: ('A' for Active; 'I' for Inactive)
REMARK    1  A    between atoms: C_1  and  N_2
REMARK    2  A    between atoms: N_2  and  C_3
REMARK    3  A    between atoms: C_3  and  C_4
REMARK    4  A    between atoms: N_12  and  C_13
REMARK    5  A    between atoms: C_13  and  C_14
REMARK                            x       y       z     vdW  Elec       q    Type
REMARK                         _______ _______ _______ _____ _____    ______ ____
ROOT
ATOM      1  C   UNL     1      -0.018   1.461   0.010  0.00  0.00    +0.133 C 
ATOM      2  N   UNL     1       0.002  -0.004   0.002  0.00  0.00    -0.288 N 
ATOM      3  C   UNL     1       0.000  -0.672  -1.169  0.00  0.00    +0.302 C 
ATOM      4  O   UNL     1       0.017  -1.887  -1.175  0.00  0.00    -0.253 OA
ATOM      5  N   UNL     1      -0.020   0.009  -2.332  0.00  0.00    -0.295 N 
ATOM      6  H   UNL     1      -0.033   0.978  -2.327  0.00  0.00    +0.151 HD
ENDROOT
BRANCH   2   7
ATOM      7  C   UNL     1       0.024  -0.743   1.267  0.00  0.00    +0.112 C 
BRANCH   7   8
ATOM      8  C   UNL     1      -1.411  -1.020   1.720  0.00  0.00    +0.006 C 
ATOM      9  C   UNL     1      -2.110   0.303   2.038  0.00  0.00    +0.005 C 
ATOM     10  C   UNL     1      -3.544   0.026   2.491  0.00  0.00    +0.000 C 
ATOM     11  C   UNL     1      -3.522  -0.852   3.744  0.00  0.00    +0.000 C 
ATOM     12  C   UNL     1      -2.823  -2.175   3.427  0.00  0.00    +0.000 C 
ATOM     13  C   UNL     1      -1.389  -1.898   2.973  0.00  0.00    +0.005 C 
ENDBRANCH   7   8
ENDBRANCH   2   7
BRANCH   5  14
ATOM     14  C   UNL     1      -0.022  -0.717  -3.605  0.00  0.00    +0.141 C 
BRANCH  14  15
ATOM     15  C   UNL     1      -0.047   0.268  -4.745  0.00  0.00    -0.027 A 
ATOM     16  C   UNL     1      -1.256   0.707  -5.251  0.00  0.00    +0.009 A 
ATOM     17  C   UNL     1      -1.286   1.611  -6.297  0.00  0.00    +0.050 A 
ATOM     18  C   UNL     1      -0.099   2.077  -6.836  0.00  0.00    +0.162 A 
ATOM     19  C   UNL     1       1.115   1.637  -6.328  0.00  0.00    +0.162 A 
ATOM     20  C   UNL     1       1.142   0.735  -5.278  0.00  0.00    +0.054 A 
ATOM     21  O   UNL     1       2.280   2.103  -6.865  0.00  0.00    -0.488 OA
ATOM     22  C   UNL     1       2.565   1.680  -8.200  0.00  0.00    +0.232 C 
ATOM     23  C   UNL     1       1.869   2.578  -9.211  0.00  0.00    +0.082 C 
ATOM     24  C   UNL     1       0.354   2.481  -9.125  0.00  0.00    +0.232 C 
ATOM     25  O   UNL     1      -0.114   2.971  -7.867  0.00  0.00    -0.488 OA
ENDBRANCH  14  15
ENDBRANCH   5  14
TORSDOF 4
