REMARK  Name = ZINC09584785
REMARK  14 active torsions:
REMARK  status: ('A' for Active; 'I' for Inactive)
REMARK    1  A    between atoms: C_1  and  C_2
REMARK    2  A    between atoms: C_2  and  C_3
REMARK    3  A    between atoms: C_3  and  C_4
REMARK    4  A    between atoms: C_4  and  N_5
REMARK    5  A    between atoms: N_5  and  C_6
REMARK    6  A    between atoms: C_7  and  N_18
REMARK    7  A    between atoms: N_8  and  C_15
REMARK    8  A    between atoms: C_15  and  C_16
REMARK    9  A    between atoms: C_16  and  C_17
REMARK   10  A    between atoms: C_19  and  C_21
REMARK   11  A    between atoms: C_21  and  O_22
REMARK   12  A    between atoms: O_22  and  C_23
REMARK   13  A    between atoms: C_23  and  C_25
REMARK   14  A    between atoms: C_32  and  C_35
REMARK                            x       y       z     vdW  Elec       q    Type
REMARK                         _______ _______ _______ _____ _____    ______ ____
ROOT
ATOM      1  N   UNL     1       1.175   3.471  -0.021  0.00  0.00    -0.261 N 
ATOM      2  C   UNL     1       0.033   4.182   0.079  0.00  0.00    +0.258 C 
ATOM      3  O   UNL     1      -1.021   3.612   0.275  0.00  0.00    -0.272 OA
ENDROOT
BRANCH   1   4
ATOM      4  C   UNL     1       1.133   2.061  -0.009  0.00  0.00    +0.140 A 
ATOM      5  C   UNL     1       1.696   1.351   1.032  0.00  0.00    +0.127 A 
ATOM      6  N   UNL     1       1.638  -0.023   1.015  0.00  0.00    -0.280 N 
ATOM      7  C   UNL     1       1.040  -0.667  -0.003  0.00  0.00    +0.331 A 
ATOM      8  O   UNL     1       0.999  -1.883   0.001  0.00  0.00    -0.246 OA
ATOM      9  N   UNL     1       0.486   0.008  -1.026  0.00  0.00    -0.273 N 
ATOM     10  H   UNL     1       0.047  -0.495  -1.770  0.00  0.00    +0.173 HD
ATOM     11  C   UNL     1       0.515   1.355  -1.058  0.00  0.00    +0.277 A 
ATOM     12  O   UNL     1       0.009   1.958  -1.990  0.00  0.00    -0.266 OA
BRANCH   5  13
ATOM     13  N   UNL     1       2.302   2.009   2.075  0.00  0.00    -0.343 N 
ATOM     14  H   UNL     1       2.628   1.509   2.840  0.00  0.00    +0.144 HD
ATOM     15  H   UNL     1       2.404   2.973   2.047  0.00  0.00    +0.144 HD
ENDBRANCH   5  13
BRANCH   6  16
ATOM     16  C   UNL     1       2.231  -0.790   2.114  0.00  0.00    +0.128 C 
BRANCH  16  17
ATOM     17  C   UNL     1       1.182  -1.013   3.205  0.00  0.00    +0.018 C 
ATOM     18  C   UNL     1       1.801  -1.814   4.352  0.00  0.00    +0.005 C 
ENDBRANCH  16  17
ENDBRANCH   6  16
ENDBRANCH   1   4
BRANCH   1  19
ATOM     19  C   UNL     1       2.461   4.165  -0.141  0.00  0.00    +0.114 C 
BRANCH  19  20
ATOM     20  C   UNL     1       2.834   4.293  -1.619  0.00  0.00    +0.019 C 
BRANCH  20  22
ATOM     21  C   UNL     1       4.550   5.145  -3.223  0.00  0.00    +0.004 C 
ATOM     22  C   UNL     1       4.176   5.017  -1.745  0.00  0.00    -0.002 C 
ENDBRANCH  20  22
ENDBRANCH  19  20
ENDBRANCH   1  19
BRANCH   2  23
ATOM     23  C   UNL     1       0.064   5.683  -0.054  0.00  0.00    +0.328 C 
BRANCH  23  24
ATOM     24  O   UNL     1      -1.281   6.210   0.089  0.00  0.00    -0.451 OA
BRANCH  24  25
ATOM     25  C   UNL     1      -1.428   7.547  -0.004  0.00  0.00    +0.346 C 
ATOM     26  O   UNL     1      -0.458   8.254  -0.201  0.00  0.00    -0.244 OA
BRANCH  25  27
ATOM     27  C   UNL     1      -2.756   8.149   0.130  0.00  0.00    +0.097 A 
ATOM     28  C   UNL     1      -3.119   9.483   0.073  0.00  0.00    +0.026 A 
ATOM     29  C   UNL     1      -4.458   9.803   0.228  0.00  0.00    -0.036 A 
ATOM     30  C   UNL     1      -5.319   8.763   0.439  0.00  0.00    -0.006 A 
ATOM     31  S   UNL     1      -4.328   7.355   0.419  0.00  0.00    -0.086 S 
ATOM     32  C   UNL     1      -6.800   8.845   0.642  0.00  0.00    +0.043 C 
ATOM     33  C   UNL     1      -7.167  10.304   0.950  0.00  0.00    +0.009 C 
ATOM     34  C   UNL     1      -6.482  11.211  -0.076  0.00  0.00    -0.009 C 
ATOM     35  C   UNL     1      -4.974  11.239   0.178  0.00  0.00    +0.039 C 
ATOM     36  C   UNL     1      -7.043  12.629   0.045  0.00  0.00    +0.008 C 
ENDBRANCH  25  27
ENDBRANCH  24  25
ENDBRANCH  23  24
ENDBRANCH   2  23
TORSDOF 11
