REMARK  Name = ZINC27228135
REMARK  8 active torsions:
REMARK  status: ('A' for Active; 'I' for Inactive)
REMARK    1  A    between atoms: C_1  and  C_2
REMARK    2  A    between atoms: C_2  and  C_3
REMARK    3  A    between atoms: C_2  and  C_4
REMARK    4  A    between atoms: C_4  and  C_6
REMARK    5  A    between atoms: C_4  and  N_20
REMARK    6  A    between atoms: N_8  and  C_9
REMARK    7  A    between atoms: C_13  and  N_15
REMARK    8  A    between atoms: C_21  and  C_23
REMARK                            x       y       z     vdW  Elec       q    Type
REMARK                         _______ _______ _______ _____ _____    ______ ____
ROOT
ATOM      1  C   UNL     1       0.065   1.231   0.005  0.00  0.00    +0.162 C 
ENDROOT
BRANCH   1   2
ATOM      2  C   UNL     1      -0.649   1.726  -1.226  0.00  0.00    +0.238 C 
ATOM      3  O   UNL     1      -1.548   2.533  -1.122  0.00  0.00    -0.273 OA
ATOM      4  N   UNL     1      -0.288   1.272  -2.443  0.00  0.00    -0.284 N 
ATOM      5  H   UNL     1       0.582   0.608  -2.546  0.00  0.00    +0.155 HD
BRANCH   4   6
ATOM      6  C   UNL     1      -1.022   1.646  -3.575  0.00  0.00    +0.035 A 
ATOM      7  C   UNL     1      -0.379   1.818  -4.794  0.00  0.00    +0.023 A 
ATOM      8  C   UNL     1      -1.103   2.181  -5.913  0.00  0.00    +0.004 A 
ATOM      9  C   UNL     1      -2.466   2.387  -5.820  0.00  0.00    +0.028 A 
ATOM     10  C   UNL     1      -3.114   2.223  -4.603  0.00  0.00    +0.071 A 
ATOM     11  C   UNL     1      -2.390   1.852  -3.479  0.00  0.00    +0.051 A 
BRANCH  10  12
ATOM     12  N   UNL     1      -4.497   2.431  -4.510  0.00  0.00    -0.200 N 
ATOM     13  C   UNL     1      -5.341   2.792  -5.501  0.00  0.00    +0.250 A 
ATOM     14  N   UNL     1      -6.538   2.874  -4.982  0.00  0.00    -0.116 NA
ATOM     15  N   UNL     1      -6.509   2.590  -3.730  0.00  0.00    -0.023 NA
ATOM     16  N   UNL     1      -5.305   2.303  -3.366  0.00  0.00    -0.039 NA
ENDBRANCH  10  12
ENDBRANCH   4   6
ENDBRANCH   1   2
BRANCH   1  17
ATOM     17  N   UNL     1      -0.508   1.869   1.192  0.00  0.00    -0.303 N 
ATOM     18  C   UNL     1      -0.419   1.263   2.393  0.00  0.00    +0.220 C 
ATOM     19  O   UNL     1       0.135   0.189   2.490  0.00  0.00    -0.275 OA
ATOM     20  H   UNL     1      -1.010   2.844   1.104  0.00  0.00    +0.149 HD
BRANCH  18  21
ATOM     21  C   UNL     1      -1.008   1.920   3.614  0.00  0.00    +0.048 C 
ATOM     22  C   UNL     1      -2.512   2.119   3.411  0.00  0.00    +0.019 C 
ATOM     23  C   UNL     1      -3.110   2.786   4.651  0.00  0.00    -0.009 C 
ATOM     24  C   UNL     1      -2.874   1.896   5.873  0.00  0.00    +0.007 C 
ATOM     25  C   UNL     1      -1.371   1.697   6.076  0.00  0.00    -0.009 C 
ATOM     26  C   UNL     1      -0.772   1.030   4.836  0.00  0.00    +0.019 C 
ATOM     27  C   UNL     1      -0.702   3.055   6.298  0.00  0.00    +0.007 C 
ATOM     28  C   UNL     1      -0.938   3.945   5.076  0.00  0.00    -0.009 C 
ATOM     29  C   UNL     1      -2.441   4.144   4.872  0.00  0.00    +0.007 C 
ATOM     30  C   UNL     1      -0.340   3.278   3.836  0.00  0.00    +0.019 C 
ENDBRANCH  18  21
ENDBRANCH   1  17
BRANCH   1  32
ATOM     31  C   UNL     1       1.723   3.098  -0.076  0.00  0.00    +0.009 C 
ATOM     32  C   UNL     1       1.552   1.578  -0.094  0.00  0.00    +0.012 C 
ATOM     33  C   UNL     1       2.298   0.967   1.094  0.00  0.00    +0.009 C 
ENDBRANCH   1  32
TORSDOF 6
