REMARK  Name = ZINC14019624
REMARK  9 active torsions:
REMARK  status: ('A' for Active; 'I' for Inactive)
REMARK    1  A    between atoms: C_3  and  C_6
REMARK    2  A    between atoms: C_6  and  N_56
REMARK    3  A    between atoms: C_7  and  C_8
REMARK    4  A    between atoms: C_7  and  N_56
REMARK    5  A    between atoms: C_13  and  C_14
REMARK    6  A    between atoms: C_13  and  N_56
REMARK    7  A    between atoms: N_16  and  C_17
REMARK    8  A    between atoms: C_19  and  S_24
REMARK    9  A    between atoms: S_24  and  N_27
REMARK                            x       y       z     vdW  Elec       q    Type
REMARK                         _______ _______ _______ _____ _____    ______ ____
ROOT
ATOM      1  C   UNL     1      -0.294   1.135   0.357  0.00  0.00    +0.201 C 
ATOM      2  O   UNL     1      -0.548  -0.031   0.570  0.00  0.00    -0.278 OA
ATOM      3  N   UNL     1       0.961   1.503   0.031  0.00  0.00    -0.286 N 
ATOM      4  H   UNL     1       1.159   2.431  -0.168  0.00  0.00    +0.155 HD
ENDROOT
BRANCH   3   5
ATOM      5  C   UNL     1       1.980   0.544  -0.020  0.00  0.00    +0.054 A 
ATOM      6  C   UNL     1       1.668  -0.792  -0.231  0.00  0.00    +0.053 A 
ATOM      7  C   UNL     1       2.675  -1.736  -0.284  0.00  0.00    +0.107 A 
ATOM      8  C   UNL     1       3.994  -1.352  -0.120  0.00  0.00    +0.030 A 
ATOM      9  C   UNL     1       4.309  -0.023   0.094  0.00  0.00    +0.024 A 
ATOM     10  C   UNL     1       3.306   0.927   0.145  0.00  0.00    +0.062 A 
ATOM     11 CL   UNL     1       3.701   2.596   0.414  0.00  0.00    -0.082 Cl
BRANCH   7  12
ATOM     12  S   UNL     1       2.280  -3.431  -0.557  0.00  0.00    +0.061 S 
ATOM     13  O   UNL     1       1.025  -3.453  -1.223  0.00  0.00    -0.153 OA
ATOM     14  O   UNL     1       3.443  -4.037  -1.103  0.00  0.00    -0.153 OA
BRANCH  12  15
ATOM     15  N   UNL     1       2.040  -4.122   0.929  0.00  0.00    -0.177 NA
ATOM     16  C   UNL     1       3.075  -4.766   1.752  0.00  0.00    +0.109 C 
ATOM     17  C   UNL     1       2.386  -5.282   3.032  0.00  0.00    +0.018 C 
ATOM     18  C   UNL     1       0.902  -5.410   2.599  0.00  0.00    +0.018 C 
ATOM     19  C   UNL     1       0.752  -4.200   1.642  0.00  0.00    +0.109 C 
ENDBRANCH  12  15
ENDBRANCH   7  12
ENDBRANCH   3   5
BRANCH   1  20
ATOM     20  C   UNL     1      -1.382   2.174   0.451  0.00  0.00    +0.020 C 
BRANCH  20  21
ATOM     21  N   UNL     1      -2.604   1.531   0.979  0.00  0.00    +0.395 N 
ATOM     22  H   UNL     1      -2.710   0.607   0.544  0.00  0.00    -0.080 HD
BRANCH  21  23
ATOM     23  C   UNL     1      -2.494   1.363   2.444  0.00  0.00    -0.002 C 
BRANCH  23  26
ATOM     24  C   UNL     1      -4.919  -1.202   3.504  0.00  0.00    +0.041 A 
ATOM     25  C   UNL     1      -3.648  -0.828   3.009  0.00  0.00    +0.042 A 
ATOM     26  C   UNL     1      -3.643   0.515   2.924  0.00  0.00    +0.089 A 
ATOM     27  O   UNL     1      -4.835   0.971   3.343  0.00  0.00    -0.470 OA
ATOM     28  C   UNL     1      -5.614  -0.065   3.691  0.00  0.00    +0.195 A 
ENDBRANCH  23  26
ENDBRANCH  21  23
BRANCH  21  29
ATOM     29  C   UNL     1      -3.788   2.354   0.654  0.00  0.00    -0.002 C 
BRANCH  29  30
ATOM     30  C   UNL     1      -4.152   2.126  -0.791  0.00  0.00    +0.089 A 
ATOM     31  C   UNL     1      -5.041   1.224  -1.245  0.00  0.00    +0.042 A 
ATOM     32  C   UNL     1      -5.069   1.351  -2.653  0.00  0.00    +0.041 A 
ATOM     33  C   UNL     1      -4.196   2.322  -2.975  0.00  0.00    +0.195 A 
ATOM     34  O   UNL     1      -3.648   2.792  -1.843  0.00  0.00    -0.470 OA
ENDBRANCH  29  30
ENDBRANCH  21  29
ENDBRANCH  20  21
ENDBRANCH   1  20
TORSDOF 9
