REMARK  Name = ZINC17445753
REMARK  9 active torsions:
REMARK  status: ('A' for Active; 'I' for Inactive)
REMARK    1  A    between atoms: C_1  and  C_2
REMARK    2  A    between atoms: C_2  and  C_4
REMARK    3  A    between atoms: C_7  and  S_10
REMARK    4  A    between atoms: S_10  and  N_13
REMARK    5  A    between atoms: N_13  and  C_14
REMARK    6  A    between atoms: C_14  and  C_15
REMARK    7  A    between atoms: C_18  and  C_21
REMARK    8  A    between atoms: N_23  and  N_24
REMARK    9  A    between atoms: C_25  and  C_27
REMARK                            x       y       z     vdW  Elec       q    Type
REMARK                         _______ _______ _______ _____ _____    ______ ____
ROOT
ATOM      1  C   UNL     1       2.227   4.890   3.692  0.00  0.00    -0.032 A 
ATOM      2  C   UNL     1       2.805   6.147   3.716  0.00  0.00    +0.006 A 
ATOM      3  C   UNL     1       2.733   6.921   4.856  0.00  0.00    +0.013 A 
ATOM      4  C   UNL     1       2.085   6.429   5.990  0.00  0.00    +0.038 A 
ATOM      5  C   UNL     1       1.509   5.158   5.961  0.00  0.00    +0.013 A 
ATOM      6  C   UNL     1       1.583   4.396   4.813  0.00  0.00    +0.006 A 
ENDROOT
BRANCH   4   7
ATOM      7  C   UNL     1       2.009   7.251   7.216  0.00  0.00    +0.260 C 
ATOM      8  O   UNL     1       1.444   6.820   8.203  0.00  0.00    -0.269 OA
ATOM      9  N   UNL     1       2.567   8.478   7.241  0.00  0.00    -0.230 N 
ATOM     10  H   UNL     1       3.018   8.822   6.454  0.00  0.00    +0.173 HD
BRANCH   9  11
ATOM     11  N   UNL     1       2.494   9.257   8.403  0.00  0.00    -0.230 N 
ATOM     12  C   UNL     1       3.052  10.484   8.428  0.00  0.00    +0.267 C 
ATOM     13  O   UNL     1       3.618  10.915   7.441  0.00  0.00    -0.268 OA
ATOM     14  H   UNL     1       2.043   8.913   9.190  0.00  0.00    +0.173 HD
BRANCH  12  15
ATOM     15  C   UNL     1       2.976  11.299   9.644  0.00  0.00    +0.076 A 
ATOM     16  C   UNL     1       3.474  12.564   9.876  0.00  0.00    +0.024 A 
ATOM     17  C   UNL     1       3.270  13.133  11.133  0.00  0.00    -0.036 A 
ATOM     18  C   UNL     1       2.589  12.383  12.040  0.00  0.00    -0.006 A 
ATOM     19  S   UNL     1       2.210  10.917  11.208  0.00  0.00    -0.088 S 
ATOM     20  C   UNL     1       2.435  13.096  13.356  0.00  0.00    +0.043 C 
ATOM     21  C   UNL     1       3.483  14.229  13.311  0.00  0.00    +0.010 C 
ATOM     22  C   UNL     1       3.633  14.465  11.795  0.00  0.00    +0.036 C 
ENDBRANCH  12  15
ENDBRANCH   9  11
ENDBRANCH   4   7
BRANCH   1  23
ATOM     23  C   UNL     1       2.304   4.052   2.442  0.00  0.00    +0.141 C 
BRANCH  23  24
ATOM     24  N   UNL     1       1.141   4.330   1.596  0.00  0.00    -0.186 NA
ATOM     25  H   UNL     1       0.374   4.795   1.964  0.00  0.00    +0.148 HD
BRANCH  24  26
ATOM     26  S   UNL     1       1.136   3.848   0.011  0.00  0.00    +0.059 S 
ATOM     27  O   UNL     1       2.368   4.281  -0.549  0.00  0.00    -0.153 OA
ATOM     28  O   UNL     1      -0.122   4.232  -0.526  0.00  0.00    -0.153 OA
BRANCH  26  32
ATOM     29  C   UNL     1       1.225  -0.683  -0.013  0.00  0.00    +0.017 A 
ATOM     30  C   UNL     1       0.002  -0.004   0.002  0.00  0.00    +0.013 A 
ATOM     31  C   UNL     1      -0.017   1.375   0.010  0.00  0.00    +0.029 A 
ATOM     32  C   UNL     1       1.170   2.087   0.002  0.00  0.00    +0.105 A 
ATOM     33  C   UNL     1       2.384   1.422  -0.013  0.00  0.00    +0.029 A 
ATOM     34  C   UNL     1       2.420   0.043  -0.021  0.00  0.00    +0.013 A 
BRANCH  29  36
ATOM     35  C   UNL     1       2.573  -2.882  -0.037  0.00  0.00    +0.091 C 
ATOM     36  C   UNL     1       1.254  -2.154  -0.021  0.00  0.00    +0.160 C 
ATOM     37  O   UNL     1       0.216  -2.781  -0.014  0.00  0.00    -0.292 OA
ENDBRANCH  29  36
ENDBRANCH  26  32
ENDBRANCH  24  26
ENDBRANCH  23  24
ENDBRANCH   1  23
TORSDOF 8
