REMARK  Name = ZINC52844786
REMARK  6 active torsions:
REMARK  status: ('A' for Active; 'I' for Inactive)
REMARK    1  A    between atoms: C_8  and  C_11
REMARK    2  A    between atoms: C_11  and  N_12
REMARK    3  A    between atoms: C_13  and  C_15
REMARK    4  A    between atoms: C_15  and  N_16
REMARK    5  A    between atoms: N_19  and  C_22
REMARK    6  A    between atoms: C_26  and  N_28
REMARK                            x       y       z     vdW  Elec       q    Type
REMARK                         _______ _______ _______ _____ _____    ______ ____
ROOT
ATOM      1  C   UNL     1       7.562  -4.018  -0.075  0.00  0.00    +0.180 C 
ENDROOT
BRANCH   1   2
ATOM      2  N   UNL     1       8.299  -5.090   0.606  0.00  0.00    -0.291 NA
ATOM      3  C   UNL     1       7.844  -6.411   0.154  0.00  0.00    +0.104 C 
ATOM      4  C   UNL     1       8.503  -7.496   1.013  0.00  0.00    +0.120 C 
ATOM      5  N   UNL     1       9.960  -7.296   0.982  0.00  0.00    -0.327 N 
ATOM      6  C   UNL     1      10.485  -5.957   1.291  0.00  0.00    +0.120 C 
ATOM      7  C   UNL     1       9.748  -4.933   0.421  0.00  0.00    +0.104 C 
BRANCH   5   8
ATOM      8  C   UNL     1      10.822  -8.349   0.668  0.00  0.00    +0.032 A 
ATOM      9  C   UNL     1      12.185  -8.116   0.534  0.00  0.00    +0.023 A 
ATOM     10  C   UNL     1      13.035  -9.160   0.224  0.00  0.00    +0.004 A 
ATOM     11  C   UNL     1      12.530 -10.435   0.048  0.00  0.00    +0.033 A 
ATOM     12  C   UNL     1      11.174 -10.670   0.181  0.00  0.00    +0.128 A 
ATOM     13  C   UNL     1      10.319  -9.632   0.496  0.00  0.00    +0.055 A 
BRANCH  12  14
ATOM     14  N   UNL     1      10.639 -12.037  -0.009  0.00  0.00    +0.056 N 
ATOM     15  O   UNL     1      11.387 -12.947  -0.280  0.00  0.00    -0.126 OA
ATOM     16  O   UNL     1       9.453 -12.243   0.107  0.00  0.00    -0.126 OA
ENDBRANCH  12  14
ENDBRANCH   5   8
ENDBRANCH   1   2
BRANCH   1  18
ATOM     17  N   UNL     1       5.240  -3.170  -0.170  0.00  0.00    -0.311 N 
ATOM     18  C   UNL     1       6.112  -4.066   0.334  0.00  0.00    +0.227 C 
ATOM     19  O   UNL     1       5.731  -4.910   1.117  0.00  0.00    -0.274 OA
ATOM     20  H   UNL     1       5.545  -2.495  -0.795  0.00  0.00    +0.149 HD
BRANCH  17  21
ATOM     21  C   UNL     1       3.831  -3.217   0.228  0.00  0.00    +0.149 C 
BRANCH  21  29
ATOM     22  C   UNL     1       0.016   1.414  -0.017  0.00  0.00    +0.000 A 
ATOM     23  C   UNL     1       1.209   2.114  -0.008  0.00  0.00    +0.004 A 
ATOM     24  C   UNL     1       2.413   1.440  -0.013  0.00  0.00    +0.046 A 
ATOM     25  C   UNL     1       2.436   0.047  -0.028  0.00  0.00    +0.124 A 
ATOM     26  C   UNL     1       1.232  -0.644  -0.044  0.00  0.00    -0.002 A 
ATOM     27  C   UNL     1       0.031   0.031  -0.035  0.00  0.00    +0.007 A 
ATOM     28  C   UNL     1       1.569  -2.123  -0.082  0.00  0.00    +0.085 C 
ATOM     29  C   UNL     1       3.063  -2.100  -0.482  0.00  0.00    +0.195 C 
ATOM     30  O   UNL     1       3.496  -0.808  -0.023  0.00  0.00    -0.487 OA
ENDBRANCH  21  29
ENDBRANCH  17  21
ENDBRANCH   1  18
TORSDOF 6
