REMARK  Name = ZINC09223069
REMARK  10 active torsions:
REMARK  status: ('A' for Active; 'I' for Inactive)
REMARK    1  A    between atoms: C_1  and  C_2
REMARK    2  A    between atoms: C_3  and  N_9
REMARK    3  A    between atoms: C_4  and  C_8
REMARK    4  A    between atoms: N_5  and  C_7
REMARK    5  A    between atoms: C_10  and  C_12
REMARK    6  A    between atoms: C_12  and  S_13
REMARK    7  A    between atoms: S_13  and  C_14
REMARK    8  A    between atoms: N_19  and  C_20
REMARK    9  A    between atoms: C_23  and  O_26
REMARK   10  A    between atoms: O_26  and  C_27
REMARK                            x       y       z     vdW  Elec       q    Type
REMARK                         _______ _______ _______ _____ _____    ______ ____
ROOT
ATOM      1  C   UNL     1       5.076  -5.536  -2.022  0.00  0.00    +0.160 A 
ATOM      2  N   UNL     1       4.342  -6.532  -1.563  0.00  0.00    -0.133 NA
ATOM      3  N   UNL     1       4.891  -7.787  -1.439  0.00  0.00    -0.125 NA
ATOM      4  C   UNL     1       6.150  -7.989  -1.778  0.00  0.00    +0.187 A 
ATOM      5  S   UNL     1       6.635  -6.356  -2.317  0.00  0.00    -0.024 S 
ATOM      6  N   UNL     1       6.897  -9.160  -1.733  0.00  0.00    -0.292 N 
ATOM      7  H   UNL     1       7.845  -9.139  -1.938  0.00  0.00    +0.154 HD
ENDROOT
BRANCH   6   8
ATOM      8  C   UNL     1       6.282 -10.370  -1.393  0.00  0.00    +0.033 A 
ATOM      9  C   UNL     1       7.045 -11.427  -0.912  0.00  0.00    +0.027 A 
ATOM     10  C   UNL     1       6.436 -12.618  -0.571  0.00  0.00    +0.048 A 
ATOM     11  C   UNL     1       5.064 -12.764  -0.719  0.00  0.00    +0.130 A 
ATOM     12  C   UNL     1       4.302 -11.712  -1.204  0.00  0.00    +0.048 A 
ATOM     13  C   UNL     1       4.909 -10.517  -1.540  0.00  0.00    +0.027 A 
BRANCH  11  14
ATOM     14  O   UNL     1       4.467 -13.940  -0.388  0.00  0.00    -0.406 OA
BRANCH  14  15
ATOM     15  C   UNL     1       5.312 -14.981   0.105  0.00  0.00    +0.575 C 
ATOM     16  F   UNL     1       5.957 -14.547   1.268  0.00  0.00    -0.133 F 
ATOM     17  F   UNL     1       4.539 -16.111   0.394  0.00  0.00    -0.133 F 
ATOM     18  F   UNL     1       6.267 -15.305  -0.865  0.00  0.00    -0.133 F 
ENDBRANCH  14  15
ENDBRANCH  11  14
ENDBRANCH   6   8
BRANCH   1  19
ATOM     19  S   UNL     1       4.635  -3.850  -2.281  0.00  0.00    -0.088 S 
BRANCH  19  20
ATOM     20  C   UNL     1       2.897  -3.768  -1.766  0.00  0.00    +0.172 C 
BRANCH  20  22
ATOM     21  N   UNL     1       1.114  -2.059  -1.618  0.00  0.00    -0.282 N 
ATOM     22  C   UNL     1       2.388  -2.360  -1.940  0.00  0.00    +0.228 C 
ATOM     23  O   UNL     1       3.126  -1.497  -2.368  0.00  0.00    -0.275 OA
ATOM     24  H   UNL     1       0.549  -2.727  -1.200  0.00  0.00    +0.155 HD
BRANCH  21  27
ATOM     25  C   UNL     1       2.605   0.602  -0.988  0.00  0.00    +0.069 C 
ATOM     26  C   UNL     1       1.246   0.442  -1.619  0.00  0.00    +0.081 A 
ATOM     27  C   UNL     1       0.604  -0.775  -1.889  0.00  0.00    +0.077 A 
ATOM     28  C   UNL     1      -0.596  -0.496  -2.458  0.00  0.00    +0.057 A 
ATOM     29  N   UNL     1      -0.705   0.856  -2.542  0.00  0.00    -0.270 N 
ATOM     30  N   UNL     1       0.463   1.415  -2.010  0.00  0.00    -0.175 NA
ATOM     31  C   UNL     1      -1.841   1.596  -3.097  0.00  0.00    +0.172 C 
ATOM     32  C   UNL     1      -1.622  -1.502  -2.913  0.00  0.00    +0.067 C 
ENDBRANCH  21  27
ENDBRANCH  20  22
ENDBRANCH  19  20
ENDBRANCH   1  19
TORSDOF 7
