REMARK  Name = ZINC39534232
REMARK  9 active torsions:
REMARK  status: ('A' for Active; 'I' for Inactive)
REMARK    1  A    between atoms: C_4  and  C_7
REMARK    2  A    between atoms: C_7  and  C_8
REMARK    3  A    between atoms: N_11  and  C_15
REMARK    4  A    between atoms: C_15  and  C_17
REMARK    5  A    between atoms: C_15  and  C_20
REMARK    6  A    between atoms: C_17  and  N_18
REMARK    7  A    between atoms: C_23  and  S_26
REMARK    8  A    between atoms: S_26  and  O_29
REMARK    9  A    between atoms: O_29  and  C_30
REMARK                            x       y       z     vdW  Elec       q    Type
REMARK                         _______ _______ _______ _____ _____    ______ ____
ROOT
ATOM      1  C   UNL     1       7.036  -3.280   2.662  0.00  0.00    +0.102 C 
ENDROOT
BRANCH   1   4
ATOM      2  C   UNL     1       3.951  -1.220   2.009  0.00  0.00    -0.053 C 
ATOM      3  C   UNL     1       5.074  -2.218   1.719  0.00  0.00    +0.069 C 
ATOM      4  N   UNL     1       5.974  -2.289   2.880  0.00  0.00    -0.297 NA
ATOM      5  C   UNL     1       6.541  -0.968   3.183  0.00  0.00    +0.066 C 
ATOM      6  C   UNL     1       5.406   0.020   3.460  0.00  0.00    -0.067 C 
ATOM      7  N   UNL     1       4.529   0.102   2.284  0.00  0.00    +0.383 N 
ATOM      8  H   UNL     1       5.066   0.407   1.486  0.00  0.00    -0.085 HD
ATOM      9  H   UNL     1       3.788   0.763   2.463  0.00  0.00    -0.085 HD
BRANCH   2  10
ATOM     10  C   UNL     1       3.024  -1.128   0.795  0.00  0.00    +0.020 C 
BRANCH  10  14
ATOM     11  C   UNL     1      -0.300   1.387   1.725  0.00  0.00    +0.000 A 
ATOM     12  C   UNL     1       0.848   1.932   1.182  0.00  0.00    +0.000 A 
ATOM     13  C   UNL     1       1.924   1.118   0.881  0.00  0.00    +0.003 A 
ATOM     14  C   UNL     1       1.852  -0.241   1.124  0.00  0.00    -0.049 A 
ATOM     15  C   UNL     1       0.704  -0.786   1.668  0.00  0.00    +0.003 A 
ATOM     16  C   UNL     1      -0.373   0.028   1.968  0.00  0.00    +0.000 A 
ENDBRANCH  10  14
ENDBRANCH   2  10
ENDBRANCH   1   4
BRANCH   1  17
ATOM     17  C   UNL     1       7.497  -3.822   3.991  0.00  0.00    -0.029 A 
ATOM     18  C   UNL     1       7.223  -3.126   5.154  0.00  0.00    +0.007 A 
ATOM     19  C   UNL     1       7.646  -3.623   6.372  0.00  0.00    +0.031 A 
ATOM     20  C   UNL     1       8.343  -4.815   6.428  0.00  0.00    +0.128 A 
ATOM     21  C   UNL     1       8.617  -5.511   5.266  0.00  0.00    +0.031 A 
ATOM     22  C   UNL     1       8.190  -5.017   4.048  0.00  0.00    +0.007 A 
BRANCH  20  23
ATOM     23  S   UNL     1       8.884  -5.447   7.982  0.00  0.00    +0.151 S 
ATOM     24  O   UNL     1       9.988  -6.300   7.711  0.00  0.00    -0.131 OA
ATOM     25  O   UNL     1       8.978  -4.336   8.862  0.00  0.00    -0.131 OA
BRANCH  23  26
ATOM     26  O   UNL     1       7.770  -6.334   8.519  0.00  0.00    -0.342 OA
BRANCH  26  27
ATOM     27  C   UNL     1       7.676  -7.540   7.898  0.00  0.00    +0.157 A 
ATOM     28  C   UNL     1       6.871  -7.683   6.777  0.00  0.00    +0.048 A 
ATOM     29  C   UNL     1       6.777  -8.909   6.148  0.00  0.00    +0.004 A 
ATOM     30  C   UNL     1       7.484  -9.993   6.635  0.00  0.00    +0.000 A 
ATOM     31  C   UNL     1       8.287  -9.853   7.752  0.00  0.00    +0.004 A 
ATOM     32  C   UNL     1       8.389  -8.627   8.381  0.00  0.00    +0.048 A 
ENDBRANCH  26  27
ENDBRANCH  23  26
ENDBRANCH  20  23
ENDBRANCH   1  17
BRANCH   1  33
ATOM     33  C   UNL     1       8.213  -2.618   1.945  0.00  0.00    +0.122 C 
BRANCH  33  34
ATOM     34  N   UNL     1       7.765  -2.095   0.647  0.00  0.00    -0.231 NA
ATOM     35 CL   UNL     1       9.091  -1.550  -0.285  0.00  0.00    -0.024 Cl
ATOM     36  H   UNL     1       7.082  -1.362   0.769  0.00  0.00    +0.141 HD
ENDBRANCH  33  34
ENDBRANCH   1  33
TORSDOF 9
