REMARK  Name = ZINC16226269
REMARK  8 active torsions:
REMARK  status: ('A' for Active; 'I' for Inactive)
REMARK    1  A    between atoms: C_1  and  C_2
REMARK    2  A    between atoms: C_2  and  O_3
REMARK    3  A    between atoms: O_3  and  C_4
REMARK    4  A    between atoms: C_6  and  C_14
REMARK    5  A    between atoms: C_8  and  N_11
REMARK    6  A    between atoms: C_9  and  O_10
REMARK    7  A    between atoms: C_16  and  C_27
REMARK    8  A    between atoms: N_18  and  C_21
REMARK                            x       y       z     vdW  Elec       q    Type
REMARK                         _______ _______ _______ _____ _____    ______ ____
ROOT
ATOM      1  C   UNL     1      -0.350  -4.955   0.347  0.00  0.00    +0.023 C 
ATOM      2  C   UNL     1      -0.255  -6.322   0.173  0.00  0.00    +0.067 C 
ATOM      3  C   UNL     1      -0.796  -7.381   1.050  0.00  0.00    +0.102 C 
ATOM      4  N   UNL     1      -0.478  -8.530   0.513  0.00  0.00    -0.171 NA
ATOM      5  N   UNL     1       0.241  -8.356  -0.668  0.00  0.00    -0.156 N 
ATOM      6  C   UNL     1       0.402  -7.043  -0.929  0.00  0.00    +0.273 C 
ATOM      7  O   UNL     1       0.978  -6.552  -1.884  0.00  0.00    -0.268 OA
ENDROOT
BRANCH   1  10
ATOM      8  C   UNL     1       0.482  -2.029  -1.839  0.00  0.00    +0.165 A 
ATOM      9  C   UNL     1      -0.218  -2.876  -1.006  0.00  0.00    +0.057 A 
ATOM     10  C   UNL     1       0.387  -4.052  -0.538  0.00  0.00    -0.018 A 
ATOM     11  C   UNL     1       1.701  -4.359  -0.921  0.00  0.00    +0.044 A 
ATOM     12  C   UNL     1       2.391  -3.507  -1.753  0.00  0.00    +0.172 A 
ATOM     13  C   UNL     1       1.788  -2.345  -2.219  0.00  0.00    +0.189 A 
BRANCH  12  14
ATOM     14  N   UNL     1       3.777  -3.833  -2.157  0.00  0.00    +0.060 N 
ATOM     15  O   UNL     1       4.302  -4.845  -1.756  0.00  0.00    -0.126 OA
ATOM     16  O   UNL     1       4.385  -3.085  -2.887  0.00  0.00    -0.126 OA
ENDBRANCH  12  14
BRANCH  13  17
ATOM     17  O   UNL     1       2.472  -1.512  -3.044  0.00  0.00    -0.502 OA
ATOM     18  H   UNL     1       2.981  -0.832  -2.581  0.00  0.00    +0.292 HD
ENDBRANCH  13  17
BRANCH   8  19
ATOM     19  O   UNL     1      -0.101  -0.888  -2.295  0.00  0.00    -0.488 OA
BRANCH  19  21
ATOM     20  C   UNL     1      -1.922   0.691  -2.475  0.00  0.00    +0.048 C 
ATOM     21  C   UNL     1      -1.438  -0.627  -1.865  0.00  0.00    +0.226 C 
ENDBRANCH  19  21
ENDBRANCH   8  19
ENDBRANCH   1  10
BRANCH   5  22
ATOM     22  C   UNL     1       0.722  -9.396  -1.472  0.00  0.00    +0.060 A 
ATOM     23  C   UNL     1       1.435  -9.108  -2.629  0.00  0.00    +0.025 A 
ATOM     24  C   UNL     1       1.908 -10.137  -3.420  0.00  0.00    +0.002 A 
ATOM     25  C   UNL     1       1.673 -11.452  -3.061  0.00  0.00    +0.000 A 
ATOM     26  C   UNL     1       0.963 -11.741  -1.910  0.00  0.00    +0.002 A 
ATOM     27  C   UNL     1       0.493 -10.717  -1.112  0.00  0.00    +0.025 A 
ENDBRANCH   5  22
BRANCH   3  28
ATOM     28  C   UNL     1      -1.557  -7.179   2.305  0.00  0.00    +0.003 A 
ATOM     29  C   UNL     1      -2.375  -6.059   2.454  0.00  0.00    +0.010 A 
ATOM     30  C   UNL     1      -3.081  -5.877   3.625  0.00  0.00    +0.001 A 
ATOM     31  C   UNL     1      -2.979  -6.801   4.650  0.00  0.00    +0.000 A 
ATOM     32  C   UNL     1      -2.169  -7.913   4.507  0.00  0.00    +0.001 A 
ATOM     33  C   UNL     1      -1.462  -8.110   3.338  0.00  0.00    +0.010 A 
ENDBRANCH   3  28
TORSDOF 7
