REMARK  Name = ZINC12250321
REMARK  12 active torsions:
REMARK  status: ('A' for Active; 'I' for Inactive)
REMARK    1  A    between atoms: C_1  and  C_2
REMARK    2  A    between atoms: C_5  and  C_8
REMARK    3  A    between atoms: C_10  and  C_34
REMARK    4  A    between atoms: C_15  and  S_19
REMARK    5  A    between atoms: C_16  and  C_17
REMARK    6  A    between atoms: S_19  and  C_20
REMARK    7  A    between atoms: C_20  and  C_21
REMARK    8  A    between atoms: N_23  and  C_24
REMARK    9  A    between atoms: C_27  and  N_31
REMARK   10  A    between atoms: C_29  and  C_30
REMARK   11  A    between atoms: C_34  and  O_36
REMARK   12  A    between atoms: O_36  and  C_37
REMARK                            x       y       z     vdW  Elec       q    Type
REMARK                         _______ _______ _______ _____ _____    ______ ____
ROOT
ATOM      1  C   UNL     1       0.045  -4.320  -0.027  0.00  0.00    +0.085 C 
ATOM      2  C   UNL     1      -1.187  -4.859   0.705  0.00  0.00    +0.200 C 
ATOM      3  C   UNL     1      -1.027  -4.648   2.187  0.00  0.00    +0.262 C 
ATOM      4  O   UNL     1      -2.110  -4.366   2.934  0.00  0.00    -0.270 OA
ATOM      5  N   UNL     1       0.136  -4.732   2.758  0.00  0.00    -0.205 NA
ATOM      6  C   UNL     1       1.265  -4.968   2.051  0.00  0.00    +0.115 C 
ATOM      7  C   UNL     1       1.288  -4.802   0.681  0.00  0.00    +0.070 C 
ENDROOT
BRANCH   1  12
ATOM      8  C   UNL     1      -0.076   1.457  -0.012  0.00  0.00    +0.044 C 
ATOM      9  C   UNL     1      -0.045  -0.049  -0.016  0.00  0.00    -0.050 A 
ATOM     10  C   UNL     1      -0.036  -0.737  -1.215  0.00  0.00    +0.003 A 
ATOM     11  C   UNL     1      -0.007  -2.119  -1.218  0.00  0.00    +0.004 A 
ATOM     12  C   UNL     1       0.014  -2.813  -0.023  0.00  0.00    -0.038 A 
ATOM     13  C   UNL     1       0.006  -2.125   1.176  0.00  0.00    +0.004 A 
ATOM     14  C   UNL     1      -0.019  -0.743   1.179  0.00  0.00    +0.003 A 
ENDBRANCH   1  12
BRANCH   7  15
ATOM     15  C   UNL     1       2.478  -5.084  -0.064  0.00  0.00    +0.098 C 
ATOM     16  N   UNL     1       3.422  -5.308  -0.655  0.00  0.00    -0.191 NA
ENDBRANCH   7  15
BRANCH   2  17
ATOM     17  C   UNL     1      -2.416  -4.130   0.224  0.00  0.00    +0.320 C 
ATOM     18  O   UNL     1      -2.316  -3.268  -0.617  0.00  0.00    -0.250 OA
BRANCH  17  19
ATOM     19  O   UNL     1      -3.620  -4.439   0.730  0.00  0.00    -0.467 OA
ATOM     20  C   UNL     1      -4.741  -3.708   0.229  0.00  0.00    +0.280 C 
ENDBRANCH  17  19
ENDBRANCH   2  17
BRANCH   6  21
ATOM     21  S   UNL     1       2.724  -5.494   2.888  0.00  0.00    -0.095 S 
BRANCH  21  22
ATOM     22  C   UNL     1       2.227  -5.570   4.631  0.00  0.00    +0.172 C 
BRANCH  22  23
ATOM     23  C   UNL     1       3.399  -6.013   5.468  0.00  0.00    +0.227 C 
ATOM     24  O   UNL     1       4.464  -6.254   4.941  0.00  0.00    -0.275 OA
ATOM     25  N   UNL     1       3.262  -6.142   6.803  0.00  0.00    -0.285 N 
ATOM     26  H   UNL     1       2.436  -5.874   7.234  0.00  0.00    +0.155 HD
BRANCH  25  27
ATOM     27  C   UNL     1       4.313  -6.663   7.566  0.00  0.00    +0.036 A 
ATOM     28  C   UNL     1       5.251  -7.502   6.979  0.00  0.00    +0.026 A 
ATOM     29  C   UNL     1       6.287  -8.014   7.735  0.00  0.00    +0.034 A 
ATOM     30  C   UNL     1       6.390  -7.693   9.076  0.00  0.00    +0.127 A 
ATOM     31  C   UNL     1       5.458  -6.859   9.664  0.00  0.00    +0.038 A 
ATOM     32  C   UNL     1       4.423  -6.338   8.912  0.00  0.00    -0.027 A 
ATOM     33  C   UNL     1       3.411  -5.423   9.552  0.00  0.00    +0.046 C 
BRANCH  30  34
ATOM     34  N   UNL     1       7.501  -8.245   9.884  0.00  0.00    +0.056 N 
ATOM     35  O   UNL     1       8.317  -8.975   9.371  0.00  0.00    -0.126 OA
ATOM     36  O   UNL     1       7.593  -7.965  11.056  0.00  0.00    -0.126 OA
ENDBRANCH  30  34
ENDBRANCH  25  27
ENDBRANCH  22  23
ENDBRANCH  21  22
ENDBRANCH   6  21
TORSDOF 9
