REMARK  Name = ZINC15222425
REMARK  9 active torsions:
REMARK  status: ('A' for Active; 'I' for Inactive)
REMARK    1  A    between atoms: C_1  and  C_2
REMARK    2  A    between atoms: C_2  and  O_3
REMARK    3  A    between atoms: O_3  and  C_4
REMARK    4  A    between atoms: C_6  and  N_29
REMARK    5  A    between atoms: C_9  and  C_10
REMARK    6  A    between atoms: N_12  and  N_13
REMARK    7  A    between atoms: C_14  and  C_20
REMARK    8  A    between atoms: C_23  and  N_26
REMARK    9  A    between atoms: C_30  and  C_32
REMARK                            x       y       z     vdW  Elec       q    Type
REMARK                         _______ _______ _______ _____ _____    ______ ____
ROOT
ATOM      1  C   UNL     1      -5.578  -1.362  -0.308  0.00  0.00    +0.264 C 
ATOM      2  O   UNL     1      -6.617  -0.741  -0.190  0.00  0.00    -0.269 OA
ATOM      3  N   UNL     1      -5.607  -2.701  -0.455  0.00  0.00    -0.226 N 
ATOM      4  H   UNL     1      -4.778  -3.205  -0.481  0.00  0.00    +0.173 HD
ENDROOT
BRANCH   1  10
ATOM      5  C   UNL     1      -4.255   0.744  -0.138  0.00  0.00    +0.134 A 
ATOM      6  C   UNL     1      -3.037   1.402  -0.124  0.00  0.00    +0.069 A 
ATOM      7  C   UNL     1      -1.859   0.681  -0.260  0.00  0.00    +0.037 A 
ATOM      8  C   UNL     1      -1.897  -0.703  -0.417  0.00  0.00    +0.024 A 
ATOM      9  C   UNL     1      -3.092  -1.363  -0.427  0.00  0.00    +0.018 A 
ATOM     10  C   UNL     1      -4.288  -0.651  -0.291  0.00  0.00    +0.080 A 
BRANCH   7  11
ATOM     11  N   UNL     1      -0.632   1.345  -0.246  0.00  0.00    -0.286 N 
ATOM     12  C   UNL     1       0.464   0.724   0.232  0.00  0.00    +0.214 C 
ATOM     13  O   UNL     1       0.368  -0.375   0.736  0.00  0.00    -0.276 OA
ATOM     14  C   UNL     1       1.811   1.393   0.136  0.00  0.00    +0.109 C 
ATOM     15  H   UNL     1      -0.569   2.253  -0.581  0.00  0.00    +0.155 HD
ENDBRANCH   7  11
BRANCH   5  16
ATOM     16  O   UNL     1      -5.410   1.443  -0.006  0.00  0.00    -0.491 OA
BRANCH  16  18
ATOM     17  C   UNL     1      -6.693   3.471   0.279  0.00  0.00    +0.048 C 
ATOM     18  C   UNL     1      -5.297   2.860   0.144  0.00  0.00    +0.226 C 
ENDBRANCH  16  18
ENDBRANCH   5  16
ENDBRANCH   1  10
BRANCH   3  19
ATOM     19  N   UNL     1      -6.835  -3.367  -0.568  0.00  0.00    -0.202 N 
ATOM     20  C   UNL     1      -7.276  -3.901  -1.870  0.00  0.00    +0.185 C 
ATOM     21  S   UNL     1      -9.062  -4.223  -1.543  0.00  0.00    -0.123 S 
ATOM     22  C   UNL     1      -8.934  -4.252   0.297  0.00  0.00    +0.168 C 
ATOM     23  C   UNL     1      -7.611  -3.529   0.495  0.00  0.00    +0.243 C 
ATOM     24  O   UNL     1      -7.279  -3.113   1.585  0.00  0.00    -0.273 OA
BRANCH  20  25
ATOM     25  C   UNL     1      -7.101  -2.878  -2.963  0.00  0.00    -0.015 A 
ATOM     26  C   UNL     1      -7.707  -1.641  -2.854  0.00  0.00    +0.008 A 
ATOM     27  C   UNL     1      -7.543  -0.700  -3.853  0.00  0.00    +0.033 A 
ATOM     28  C   UNL     1      -6.781  -1.000  -4.967  0.00  0.00    +0.126 A 
ATOM     29  C   UNL     1      -6.179  -2.240  -5.078  0.00  0.00    +0.033 A 
ATOM     30  C   UNL     1      -6.339  -3.179  -4.076  0.00  0.00    +0.008 A 
BRANCH  28  31
ATOM     31  N   UNL     1      -6.609   0.005  -6.040  0.00  0.00    +0.056 N 
ATOM     32  O   UNL     1      -5.938  -0.260  -7.021  0.00  0.00    -0.126 OA
ATOM     33  O   UNL     1      -7.139   1.097  -5.941  0.00  0.00    -0.126 OA
ENDBRANCH  28  31
ENDBRANCH  20  25
ENDBRANCH   3  19
TORSDOF 7
