REMARK  Name = ZINC03557583
REMARK  6 active torsions:
REMARK  status: ('A' for Active; 'I' for Inactive)
REMARK    1  A    between atoms: C_1  and  N_2
REMARK    2  A    between atoms: C_6  and  C_8
REMARK    3  A    between atoms: C_8  and  C_10
REMARK    4  A    between atoms: C_8  and  O_16
REMARK    5  A    between atoms: O_16  and  C_17
REMARK    6  A    between atoms: C_17  and  C_19
REMARK                            x       y       z     vdW  Elec       q    Type
REMARK                         _______ _______ _______ _____ _____    ______ ____
ROOT
ATOM      1  C   UNL     1       1.121  -2.113  -0.020  0.00  0.00    +0.292 C 
ENDROOT
BRANCH   1   7
ATOM      2  C   UNL     1       4.935  -6.365   2.204  0.00  0.00    +0.129 C 
ATOM      3  N   UNL     1       3.752  -5.827   1.527  0.00  0.00    -0.302 N 
ATOM      4  C   UNL     1       3.589  -4.494   1.413  0.00  0.00    +0.306 C 
ATOM      5  O   UNL     1       4.424  -3.738   1.871  0.00  0.00    -0.252 OA
ATOM      6  N   UNL     1       2.501  -3.999   0.790  0.00  0.00    -0.237 N 
ATOM      7  C   UNL     1       2.338  -2.666   0.676  0.00  0.00    +0.266 C 
ATOM      8  O   UNL     1       3.171  -1.912   1.133  0.00  0.00    -0.271 OA
ATOM      9  H   UNL     1       3.086  -6.430   1.161  0.00  0.00    +0.150 HD
ATOM     10  H   UNL     1       1.835  -4.602   0.425  0.00  0.00    +0.159 HD
ENDBRANCH   1   7
BRANCH   1  11
ATOM     11  C   UNL     1       1.088  -2.607  -1.443  0.00  0.00    +0.002 A 
ATOM     12  C   UNL     1       1.869  -1.994  -2.406  0.00  0.00    +0.008 A 
ATOM     13  C   UNL     1       1.841  -2.450  -3.711  0.00  0.00    +0.000 A 
ATOM     14  C   UNL     1       1.027  -3.513  -4.054  0.00  0.00    +0.000 A 
ATOM     15  C   UNL     1       0.243  -4.123  -3.093  0.00  0.00    +0.000 A 
ATOM     16  C   UNL     1       0.274  -3.669  -1.787  0.00  0.00    +0.008 A 
ENDBRANCH   1  11
BRANCH   1  17
ATOM     17  O   UNL     1       1.178  -0.662  -0.013  0.00  0.00    -0.444 OA
BRANCH  17  18
ATOM     18  C   UNL     1       0.002  -0.004   0.002  0.00  0.00    +0.342 C 
ATOM     19  O   UNL     1      -1.042  -0.626   0.009  0.00  0.00    -0.245 OA
BRANCH  18  20
ATOM     20  C   UNL     1      -0.018   1.472   0.010  0.00  0.00    +0.079 A 
ATOM     21  C   UNL     1       1.180   2.190   0.003  0.00  0.00    +0.016 A 
ATOM     22  C   UNL     1       1.155   3.569   0.010  0.00  0.00    +0.002 A 
ATOM     23  C   UNL     1      -0.054   4.243   0.026  0.00  0.00    +0.021 A 
ATOM     24  C   UNL     1      -1.246   3.540   0.034  0.00  0.00    +0.060 A 
ATOM     25  C   UNL     1      -1.236   2.158   0.020  0.00  0.00    +0.073 A 
ATOM     26 CL   UNL     1      -2.731   1.276   0.021  0.00  0.00    -0.081 Cl
ATOM     27 CL   UNL     1      -2.756   4.396   0.053  0.00  0.00    -0.082 Cl
ENDBRANCH  18  20
ENDBRANCH  17  18
ENDBRANCH   1  17
TORSDOF 5
