REMARK  Name = ZINC53620157
REMARK  6 active torsions:
REMARK  status: ('A' for Active; 'I' for Inactive)
REMARK    1  A    between atoms: C_1  and  C_2
REMARK    2  A    between atoms: C_6  and  C_8
REMARK    3  A    between atoms: C_8  and  O_9
REMARK    4  A    between atoms: O_9  and  C_10
REMARK    5  A    between atoms: C_18  and  C_20
REMARK    6  A    between atoms: C_23  and  C_27
REMARK                            x       y       z     vdW  Elec       q    Type
REMARK                         _______ _______ _______ _____ _____    ______ ____
ROOT
ATOM      1  C   UNL     1      -0.013   1.086   0.008  0.00  0.00    +0.066 C 
ATOM      2  C   UNL     1      -0.742   1.585  -1.213  0.00  0.00    +0.054 A 
ATOM      3  N   UNL     1      -2.044   1.798  -1.199  0.00  0.00    -0.229 NA
ATOM      4  C   UNL     1      -2.674   2.233  -2.269  0.00  0.00    +0.165 A 
ATOM      5  N   UNL     1      -4.027   2.507  -2.424  0.00  0.00    -0.262 N 
ATOM      6  C   UNL     1      -4.873   2.328  -1.390  0.00  0.00    +0.256 C 
ATOM      7  O   UNL     1      -4.453   1.928  -0.325  0.00  0.00    -0.272 OA
ATOM      8  S   UNL     1      -1.441   2.380  -3.405  0.00  0.00    -0.053 S 
ATOM      9  C   UNL     1      -0.088   1.841  -2.373  0.00  0.00    +0.059 A 
ATOM     10  H   UNL     1      -4.364   2.827  -3.275  0.00  0.00    +0.157 HD
ENDROOT
BRANCH   9  11
ATOM     11  C   UNL     1       1.377   1.706  -2.700  0.00  0.00    +0.250 C 
ATOM     12  N   UNL     1       1.778   2.723  -3.698  0.00  0.00    -0.265 NA
ATOM     13  C   UNL     1       3.140   3.158  -3.322  0.00  0.00    +0.187 C 
ATOM     14  N   UNL     1       3.491   2.382  -2.109  0.00  0.00    -0.177 NA
ATOM     15  O   UNL     1       2.182   1.994  -1.534  0.00  0.00    -0.274 OA
ATOM     16  H   UNL     1       1.766   2.339  -4.631  0.00  0.00    +0.127 HD
ATOM     17  H   UNL     1       4.036   1.566  -2.347  0.00  0.00    +0.156 HD
BRANCH  13  18
ATOM     18  C   UNL     1       4.110   2.853  -4.435  0.00  0.00    +0.023 A 
ATOM     19  C   UNL     1       5.430   2.555  -4.359  0.00  0.00    +0.014 A 
ATOM     20  C   UNL     1       6.129   2.308  -5.525  0.00  0.00    +0.008 A 
ATOM     21  C   UNL     1       5.474   2.370  -6.710  0.00  0.00    +0.045 A 
ATOM     22  S   UNL     1       3.816   2.783  -6.194  0.00  0.00    -0.099 S 
ENDBRANCH  13  18
ENDBRANCH   9  11
BRANCH   6  23
ATOM     23  C   UNL     1      -6.341   2.624  -1.557  0.00  0.00    +0.324 C 
BRANCH  23  24
ATOM     24  O   UNL     1      -7.024   2.358  -0.331  0.00  0.00    -0.483 OA
BRANCH  24  25
ATOM     25  C   UNL     1      -8.366   2.576  -0.311  0.00  0.00    +0.121 A 
ATOM     26  C   UNL     1      -9.012   3.030  -1.451  0.00  0.00    +0.048 A 
ATOM     27  C   UNL     1     -10.376   3.251  -1.430  0.00  0.00    +0.042 A 
ATOM     28  C   UNL     1     -11.097   3.019  -0.271  0.00  0.00    +0.124 A 
ATOM     29  C   UNL     1     -10.454   2.566   0.868  0.00  0.00    +0.042 A 
ATOM     30  C   UNL     1      -9.091   2.338   0.847  0.00  0.00    +0.048 A 
ATOM     31  F   UNL     1     -12.431   3.236  -0.252  0.00  0.00    -0.205 F 
ENDBRANCH  24  25
ENDBRANCH  23  24
ENDBRANCH   6  23
TORSDOF 5
