REMARK  Name = ZINC34779610
REMARK  9 active torsions:
REMARK  status: ('A' for Active; 'I' for Inactive)
REMARK    1  A    between atoms: C_1  and  C_2
REMARK    2  A    between atoms: C_2  and  C_3
REMARK    3  A    between atoms: C_3  and  C_4
REMARK    4  A    between atoms: C_4  and  N_5
REMARK    5  A    between atoms: C_9  and  C_27
REMARK    6  A    between atoms: C_10  and  C_23
REMARK    7  A    between atoms: N_13  and  C_16
REMARK    8  A    between atoms: C_16  and  C_17
REMARK    9  A    between atoms: N_25  and  N_26
REMARK                            x       y       z     vdW  Elec       q    Type
REMARK                         _______ _______ _______ _____ _____    ______ ____
ROOT
ATOM      1  N   UNL     1       1.471  -2.526   2.420  0.00  0.00    -0.260 N 
ATOM      2  C   UNL     1       2.800  -2.720   2.354  0.00  0.00    +0.265 A 
ATOM      3  O   UNL     1       3.405  -2.496   1.323  0.00  0.00    -0.267 OA
ATOM      4  C   UNL     1       3.520  -3.211   3.555  0.00  0.00    +0.074 A 
ATOM      5  C   UNL     1       4.886  -3.479   3.707  0.00  0.00    -0.017 A 
ATOM      6  C   UNL     1       5.300  -3.927   4.928  0.00  0.00    +0.081 A 
ATOM      7  S   UNL     1       3.785  -3.974   5.863  0.00  0.00    -0.065 S 
ATOM      8  C   UNL     1       2.725  -3.436   4.688  0.00  0.00    +0.098 A 
ATOM      9  N   UNL     1       1.378  -3.211   4.662  0.00  0.00    -0.283 N 
ATOM     10  C   UNL     1       0.777  -2.759   3.545  0.00  0.00    +0.333 A 
ATOM     11  O   UNL     1      -0.423  -2.563   3.554  0.00  0.00    -0.246 OA
ATOM     12  C   UNL     1       5.856  -3.282   2.571  0.00  0.00    +0.046 C 
ENDROOT
BRANCH   6  13
ATOM     13  C   UNL     1       6.654  -4.281   5.362  0.00  0.00    +0.264 C 
ATOM     14  O   UNL     1       7.586  -4.189   4.584  0.00  0.00    -0.268 OA
ATOM     15  N   UNL     1       6.868  -4.708   6.622  0.00  0.00    -0.249 N 
ATOM     16  H   UNL     1       6.126  -4.781   7.242  0.00  0.00    +0.169 HD
BRANCH  15  17
ATOM     17  N   UNL     1       8.130  -5.038   7.026  0.00  0.00    -0.254 NA
ATOM     18  H   UNL     1       8.768  -4.269   6.884  0.00  0.00    +0.140 HD
ATOM     19  H   UNL     1       8.135  -5.339   7.989  0.00  0.00    +0.140 HD
ENDBRANCH  15  17
ENDBRANCH   6  13
BRANCH   1  20
ATOM     20  C   UNL     1       0.763  -2.041   1.233  0.00  0.00    +0.130 C 
BRANCH  20  21
ATOM     21  C   UNL     1       0.742  -0.511   1.242  0.00  0.00    +0.022 C 
BRANCH  21  23
ATOM     22  C   UNL     1      -0.019   1.526   0.010  0.00  0.00    +0.004 C 
ATOM     23  C   UNL     1       0.002  -0.004   0.002  0.00  0.00    -0.002 C 
ENDBRANCH  21  23
ENDBRANCH  20  21
ENDBRANCH   1  20
BRANCH   9  24
ATOM     24  C   UNL     1       0.579  -3.457   5.865  0.00  0.00    +0.162 C 
BRANCH  24  25
ATOM     25  C   UNL     1       0.521  -2.200   6.695  0.00  0.00    -0.028 A 
ATOM     26  C   UNL     1       1.485  -1.963   7.658  0.00  0.00    +0.005 A 
ATOM     27  C   UNL     1       1.432  -0.811   8.419  0.00  0.00    +0.000 A 
ATOM     28  C   UNL     1       0.416   0.104   8.218  0.00  0.00    +0.000 A 
ATOM     29  C   UNL     1      -0.547  -0.132   7.255  0.00  0.00    +0.000 A 
ATOM     30  C   UNL     1      -0.492  -1.283   6.491  0.00  0.00    +0.005 A 
ENDBRANCH  24  25
ENDBRANCH   9  24
TORSDOF 7
