REMARK  Name = ZINC39676599
REMARK  10 active torsions:
REMARK  status: ('A' for Active; 'I' for Inactive)
REMARK    1  A    between atoms: C_1  and  C_2
REMARK    2  A    between atoms: C_6  and  C_7
REMARK    3  A    between atoms: C_11  and  C_20
REMARK    4  A    between atoms: N_22  and  C_23
REMARK    5  A    between atoms: C_23  and  C_24
REMARK    6  A    between atoms: C_23  and  C_32
REMARK    7  A    between atoms: C_27  and  O_30
REMARK    8  A    between atoms: O_30  and  C_31
REMARK    9  A    between atoms: C_35  and  O_38
REMARK   10  A    between atoms: O_38  and  C_39
REMARK                            x       y       z     vdW  Elec       q    Type
REMARK                         _______ _______ _______ _____ _____    ______ ____
ROOT
ATOM      1  C   UNL     1       2.241  -3.334   4.257  0.00  0.00    +0.219 C 
ATOM      2  O   UNL     1       2.739  -2.622   3.410  0.00  0.00    -0.275 OA
ATOM      3  N   UNL     1       2.966  -4.323   4.816  0.00  0.00    -0.304 N 
ATOM      4  H   UNL     1       2.567  -4.892   5.494  0.00  0.00    +0.150 HD
ENDROOT
BRANCH   1   9
ATOM      5  C   UNL     1       0.031  -0.281   2.565  0.00  0.00    +0.254 C 
ATOM      6  O   UNL     1       0.120   0.908   2.809  0.00  0.00    -0.269 OA
ATOM      7  N   UNL     1      -0.050  -1.172   3.572  0.00  0.00    -0.296 N 
ATOM      8  C   UNL     1      -0.041  -2.651   3.480  0.00  0.00    +0.121 C 
ATOM      9  C   UNL     1       0.813  -3.113   4.682  0.00  0.00    +0.100 C 
ATOM     10  C   UNL     1       0.725  -1.956   5.692  0.00  0.00    -0.004 C 
ATOM     11  C   UNL     1      -0.160  -0.894   5.025  0.00  0.00    +0.115 C 
ATOM     12  C   UNL     1       2.114  -1.384   5.962  0.00  0.00    -0.010 C 
ATOM     13  C   UNL     1       2.008  -0.275   7.012  0.00  0.00    -0.082 C 
ATOM     14  N   UNL     1       1.434  -0.821   8.247  0.00  0.00    +0.379 N 
ATOM     15  C   UNL     1       0.063  -1.285   8.000  0.00  0.00    -0.082 C 
ATOM     16  C   UNL     1       0.086  -2.437   6.992  0.00  0.00    -0.010 C 
ATOM     17  H   UNL     1       1.997  -1.595   8.565  0.00  0.00    -0.086 HD
ATOM     18  H   UNL     1       1.422  -0.103   8.957  0.00  0.00    -0.086 HD
BRANCH   5  24
ATOM     19  C   UNL     1      -0.014   1.509   0.016  0.00  0.00    +0.045 C 
ATOM     20  C   UNL     1      -0.010   0.002   0.005  0.00  0.00    -0.031 A 
ATOM     21  C   UNL     1      -0.021  -0.720  -1.164  0.00  0.00    +0.011 A 
ATOM     22  C   UNL     1      -0.017  -2.075  -1.101  0.00  0.00    +0.046 A 
ATOM     23  S   UNL     1       0.003  -2.411   0.544  0.00  0.00    -0.092 S 
ATOM     24  C   UNL     1       0.010  -0.743   1.174  0.00  0.00    +0.077 A 
ENDBRANCH   5  24
ENDBRANCH   1   9
BRANCH   3  25
ATOM     25  C   UNL     1       4.354  -4.538   4.403  0.00  0.00    +0.134 C 
BRANCH  25  26
ATOM     26  C   UNL     1       5.260  -3.626   5.189  0.00  0.00    -0.023 A 
ATOM     27  C   UNL     1       5.027  -3.416   6.536  0.00  0.00    +0.009 A 
ATOM     28  C   UNL     1       5.856  -2.579   7.259  0.00  0.00    +0.046 A 
ATOM     29  C   UNL     1       6.922  -1.951   6.633  0.00  0.00    +0.120 A 
ATOM     30  C   UNL     1       7.154  -2.164   5.282  0.00  0.00    +0.046 A 
ATOM     31  C   UNL     1       6.325  -3.005   4.564  0.00  0.00    +0.009 A 
BRANCH  29  32
ATOM     32  O   UNL     1       7.738  -1.127   7.342  0.00  0.00    -0.495 OA
ATOM     33  C   UNL     1       8.816  -0.514   6.632  0.00  0.00    +0.277 C 
ENDBRANCH  29  32
ENDBRANCH  25  26
BRANCH  25  34
ATOM     34  C   UNL     1       4.739  -5.972   4.661  0.00  0.00    -0.023 A 
ATOM     35  C   UNL     1       4.310  -6.605   5.814  0.00  0.00    +0.009 A 
ATOM     36  C   UNL     1       4.662  -7.919   6.053  0.00  0.00    +0.046 A 
ATOM     37  C   UNL     1       5.445  -8.605   5.136  0.00  0.00    +0.120 A 
ATOM     38  C   UNL     1       5.874  -7.968   3.980  0.00  0.00    +0.046 A 
ATOM     39  C   UNL     1       5.515  -6.655   3.743  0.00  0.00    +0.009 A 
BRANCH  37  40
ATOM     40  O   UNL     1       5.793  -9.898   5.369  0.00  0.00    -0.495 OA
ATOM     41  C   UNL     1       6.601 -10.540   4.381  0.00  0.00    +0.277 C 
ENDBRANCH  37  40
ENDBRANCH  25  34
ENDBRANCH   3  25
TORSDOF 7
