REMARK  Name = ZINC16861030
REMARK  10 active torsions:
REMARK  status: ('A' for Active; 'I' for Inactive)
REMARK    1  A    between atoms: C_1  and  C_2
REMARK    2  A    between atoms: C_2  and  C_3
REMARK    3  A    between atoms: C_3  and  C_4
REMARK    4  A    between atoms: C_4  and  N_5
REMARK    5  A    between atoms: C_9  and  C_11
REMARK    6  A    between atoms: C_11  and  S_12
REMARK    7  A    between atoms: S_12  and  C_13
REMARK    8  A    between atoms: C_21  and  C_25
REMARK    9  A    between atoms: N_28  and  C_29
REMARK   10  A    between atoms: C_29  and  C_30
REMARK                            x       y       z     vdW  Elec       q    Type
REMARK                         _______ _______ _______ _____ _____    ______ ____
ROOT
ATOM      1  C   UNL     1      -1.216   1.923   8.729  0.00  0.00    +0.173 A 
ATOM      2  N   UNL     1      -2.265   2.650   8.398  0.00  0.00    -0.216 NA
ATOM      3  C   UNL     1      -3.046   3.181   9.331  0.00  0.00    +0.117 A 
ATOM      4  C   UNL     1      -2.794   3.011  10.703  0.00  0.00    +0.076 A 
ATOM      5  C   UNL     1      -3.738   3.664  11.612  0.00  0.00    -0.023 A 
ATOM      6  C   UNL     1      -4.748   4.357  11.050  0.00  0.00    -0.004 A 
ATOM      7  S   UNL     1      -4.508   4.187   9.302  0.00  0.00    -0.073 S 
ATOM      8  C   UNL     1      -5.837   5.109  11.755  0.00  0.00    +0.046 C 
ATOM      9  C   UNL     1      -5.427   5.289  13.224  0.00  0.00    -0.009 C 
ATOM     10  C   UNL     1      -4.943   3.942  13.767  0.00  0.00    +0.008 C 
ATOM     11  C   UNL     1      -3.603   3.575  13.130  0.00  0.00    +0.037 C 
ATOM     12  C   UNL     1      -6.631   5.768  14.037  0.00  0.00    +0.008 C 
ATOM     13  C   UNL     1      -1.646   2.223  11.033  0.00  0.00    +0.263 A 
ATOM     14  O   UNL     1      -1.349   2.021  12.198  0.00  0.00    -0.267 OA
ATOM     15  N   UNL     1      -0.899   1.707  10.039  0.00  0.00    -0.285 N 
ENDROOT
BRANCH   1  16
ATOM     16  S   UNL     1      -0.206   1.228   7.464  0.00  0.00    -0.078 S 
BRANCH  16  17
ATOM     17  C   UNL     1      -1.082   1.827   5.998  0.00  0.00    +0.173 C 
BRANCH  17  22
ATOM     18  N   UNL     1      -0.698   1.558   1.213  0.00  0.00    -0.299 N 
ATOM     19  C   UNL     1      -0.222   1.232   2.431  0.00  0.00    +0.306 C 
ATOM     20  O   UNL     1       0.777   0.547   2.530  0.00  0.00    -0.252 OA
ATOM     21  N   UNL     1      -0.853   1.667   3.540  0.00  0.00    -0.240 N 
ATOM     22  C   UNL     1      -0.376   1.341   4.758  0.00  0.00    +0.231 C 
ATOM     23  O   UNL     1       0.620   0.657   4.856  0.00  0.00    -0.274 OA
ATOM     24  H   UNL     1      -1.495   2.106   1.135  0.00  0.00    +0.150 HD
ATOM     25  H   UNL     1      -1.650   2.214   3.462  0.00  0.00    +0.159 HD
BRANCH  18  26
ATOM     26  C   UNL     1      -0.013   1.086   0.008  0.00  0.00    +0.106 C 
BRANCH  26  27
ATOM     27  C   UNL     1      -0.753   1.593  -1.232  0.00  0.00    +0.018 C 
BRANCH  27  29
ATOM     28  C   UNL     1      -0.777   1.606  -3.730  0.00  0.00    +0.004 C 
ATOM     29  C   UNL     1      -0.037   1.099  -2.490  0.00  0.00    -0.002 C 
ENDBRANCH  27  29
ENDBRANCH  26  27
ENDBRANCH  18  26
ENDBRANCH  17  22
ENDBRANCH  16  17
ENDBRANCH   1  16
BRANCH  15  30
ATOM     30  C   UNL     1       0.277   0.898  10.370  0.00  0.00    +0.159 C 
BRANCH  30  31
ATOM     31  C   UNL     1       1.504   1.805  10.483  0.00  0.00    +0.138 C 
ATOM     32  C   UNL     1       2.767   0.950  10.717  0.00  0.00    +0.035 C 
ATOM     33  C   UNL     1       3.560   1.806  11.742  0.00  0.00    +0.031 C 
ATOM     34  C   UNL     1       2.402   2.429  12.562  0.00  0.00    +0.160 C 
ATOM     35  O   UNL     1       1.359   2.680  11.608  0.00  0.00    -0.375 OA
ENDBRANCH  30  31
ENDBRANCH  15  30
TORSDOF 8
