REMARK  Name = ZINC65875124
REMARK  6 active torsions:
REMARK  status: ('A' for Active; 'I' for Inactive)
REMARK    1  A    between atoms: C_4  and  N_27
REMARK    2  A    between atoms: C_5  and  N_7
REMARK    3  A    between atoms: N_7  and  C_8
REMARK    4  A    between atoms: C_8  and  C_9
REMARK    5  A    between atoms: N_11  and  C_12
REMARK    6  A    between atoms: C_15  and  C_18
REMARK                            x       y       z     vdW  Elec       q    Type
REMARK                         _______ _______ _______ _____ _____    ______ ____
ROOT
ATOM      1  C   UNL     1       0.463  -4.569  -1.391  0.00  0.00    +0.234 C 
ATOM      2  O   UNL     1       1.471  -4.838  -2.009  0.00  0.00    -0.274 OA
ATOM      3  N   UNL     1      -0.268  -5.553  -0.831  0.00  0.00    -0.284 N 
ATOM      4  H   UNL     1      -1.113  -5.345  -0.402  0.00  0.00    +0.155 HD
ENDROOT
BRANCH   3   5
ATOM      5  C   UNL     1       0.191  -6.874  -0.869  0.00  0.00    +0.033 A 
ATOM      6  C   UNL     1       1.554  -7.136  -0.805  0.00  0.00    +0.024 A 
ATOM      7  C   UNL     1       2.010  -8.437  -0.843  0.00  0.00    +0.012 A 
ATOM      8  C   UNL     1       1.101  -9.490  -0.945  0.00  0.00    -0.000 A 
ATOM      9  C   UNL     1      -0.266  -9.224  -1.009  0.00  0.00    +0.012 A 
ATOM     10  C   UNL     1      -0.716  -7.921  -0.965  0.00  0.00    +0.024 A 
BRANCH   8  11
ATOM     11  C   UNL     1       1.588 -10.890  -0.986  0.00  0.00    +0.064 A 
ATOM     12  C   UNL     1       2.887 -11.290  -0.927  0.00  0.00    +0.113 A 
ATOM     13  N   UNL     1       2.879 -12.650  -0.996  0.00  0.00    -0.335 N 
ATOM     14  C   UNL     1       1.587 -13.048  -1.095  0.00  0.00    +0.087 A 
ATOM     15  N   UNL     1       0.822 -11.997  -1.083  0.00  0.00    -0.343 N 
ATOM     16  C   UNL     1       1.155 -14.492  -1.197  0.00  0.00    +0.072 C 
ATOM     17  C   UNL     1       2.381 -15.335  -1.567  0.00  0.00    +0.009 C 
ATOM     18  C   UNL     1       3.544 -14.969  -0.641  0.00  0.00    +0.022 C 
ATOM     19  C   UNL     1       4.032 -13.553  -0.969  0.00  0.00    +0.123 C 
ATOM     20  H   UNL     1      -0.147 -12.007  -1.137  0.00  0.00    +0.167 HD
ENDBRANCH   8  11
ENDBRANCH   3   5
BRANCH   1  21
ATOM     21  C   UNL     1       0.028  -3.133  -1.248  0.00  0.00    +0.198 C 
BRANCH  21  22
ATOM     22  N   UNL     1       0.983  -2.263  -1.940  0.00  0.00    -0.334 N 
ATOM     23  H   UNL     1       1.749  -2.647  -2.393  0.00  0.00    +0.147 HD
BRANCH  22  28
ATOM     24  C   UNL     1      -0.448   1.048  -1.235  0.00  0.00    +0.002 A 
ATOM     25  C   UNL     1       0.405   1.861  -1.960  0.00  0.00    +0.002 A 
ATOM     26  C   UNL     1       1.449   1.307  -2.677  0.00  0.00    +0.034 A 
ATOM     27  C   UNL     1       1.644  -0.060  -2.673  0.00  0.00    +0.147 A 
ATOM     28  C   UNL     1       0.789  -0.879  -1.946  0.00  0.00    +0.058 A 
ATOM     29  C   UNL     1      -0.259  -0.320  -1.226  0.00  0.00    +0.025 A 
BRANCH  27  30
ATOM     30  N   UNL     1       2.761  -0.652  -3.441  0.00  0.00    +0.058 N 
ATOM     31  O   UNL     1       3.373  -1.593  -2.991  0.00  0.00    -0.126 OA
ATOM     32  O   UNL     1       3.062  -0.195  -4.519  0.00  0.00    -0.126 OA
ENDBRANCH  27  30
ENDBRANCH  22  28
ENDBRANCH  21  22
ENDBRANCH   1  21
TORSDOF 6
