REMARK  Name = ZINC10987850
REMARK  7 active torsions:
REMARK  status: ('A' for Active; 'I' for Inactive)
REMARK    1  A    between atoms: C_3  and  O_12
REMARK    2  A    between atoms: O_12  and  C_13
REMARK    3  A    between atoms: C_13  and  C_14
REMARK    4  A    between atoms: C_14  and  O_16
REMARK    5  A    between atoms: O_16  and  C_17
REMARK    6  A    between atoms: C_17  and  C_18
REMARK    7  A    between atoms: N_23  and  C_24
REMARK                            x       y       z     vdW  Elec       q    Type
REMARK                         _______ _______ _______ _____ _____    ______ ____
ROOT
ATOM      1  C   UNL     1      -4.164   7.310   0.061  0.00  0.00    +0.258 C 
ATOM      2  O   UNL     1      -3.126   7.935   0.060  0.00  0.00    -0.272 OA
ATOM      3  N   UNL     1      -5.344   7.962   0.070  0.00  0.00    -0.237 N 
ATOM      4  C   UNL     1      -5.368   9.309   0.078  0.00  0.00    +0.306 C 
ATOM      5  O   UNL     1      -4.327   9.936   0.076  0.00  0.00    -0.252 OA
ATOM      6  N   UNL     1      -6.548   9.962   0.087  0.00  0.00    -0.294 N 
ATOM      7  H   UNL     1      -6.175   7.462   0.072  0.00  0.00    +0.159 HD
ATOM      8  H   UNL     1      -7.379   9.461   0.088  0.00  0.00    +0.151 HD
ENDROOT
BRANCH   6   9
ATOM      9  C   UNL     1      -6.574  11.427   0.095  0.00  0.00    +0.037 C 
ATOM     10  C   UNL     1      -5.857  11.943   1.344  0.00  0.00    +0.029 C 
ATOM     11  C   UNL     1      -5.885  13.473   1.352  0.00  0.00    -0.008 C 
ATOM     12  C   UNL     1      -7.337  13.956   1.362  0.00  0.00    +0.007 C 
ATOM     13  C   UNL     1      -8.054  13.440   0.113  0.00  0.00    -0.008 C 
ATOM     14  C   UNL     1      -8.026  11.910   0.105  0.00  0.00    +0.029 C 
ATOM     15  C   UNL     1      -7.348  13.970  -1.137  0.00  0.00    +0.007 C 
ATOM     16  C   UNL     1      -5.897  13.486  -1.146  0.00  0.00    -0.008 C 
ATOM     17  C   UNL     1      -5.179  14.002   0.103  0.00  0.00    +0.007 C 
ATOM     18  C   UNL     1      -5.869  11.957  -1.155  0.00  0.00    +0.029 C 
ENDBRANCH   6   9
BRANCH   1  19
ATOM     19  C   UNL     1      -4.137   5.803   0.053  0.00  0.00    +0.328 C 
BRANCH  19  20
ATOM     20  O   UNL     1      -2.759   5.344   0.044  0.00  0.00    -0.453 OA
BRANCH  20  21
ATOM     21  C   UNL     1      -2.559   4.017   0.036  0.00  0.00    +0.346 C 
ATOM     22  O   UNL     1      -3.503   3.263   0.036  0.00  0.00    -0.247 OA
BRANCH  21  23
ATOM     23  C   UNL     1      -1.156   3.466   0.026  0.00  0.00    +0.349 C 
BRANCH  23  24
ATOM     24  O   UNL     1      -1.204   2.038   0.019  0.00  0.00    -0.481 OA
BRANCH  24  27
ATOM     25  C   UNL     1       2.376   1.460  -0.012  0.00  0.00    +0.015 A 
ATOM     26  C   UNL     1       1.173   2.106   0.002  0.00  0.00    +0.046 A 
ATOM     27  C   UNL     1      -0.017   1.381   0.010  0.00  0.00    +0.125 A 
ATOM     28  C   UNL     1       0.002  -0.004   0.002  0.00  0.00    +0.092 A 
ATOM     29  C   UNL     1       1.214  -0.676  -0.013  0.00  0.00    +0.143 A 
ATOM     30  C   UNL     1       2.413   0.061  -0.021  0.00  0.00    +0.018 A 
ATOM     31  C   UNL     1       3.689  -0.659  -0.036  0.00  0.00    +0.018 A 
ATOM     32  C   UNL     1       3.659  -2.017  -0.043  0.00  0.00    +0.092 A 
ATOM     33  C   UNL     1       2.421  -2.691  -0.035  0.00  0.00    +0.337 A 
ATOM     34  O   UNL     1       2.409  -3.909  -0.041  0.00  0.00    -0.245 OA
ATOM     35  O   UNL     1       1.256  -2.026  -0.020  0.00  0.00    -0.422 OA
ENDBRANCH  24  27
ENDBRANCH  23  24
ENDBRANCH  21  23
ENDBRANCH  20  21
ENDBRANCH  19  20
ENDBRANCH   1  19
TORSDOF 7
