REMARK  Name = ZINC00827340
REMARK  4 active torsions:
REMARK  status: ('A' for Active; 'I' for Inactive)
REMARK    1  A    between atoms: C_6  and  C_7
REMARK    2  A    between atoms: C_10  and  C_12
REMARK    3  A    between atoms: N_13  and  N_14
REMARK    4  A    between atoms: C_15  and  C_17
REMARK                            x       y       z     vdW  Elec       q    Type
REMARK                         _______ _______ _______ _____ _____    ______ ____
ROOT
ATOM      1  C   UNL     1      -4.870  -1.043   0.037  0.00  0.00    +0.176 C 
ATOM      2  N   UNL     1      -5.382   0.154   0.042  0.00  0.00    -0.184 NA
ENDROOT
BRANCH   1   6
ATOM      3  C   UNL     1      -1.264  -0.763   0.011  0.00  0.00    +0.136 A 
ATOM      4  C   UNL     1      -1.377  -2.122   0.010  0.00  0.00    +0.050 A 
ATOM      5  C   UNL     1      -2.746  -2.421   0.020  0.00  0.00    +0.051 A 
ATOM      6  C   UNL     1      -3.416  -1.217   0.026  0.00  0.00    +0.148 A 
ATOM      7  O   UNL     1      -2.500  -0.228   0.026  0.00  0.00    -0.454 OA
BRANCH   3  13
ATOM      8  C   UNL     1      -0.017   1.393   0.010  0.00  0.00    +0.012 A 
ATOM      9  C   UNL     1       1.170   2.095   0.002  0.00  0.00    +0.016 A 
ATOM     10  C   UNL     1       2.378   1.419  -0.013  0.00  0.00    +0.018 A 
ATOM     11  C   UNL     1       2.404   0.035  -0.021  0.00  0.00    +0.016 A 
ATOM     12  C   UNL     1       1.225  -0.680  -0.014  0.00  0.00    +0.012 A 
ATOM     13  C   UNL     1       0.002  -0.004   0.002  0.00  0.00    +0.017 A 
ATOM     14 BR   UNL     1       4.000   2.391  -0.024  0.00  0.00    -0.050 Br
ENDBRANCH   3  13
ENDBRANCH   1   6
BRANCH   2  15
ATOM     15  N   UNL     1      -6.773   0.321   0.052  0.00  0.00    -0.203 N 
ATOM     16  C   UNL     1      -7.303   1.560   0.058  0.00  0.00    +0.263 C 
ATOM     17  O   UNL     1      -6.574   2.533   0.054  0.00  0.00    -0.268 OA
ATOM     18  H   UNL     1      -7.354  -0.456   0.056  0.00  0.00    +0.178 HD
BRANCH  16  19
ATOM     19  C   UNL     1      -8.768   1.735   0.069  0.00  0.00    +0.042 A 
ATOM     20  C   UNL     1      -9.607   0.618   0.080  0.00  0.00    +0.017 A 
ATOM     21  C   UNL     1     -10.975   0.784   0.090  0.00  0.00    +0.050 A 
ATOM     22  C   UNL     1     -11.524   2.059   0.090  0.00  0.00    +0.166 A 
ATOM     23  C   UNL     1     -10.691   3.179   0.079  0.00  0.00    +0.167 A 
ATOM     24  C   UNL     1      -9.319   3.019   0.074  0.00  0.00    +0.062 A 
ATOM     25  O   UNL     1     -11.470   4.301   0.081  0.00  0.00    -0.453 OA
ATOM     26  C   UNL     1     -12.780   3.859  -0.320  0.00  0.00    +0.466 C 
ATOM     27  O   UNL     1     -12.821   2.482   0.099  0.00  0.00    -0.453 OA
ENDBRANCH  16  19
ENDBRANCH   2  15
TORSDOF 4
