REMARK  Name = ZINC45399679
REMARK  11 active torsions:
REMARK  status: ('A' for Active; 'I' for Inactive)
REMARK    1  A    between atoms: C_1  and  C_2
REMARK    2  A    between atoms: C_2  and  O_3
REMARK    3  A    between atoms: O_3  and  C_4
REMARK    4  A    between atoms: C_4  and  C_6
REMARK    5  A    between atoms: C_7  and  C_14
REMARK    6  A    between atoms: C_8  and  C_12
REMARK    7  A    between atoms: C_9  and  N_11
REMARK    8  A    between atoms: C_14  and  O_15
REMARK    9  A    between atoms: O_15  and  C_16
REMARK   10  A    between atoms: C_16  and  C_18
REMARK   11  A    between atoms: C_20  and  C_24
REMARK                            x       y       z     vdW  Elec       q    Type
REMARK                         _______ _______ _______ _____ _____    ______ ____
ROOT
ATOM      1  C   UNL     1       1.146  -4.784  -1.959  0.00  0.00    +0.270 C 
ENDROOT
BRANCH   1   3
ATOM      2  C   UNL     1       1.428  -2.328  -2.479  0.00  0.00    +0.106 A 
ATOM      3  C   UNL     1       1.630  -3.649  -2.825  0.00  0.00    +0.030 A 
ATOM      4  C   UNL     1       2.306  -3.871  -4.014  0.00  0.00    +0.087 A 
ATOM      5  C   UNL     1       2.715  -2.754  -4.747  0.00  0.00    +0.082 A 
ATOM      6  S   UNL     1       2.183  -1.450  -3.833  0.00  0.00    -0.066 S 
BRANCH   5   7
ATOM      7  N   UNL     1       3.395  -2.729  -5.944  0.00  0.00    -0.352 N 
ATOM      8  H   UNL     1       3.645  -3.560  -6.377  0.00  0.00    +0.143 HD
ATOM      9  H   UNL     1       3.623  -1.880  -6.354  0.00  0.00    +0.143 HD
ENDBRANCH   5   7
BRANCH   2  10
ATOM     10  C   UNL     1       0.776  -1.801  -1.335  0.00  0.00    +0.346 C 
ATOM     11  O   UNL     1       0.312  -2.553  -0.499  0.00  0.00    -0.244 OA
BRANCH  10  12
ATOM     12  O   UNL     1       0.671  -0.465  -1.174  0.00  0.00    -0.461 OA
BRANCH  12  14
ATOM     13  C   UNL     1      -0.019   1.526   0.010  0.00  0.00    +0.048 C 
ATOM     14  C   UNL     1       0.002  -0.004   0.002  0.00  0.00    +0.229 C 
ENDBRANCH  12  14
ENDBRANCH  10  12
ENDBRANCH   2  10
BRANCH   4  15
ATOM     15  C   UNL     1       2.575  -5.199  -4.477  0.00  0.00    +0.102 C 
ATOM     16  N   UNL     1       2.789  -6.253  -4.844  0.00  0.00    -0.191 NA
ENDBRANCH   4  15
ENDBRANCH   1   3
BRANCH   1  17
ATOM     17  O   UNL     1      -0.180  -5.148  -2.349  0.00  0.00    -0.455 OA
BRANCH  17  18
ATOM     18  C   UNL     1      -0.763  -6.155  -1.669  0.00  0.00    +0.357 C 
ATOM     19  O   UNL     1      -0.163  -6.708  -0.768  0.00  0.00    -0.243 OA
BRANCH  18  20
ATOM     20  C   UNL     1      -2.126  -6.584  -2.015  0.00  0.00    +0.143 A 
ATOM     21  C   UNL     1      -2.856  -7.591  -1.411  0.00  0.00    +0.064 A 
ATOM     22  C   UNL     1      -4.087  -7.616  -2.091  0.00  0.00    +0.093 A 
ATOM     23  N   UNL     1      -4.049  -6.683  -3.018  0.00  0.00    -0.173 NA
ATOM     24  N   UNL     1      -2.924  -6.063  -2.996  0.00  0.00    -0.270 N 
ATOM     25  H   UNL     1      -2.677  -5.335  -3.587  0.00  0.00    +0.189 HD
BRANCH  22  26
ATOM     26  C   UNL     1      -5.223  -8.531  -1.814  0.00  0.00    +0.002 A 
ATOM     27  C   UNL     1      -5.129  -9.473  -0.793  0.00  0.00    +0.011 A 
ATOM     28  C   UNL     1      -6.188 -10.321  -0.539  0.00  0.00    +0.016 A 
ATOM     29  C   UNL     1      -7.342 -10.236  -1.297  0.00  0.00    +0.018 A 
ATOM     30  C   UNL     1      -7.441  -9.301  -2.313  0.00  0.00    +0.016 A 
ATOM     31  C   UNL     1      -6.390  -8.445  -2.571  0.00  0.00    +0.011 A 
ATOM     32 BR   UNL     1      -8.789 -11.402  -0.945  0.00  0.00    -0.050 Br
ENDBRANCH  22  26
ENDBRANCH  18  20
ENDBRANCH  17  18
ENDBRANCH   1  17
TORSDOF 10
