REMARK  Name = ZINC59895216
REMARK  7 active torsions:
REMARK  status: ('A' for Active; 'I' for Inactive)
REMARK    1  A    between atoms: C_1  and  O_2
REMARK    2  A    between atoms: O_2  and  C_3
REMARK    3  A    between atoms: N_5  and  C_6
REMARK    4  A    between atoms: C_9  and  C_12
REMARK    5  A    between atoms: C_12  and  N_13
REMARK    6  A    between atoms: C_14  and  C_16
REMARK    7  A    between atoms: C_18  and  C_22
REMARK                            x       y       z     vdW  Elec       q    Type
REMARK                         _______ _______ _______ _____ _____    ______ ____
ROOT
ATOM      1  N   UNL     1      -6.699  -4.639  -1.733  0.00  0.00    -0.306 N 
ATOM      2  C   UNL     1      -7.876  -5.211  -2.055  0.00  0.00    +0.262 C 
ATOM      3  O   UNL     1      -8.652  -5.542  -1.179  0.00  0.00    -0.269 OA
ATOM      4  H   UNL     1      -6.080  -4.375  -2.432  0.00  0.00    +0.149 HD
ENDROOT
BRANCH   2   5
ATOM      5  C   UNL     1      -8.223  -5.435  -3.468  0.00  0.00    +0.121 A 
ATOM      6  C   UNL     1      -9.386  -6.000  -3.954  0.00  0.00    +0.062 A 
ATOM      7  C   UNL     1      -9.245  -5.995  -5.354  0.00  0.00    +0.093 A 
ATOM      8  N   UNL     1      -8.075  -5.459  -5.633  0.00  0.00    -0.173 NA
ATOM      9  N   UNL     1      -7.461  -5.119  -4.558  0.00  0.00    -0.272 N 
ATOM     10  H   UNL     1      -6.586  -4.702  -4.524  0.00  0.00    +0.189 HD
BRANCH   7  11
ATOM     11  C   UNL     1     -10.234  -6.501  -6.338  0.00  0.00    +0.002 A 
ATOM     12  C   UNL     1     -11.441  -7.042  -5.900  0.00  0.00    +0.011 A 
ATOM     13  C   UNL     1     -12.358  -7.511  -6.818  0.00  0.00    +0.020 A 
ATOM     14  C   UNL     1     -12.080  -7.446  -8.173  0.00  0.00    +0.041 A 
ATOM     15  C   UNL     1     -10.882  -6.910  -8.613  0.00  0.00    +0.020 A 
ATOM     16  C   UNL     1      -9.961  -6.432  -7.702  0.00  0.00    +0.011 A 
ATOM     17 CL   UNL     1     -13.238  -8.038  -9.323  0.00  0.00    -0.084 Cl
ENDBRANCH   7  11
ENDBRANCH   2   5
BRANCH   1  18
ATOM     18  C   UNL     1      -6.354  -4.416  -0.327  0.00  0.00    +0.140 C 
BRANCH  18  22
ATOM     19  C   UNL     1      -2.502  -2.580  -0.078  0.00  0.00    +0.036 A 
ATOM     20  C   UNL     1      -3.644  -1.794  -0.165  0.00  0.00    +0.024 A 
ATOM     21  C   UNL     1      -4.887  -2.390  -0.245  0.00  0.00    +0.007 A 
ATOM     22  C   UNL     1      -4.996  -3.769  -0.239  0.00  0.00    -0.030 A 
ATOM     23  C   UNL     1      -3.861  -4.554  -0.153  0.00  0.00    +0.007 A 
ATOM     24  C   UNL     1      -2.615  -3.964  -0.079  0.00  0.00    +0.024 A 
BRANCH  19  27
ATOM     25  C   UNL     1      -0.180  -2.554  -0.595  0.00  0.00    +0.404 C 
ATOM     26  O   UNL     1      -0.300  -3.637  -1.133  0.00  0.00    -0.226 OA
ATOM     27  N   UNL     1      -1.242  -1.978   0.003  0.00  0.00    -0.251 N 
ATOM     28  H   UNL     1      -1.131  -1.147   0.490  0.00  0.00    +0.158 HD
BRANCH  25  30
ATOM     29  C   UNL     1       2.094  -2.599  -1.249  0.00  0.00    +0.282 C 
ATOM     30  O   UNL     1       1.013  -1.930  -0.596  0.00  0.00    -0.453 OA
ENDBRANCH  25  30
ENDBRANCH  19  27
ENDBRANCH  18  22
ENDBRANCH   1  18
TORSDOF 6
