REMARK  Name = ZINC39922735
REMARK  6 active torsions:
REMARK  status: ('A' for Active; 'I' for Inactive)
REMARK    1  A    between atoms: C_1  and  C_2
REMARK    2  A    between atoms: C_2  and  C_25
REMARK    3  A    between atoms: N_3  and  N_4
REMARK    4  A    between atoms: C_5  and  C_7
REMARK    5  A    between atoms: C_10  and  C_13
REMARK    6  A    between atoms: C_28  and  N_31
REMARK                            x       y       z     vdW  Elec       q    Type
REMARK                         _______ _______ _______ _____ _____    ______ ____
ROOT
ATOM      1  C   UNL     1       0.042   0.110   4.817  0.00  0.00    +0.240 C 
ATOM      2  C   UNL     1       1.444   0.567   5.181  0.00  0.00    +0.041 C 
ATOM      3  C   UNL     1       1.706  -0.082   6.333  0.00  0.00    +0.092 C 
ATOM      4  N   UNL     1       0.648  -0.857   6.692  0.00  0.00    -0.153 NA
ATOM      5  N   UNL     1      -0.311  -0.808   5.913  0.00  0.00    -0.170 NA
ENDROOT
BRANCH   3   6
ATOM      6  C   UNL     1       2.969   0.032   7.099  0.00  0.00    +0.010 A 
ATOM      7  C   UNL     1       4.044   0.749   6.593  0.00  0.00    +0.011 A 
ATOM      8  C   UNL     1       5.242   0.873   7.292  0.00  0.00    +0.005 A 
ATOM      9  C   UNL     1       5.398   0.285   8.512  0.00  0.00    -0.039 A 
ATOM     10  C   UNL     1       4.331  -0.438   9.037  0.00  0.00    -0.011 A 
ATOM     11  C   UNL     1       3.104  -0.583   8.366  0.00  0.00    -0.008 A 
ATOM     12  C   UNL     1       2.097  -1.329   8.993  0.00  0.00    +0.009 A 
ATOM     13  C   UNL     1       2.347  -1.874  10.220  0.00  0.00    +0.001 A 
ATOM     14  C   UNL     1       3.571  -1.714  10.871  0.00  0.00    +0.004 A 
ATOM     15  C   UNL     1       4.574  -1.004  10.284  0.00  0.00    -0.039 A 
ATOM     16  C   UNL     1       5.982  -0.633  10.683  0.00  0.00    +0.040 C 
ATOM     17  C   UNL     1       6.526   0.217   9.514  0.00  0.00    +0.040 C 
ENDBRANCH   3   6
BRANCH   1  19
ATOM     18  N   UNL     1       0.017   0.083   2.344  0.00  0.00    -0.205 N 
ATOM     19  C   UNL     1       0.045  -0.616   3.496  0.00  0.00    +0.263 C 
ATOM     20  O   UNL     1       0.073  -1.828   3.470  0.00  0.00    -0.271 OA
ATOM     21  H   UNL     1      -0.006   1.052   2.365  0.00  0.00    +0.177 HD
BRANCH  18  24
ATOM     22  C   UNL     1      -0.043   1.587   0.039  0.00  0.00    +0.068 C 
ATOM     23  C   UNL     1      -0.008   0.081   0.006  0.00  0.00    +0.063 C 
ATOM     24  N   UNL     1       0.019  -0.592   1.116  0.00  0.00    -0.184 NA
BRANCH  23  25
ATOM     25  C   UNL     1      -0.005  -0.629  -1.286  0.00  0.00    -0.002 A 
ATOM     26  C   UNL     1      -0.029   0.091  -2.483  0.00  0.00    +0.012 A 
ATOM     27  C   UNL     1      -0.026  -0.579  -3.688  0.00  0.00    +0.033 A 
ATOM     28  C   UNL     1       0.001  -1.962  -3.714  0.00  0.00    +0.126 A 
ATOM     29  C   UNL     1       0.024  -2.683  -2.533  0.00  0.00    +0.033 A 
ATOM     30  C   UNL     1       0.027  -2.025  -1.320  0.00  0.00    +0.012 A 
BRANCH  28  31
ATOM     31  N   UNL     1       0.003  -2.675  -5.011  0.00  0.00    +0.056 N 
ATOM     32  O   UNL     1      -0.018  -2.048  -6.045  0.00  0.00    -0.126 OA
ATOM     33  O   UNL     1       0.026  -3.883  -5.037  0.00  0.00    -0.126 OA
ENDBRANCH  28  31
ENDBRANCH  23  25
ENDBRANCH  18  24
ENDBRANCH   1  19
TORSDOF 5
