REMARK  Name = ZINC33624227
REMARK  15 active torsions:
REMARK  status: ('A' for Active; 'I' for Inactive)
REMARK    1  A    between atoms: C_1  and  C_2
REMARK    2  A    between atoms: C_2  and  C_3
REMARK    3  A    between atoms: C_3  and  C_4
REMARK    4  A    between atoms: C_4  and  C_5
REMARK    5  A    between atoms: C_5  and  C_7
REMARK    6  A    between atoms: C_5  and  N_38
REMARK    7  A    between atoms: C_9  and  C_12
REMARK    8  A    between atoms: N_14  and  C_15
REMARK    9  A    between atoms: C_15  and  C_17
REMARK   10  A    between atoms: C_15  and  C_26
REMARK   11  A    between atoms: C_17  and  S_18
REMARK   12  A    between atoms: S_18  and  C_19
REMARK   13  A    between atoms: C_19  and  C_20
REMARK   14  A    between atoms: N_28  and  C_29
REMARK   15  A    between atoms: C_32  and  N_35
REMARK                            x       y       z     vdW  Elec       q    Type
REMARK                         _______ _______ _______ _____ _____    ______ ____
ROOT
ATOM      1  C   UNL     1      -1.133  -2.159  -0.005  0.00  0.00    +0.169 C 
ENDROOT
BRANCH   1   4
ATOM      2  C   UNL     1       0.003  -0.003  -0.007  0.00  0.00    +0.266 C 
ATOM      3  O   UNL     1       1.065  -0.596  -0.028  0.00  0.00    -0.268 OA
ATOM      4  N   UNL     1      -1.154  -0.694   0.006  0.00  0.00    -0.298 N 
ATOM      5  H   UNL     1      -2.115  -0.158   0.026  0.00  0.00    +0.150 HD
BRANCH   2   8
ATOM      6  C   UNL     1      -0.742   3.505   0.033  0.00  0.00    +0.182 A 
ATOM      7  N   UNL     1      -1.125   2.263   0.023  0.00  0.00    -0.210 NA
ATOM      8  C   UNL     1      -0.019   1.471   0.005  0.00  0.00    +0.163 A 
ATOM      9  C   UNL     1       1.064   2.295  -0.006  0.00  0.00    +0.230 A 
ATOM     10  O   UNL     1       0.598   3.554   0.011  0.00  0.00    -0.449 OA
BRANCH   6  11
ATOM     11  C   UNL     1      -1.659   4.701   0.056  0.00  0.00    +0.013 C 
BRANCH  11  12
ATOM     12  N   UNL     1      -1.195   5.692  -0.924  0.00  0.00    +0.386 N 
ATOM     13  H   UNL     1      -1.201   5.245  -1.929  0.00  0.00    -0.089 HD
ATOM     14  H   UNL     1      -0.173   6.009  -0.669  0.00  0.00    -0.089 HD
ATOM     15  H   UNL     1      -1.865   6.565  -0.907  0.00  0.00    -0.089 HD
ENDBRANCH  11  12
BRANCH  11  16
ATOM     16  C   UNL     1      -1.651   5.322   1.454  0.00  0.00    -0.007 C 
BRANCH  16  17
ATOM     17  C   UNL     1      -2.674   6.458   1.513  0.00  0.00    -0.001 C 
BRANCH  17  19
ATOM     18  C   UNL     1      -3.689   8.216   2.970  0.00  0.00    +0.004 C 
ATOM     19  C   UNL     1      -2.665   7.080   2.911  0.00  0.00    -0.003 C 
ENDBRANCH  17  19
ENDBRANCH  16  17
ENDBRANCH  11  16
ENDBRANCH   6  11
ENDBRANCH   2   8
ENDBRANCH   1   4
BRANCH   1  20
ATOM     20  C   UNL     1      -2.423  -2.675  -0.589  0.00  0.00    +0.238 C 
ATOM     21  O   UNL     1      -3.276  -1.896  -0.959  0.00  0.00    -0.273 OA
ATOM     22  N   UNL     1      -2.628  -4.003  -0.700  0.00  0.00    -0.284 N 
ATOM     23  H   UNL     1      -1.826  -4.707  -0.436  0.00  0.00    +0.155 HD
BRANCH  22  24
ATOM     24  C   UNL     1      -3.862  -4.484  -1.151  0.00  0.00    +0.034 A 
ATOM     25  C   UNL     1      -4.376  -5.668  -0.639  0.00  0.00    +0.025 A 
ATOM     26  C   UNL     1      -5.597  -6.138  -1.083  0.00  0.00    +0.034 A 
ATOM     27  C   UNL     1      -6.301  -5.437  -2.044  0.00  0.00    +0.126 A 
ATOM     28  C   UNL     1      -5.790  -4.260  -2.560  0.00  0.00    +0.034 A 
ATOM     29  C   UNL     1      -4.572  -3.782  -2.116  0.00  0.00    +0.025 A 
BRANCH  27  30
ATOM     30  N   UNL     1      -7.607  -5.946  -2.522  0.00  0.00    +0.056 N 
ATOM     31  O   UNL     1      -8.229  -5.329  -3.368  0.00  0.00    -0.126 OA
ATOM     32  O   UNL     1      -8.059  -6.983  -2.068  0.00  0.00    -0.126 OA
ENDBRANCH  27  30
ENDBRANCH  22  24
ENDBRANCH   1  20
BRANCH   1  33
ATOM     33  C   UNL     1      -0.977  -2.678   1.426  0.00  0.00    +0.101 C 
BRANCH  33  34
ATOM     34  S   UNL     1       0.575  -2.056   2.128  0.00  0.00    -0.154 S 
BRANCH  34  35
ATOM     35  C   UNL     1       0.609  -2.752   3.803  0.00  0.00    +0.104 C 
BRANCH  35  36
ATOM     36  C   UNL     1       1.865  -2.307   4.507  0.00  0.00    -0.038 A 
ATOM     37  C   UNL     1       3.013  -3.072   4.422  0.00  0.00    +0.004 A 
ATOM     38  C   UNL     1       4.167  -2.661   5.063  0.00  0.00    +0.000 A 
ATOM     39  C   UNL     1       4.169  -1.491   5.799  0.00  0.00    +0.000 A 
ATOM     40  C   UNL     1       3.019  -0.729   5.889  0.00  0.00    +0.000 A 
ATOM     41  C   UNL     1       1.867  -1.137   5.243  0.00  0.00    +0.004 A 
ENDBRANCH  35  36
ENDBRANCH  34  35
ENDBRANCH  33  34
ENDBRANCH   1  33
TORSDOF 14
