REMARK  Name = ZINC25703271
REMARK  10 active torsions:
REMARK  status: ('A' for Active; 'I' for Inactive)
REMARK    1  A    between atoms: C_1  and  C_2
REMARK    2  A    between atoms: C_2  and  N_3
REMARK    3  A    between atoms: N_3  and  C_4
REMARK    4  A    between atoms: N_3  and  C_17
REMARK    5  A    between atoms: C_4  and  C_5
REMARK    6  A    between atoms: C_17  and  C_18
REMARK    7  A    between atoms: N_23  and  C_24
REMARK    8  A    between atoms: C_24  and  C_25
REMARK    9  A    between atoms: C_24  and  C_26
REMARK   10  A    between atoms: C_24  and  C_27
REMARK                            x       y       z     vdW  Elec       q    Type
REMARK                         _______ _______ _______ _____ _____    ______ ____
ROOT
ATOM      1  N   UNL     1       0.820  -0.508   1.116  0.00  0.00    -0.287 NA
ENDROOT
BRANCH   1   3
ATOM      2  C   UNL     1      -0.269   1.623   0.598  0.00  0.00    +0.020 C 
ATOM      3  C   UNL     1      -0.053   0.176   0.152  0.00  0.00    +0.082 C 
ENDBRANCH   1   3
BRANCH   1   4
ATOM      4  C   UNL     1       0.763  -1.965   0.936  0.00  0.00    +0.159 C 
BRANCH   4   5
ATOM      5  C   UNL     1      -0.617  -2.461   1.287  0.00  0.00    +0.125 A 
ATOM      6  N   UNL     1      -0.867  -3.792   1.188  0.00  0.00    -0.309 N 
ATOM      7  H   UNL     1      -0.164  -4.394   0.898  0.00  0.00    +0.170 HD
ATOM      8  C   UNL     1      -2.090  -4.288   1.492  0.00  0.00    +0.259 A 
ATOM      9  O   UNL     1      -2.328  -5.479   1.409  0.00  0.00    -0.267 OA
ATOM     10  C   UNL     1      -3.119  -3.332   1.927  0.00  0.00    +0.065 A 
ATOM     11  C   UNL     1      -4.408  -3.739   2.262  0.00  0.00    +0.015 A 
ATOM     12  C   UNL     1      -5.334  -2.800   2.663  0.00  0.00    +0.001 A 
ATOM     13  C   UNL     1      -4.991  -1.456   2.735  0.00  0.00    +0.002 A 
ATOM     14  C   UNL     1      -3.722  -1.033   2.408  0.00  0.00    +0.028 A 
ATOM     15  C   UNL     1      -2.766  -1.966   1.999  0.00  0.00    +0.078 A 
ATOM     16  N   UNL     1      -1.503  -1.594   1.672  0.00  0.00    -0.232 NA
ENDBRANCH   4   5
ENDBRANCH   1   4
BRANCH   1  17
ATOM     17  C   UNL     1       2.201  -0.019   1.015  0.00  0.00    +0.181 C 
BRANCH  17  18
ATOM     18  C   UNL     1       2.971  -0.431   2.243  0.00  0.00    +0.234 C 
ATOM     19  O   UNL     1       2.399  -0.975   3.163  0.00  0.00    -0.274 OA
ATOM     20  N   UNL     1       4.296  -0.196   2.319  0.00  0.00    -0.239 N 
ATOM     21  C   UNL     1       4.985  -0.564   3.417  0.00  0.00    +0.306 C 
ATOM     22  O   UNL     1       4.411  -1.109   4.340  0.00  0.00    -0.252 OA
ATOM     23  N   UNL     1       6.309  -0.329   3.492  0.00  0.00    -0.294 N 
ATOM     24  H   UNL     1       4.754   0.239   1.582  0.00  0.00    +0.159 HD
ATOM     25  H   UNL     1       6.767   0.106   2.756  0.00  0.00    +0.151 HD
BRANCH  23  26
ATOM     26  C   UNL     1       7.058  -0.730   4.686  0.00  0.00    +0.028 C 
ATOM     27  C   UNL     1       6.940  -2.243   4.878  0.00  0.00    +0.031 C 
ATOM     28  C   UNL     1       8.530  -0.350   4.516  0.00  0.00    +0.031 C 
ATOM     29  C   UNL     1       6.485  -0.014   5.911  0.00  0.00    +0.031 C 
ENDBRANCH  23  26
ENDBRANCH  17  18
ENDBRANCH   1  17
TORSDOF 6
