REMARK  Name = ZINC44551913
REMARK  6 active torsions:
REMARK  status: ('A' for Active; 'I' for Inactive)
REMARK    1  A    between atoms: C_4  and  N_7
REMARK    2  A    between atoms: N_10  and  C_13
REMARK    3  A    between atoms: C_13  and  N_15
REMARK    4  A    between atoms: N_15  and  N_16
REMARK    5  A    between atoms: C_17  and  C_18
REMARK    6  A    between atoms: C_21  and  N_23
REMARK                            x       y       z     vdW  Elec       q    Type
REMARK                         _______ _______ _______ _____ _____    ______ ____
ROOT
ATOM      1  C   UNL     1       7.003  -2.423   1.111  0.00  0.00    +0.153 C 
ATOM      2  S   UNL     1       7.029  -4.134   1.157  0.00  0.00    -0.017 S 
ENDROOT
BRANCH   1   6
ATOM      3  N   UNL     1       3.604  -0.766  -0.159  0.00  0.00    -0.327 N 
ATOM      4  C   UNL     1       4.868  -0.045  -0.360  0.00  0.00    +0.124 C 
ATOM      5  C   UNL     1       5.785  -0.318   0.839  0.00  0.00    +0.125 C 
ATOM      6  N   UNL     1       5.827  -1.767   1.078  0.00  0.00    -0.308 N 
ATOM      7  C   UNL     1       4.562  -2.489   1.279  0.00  0.00    +0.125 C 
ATOM      8  C   UNL     1       3.646  -2.215   0.086  0.00  0.00    +0.124 C 
BRANCH   3  12
ATOM      9  C   UNL     1      -0.032   1.260  -0.261  0.00  0.00    +0.000 A 
ATOM     10  C   UNL     1      -0.013  -0.117  -0.141  0.00  0.00    +0.002 A 
ATOM     11  C   UNL     1       1.191  -0.793  -0.107  0.00  0.00    +0.023 A 
ATOM     12  C   UNL     1       2.384  -0.087  -0.193  0.00  0.00    +0.030 A 
ATOM     13  C   UNL     1       2.362   1.297  -0.314  0.00  0.00    +0.023 A 
ATOM     14  C   UNL     1       1.154   1.966  -0.348  0.00  0.00    +0.002 A 
ENDBRANCH   3  12
ENDBRANCH   1   6
BRANCH   1  15
ATOM     15  N   UNL     1       8.161  -1.732   1.109  0.00  0.00    -0.218 N 
ATOM     16  H   UNL     1       9.005  -2.201   1.025  0.00  0.00    +0.176 HD
BRANCH  15  17
ATOM     17  N   UNL     1       8.144  -0.447   1.218  0.00  0.00    -0.185 NA
ATOM     18  C   UNL     1       9.293   0.240   1.216  0.00  0.00    +0.176 C 
BRANCH  18  19
ATOM     19  C   UNL     1       9.276   1.616   1.333  0.00  0.00    +0.150 A 
ATOM     20  C   UNL     1      10.445   2.512   1.341  0.00  0.00    +0.053 A 
ATOM     21  C   UNL     1       9.947   3.776   1.475  0.00  0.00    +0.076 A 
ATOM     22  C   UNL     1       8.559   3.680   1.547  0.00  0.00    +0.280 A 
ATOM     23  O   UNL     1       8.181   2.402   1.456  0.00  0.00    -0.433 OA
BRANCH  22  24
ATOM     24  N   UNL     1       7.635   4.829   1.696  0.00  0.00    +0.093 N 
ATOM     25  O   UNL     1       8.114   6.053   1.772  0.00  0.00    -0.123 OA
ATOM     26  O   UNL     1       6.335   4.626   1.754  0.00  0.00    -0.123 OA
ENDBRANCH  22  24
ENDBRANCH  18  19
ENDBRANCH  15  17
ENDBRANCH   1  15
TORSDOF 6
