REMARK  Name = ZINC00115326
REMARK  11 active torsions:
REMARK  status: ('A' for Active; 'I' for Inactive)
REMARK    1  A    between atoms: C_1  and  C_2
REMARK    2  A    between atoms: C_2  and  C_3
REMARK    3  A    between atoms: C_2  and  C_4
REMARK    4  A    between atoms: C_2  and  C_5
REMARK    5  A    between atoms: N_6  and  N_7
REMARK    6  A    between atoms: C_8  and  C_10
REMARK    7  A    between atoms: C_12  and  C_15
REMARK    8  A    between atoms: C_18  and  C_21
REMARK    9  A    between atoms: C_21  and  C_22
REMARK   10  A    between atoms: C_21  and  C_23
REMARK   11  A    between atoms: C_21  and  C_24
REMARK                            x       y       z     vdW  Elec       q    Type
REMARK                         _______ _______ _______ _____ _____    ______ ____
ROOT
ATOM      1  C   UNL     1       4.761   1.013  -0.038  0.00  0.00    +0.315 A 
ATOM      2  N   UNL     1       5.962   1.554  -0.046  0.00  0.00    -0.183 NA
ATOM      3  C   UNL     1       6.825   0.518  -0.060  0.00  0.00    +0.203 A 
ATOM      4  N   UNL     1       6.115  -0.582  -0.059  0.00  0.00    -0.055 NA
ATOM      5  O   UNL     1       4.932  -0.318  -0.041  0.00  0.00    -0.328 OA
ENDROOT
BRANCH   3   6
ATOM      6  C   UNL     1       8.307   0.609  -0.074  0.00  0.00    +0.022 A 
ATOM      7  C   UNL     1       8.931   1.855  -0.080  0.00  0.00    +0.012 A 
ATOM      8  C   UNL     1      10.309   1.933  -0.087  0.00  0.00    +0.005 A 
ATOM      9  C   UNL     1      11.070   0.778  -0.101  0.00  0.00    -0.042 A 
ATOM     10  C   UNL     1      10.455  -0.461  -0.101  0.00  0.00    +0.005 A 
ATOM     11  C   UNL     1       9.078  -0.551  -0.088  0.00  0.00    +0.012 A 
BRANCH   9  12
ATOM     12  C   UNL     1      12.574   0.870  -0.115  0.00  0.00    -0.013 C 
ATOM     13  C   UNL     1      13.114   0.188  -1.374  0.00  0.00    +0.015 C 
ATOM     14  C   UNL     1      12.995   2.341  -0.112  0.00  0.00    +0.015 C 
ATOM     15  C   UNL     1      13.139   0.174   1.125  0.00  0.00    +0.015 C 
ENDBRANCH   9  12
ENDBRANCH   3   6
BRANCH   1  17
ATOM     16  N   UNL     1       2.310   1.047  -0.014  0.00  0.00    -0.199 N 
ATOM     17  C   UNL     1       3.468   1.737  -0.022  0.00  0.00    +0.321 C 
ATOM     18  O   UNL     1       3.451   2.952  -0.015  0.00  0.00    -0.263 OA
ATOM     19  H   UNL     1       2.323   0.077  -0.020  0.00  0.00    +0.178 HD
BRANCH  16  21
ATOM     20  C   UNL     1      -0.013   1.076   0.008  0.00  0.00    +0.109 C 
ATOM     21  N   UNL     1       1.087   1.731   0.001  0.00  0.00    -0.192 NA
BRANCH  20  23
ATOM     22  C   UNL     1      -1.069   3.319   0.025  0.00  0.00    +0.016 C 
ATOM     23  C   UNL     1      -1.328   1.812   0.018  0.00  0.00    -0.001 C 
ATOM     24  C   UNL     1      -2.131   1.438  -1.229  0.00  0.00    +0.016 C 
ATOM     25  C   UNL     1      -2.119   1.424   1.269  0.00  0.00    +0.016 C 
ENDBRANCH  20  23
ENDBRANCH  16  21
ENDBRANCH   1  17
TORSDOF 5
