REMARK  Name = ZINC13191187
REMARK  10 active torsions:
REMARK  status: ('A' for Active; 'I' for Inactive)
REMARK    1  A    between atoms: C_1  and  C_2
REMARK    2  A    between atoms: C_6  and  C_8
REMARK    3  A    between atoms: C_8  and  N_9
REMARK    4  A    between atoms: C_15  and  C_17
REMARK    5  A    between atoms: C_17  and  N_18
REMARK    6  A    between atoms: N_18  and  C_19
REMARK    7  A    between atoms: N_18  and  C_20
REMARK    8  A    between atoms: C_23  and  C_29
REMARK    9  A    between atoms: C_25  and  N_26
REMARK   10  A    between atoms: C_30  and  C_31
REMARK                            x       y       z     vdW  Elec       q    Type
REMARK                         _______ _______ _______ _____ _____    ______ ____
ROOT
ATOM      1  C   UNL     1       4.639  -5.808   5.576  0.00  0.00    +0.200 C 
ENDROOT
BRANCH   1   8
ATOM      2  N   UNL     1       1.444  -3.074   2.904  0.00  0.00    -0.295 NA
ATOM      3  C   UNL     1       2.135  -3.964   1.962  0.00  0.00    +0.103 C 
ATOM      4  C   UNL     1       3.622  -4.033   2.326  0.00  0.00    +0.123 C 
ATOM      5  N   UNL     1       3.739  -4.414   3.742  0.00  0.00    -0.298 N 
ATOM      6  C   UNL     1       2.965  -3.653   4.734  0.00  0.00    +0.123 C 
ATOM      7  C   UNL     1       1.504  -3.599   4.275  0.00  0.00    +0.103 C 
ATOM      8  C   UNL     1       4.534  -5.434   4.120  0.00  0.00    +0.233 C 
ATOM      9  O   UNL     1       5.166  -6.051   3.289  0.00  0.00    -0.274 OA
BRANCH   2  10
ATOM     10  C   UNL     1       0.054  -2.845   2.489  0.00  0.00    +0.119 C 
BRANCH  10  16
ATOM     11  C   UNL     1      -0.018   1.503   0.010  0.00  0.00    +0.044 C 
ATOM     12  C   UNL     1       0.002  -0.004   0.002  0.00  0.00    -0.050 A 
ATOM     13  C   UNL     1       0.006  -0.689  -1.199  0.00  0.00    +0.003 A 
ATOM     14  C   UNL     1       0.025  -2.071  -1.207  0.00  0.00    +0.001 A 
ATOM     15  C   UNL     1       0.040  -2.768  -0.013  0.00  0.00    +0.005 A 
ATOM     16  C   UNL     1       0.037  -2.084   1.188  0.00  0.00    -0.033 A 
ATOM     17  C   UNL     1       0.023  -0.702   1.195  0.00  0.00    +0.008 A 
ENDBRANCH  10  16
ENDBRANCH   2  10
ENDBRANCH   1   8
BRANCH   1  18
ATOM     18  N   UNL     1       5.559  -6.939   5.725  0.00  0.00    -0.322 N 
ATOM     19  C   UNL     1       6.988  -6.697   5.937  0.00  0.00    +0.130 C 
BRANCH  18  20
ATOM     20  C   UNL     1       5.075  -8.241   5.665  0.00  0.00    +0.060 A 
ATOM     21  C   UNL     1       5.018  -8.905   4.442  0.00  0.00    +0.026 A 
ATOM     22  C   UNL     1       4.544 -10.184   4.378  0.00  0.00    +0.010 A 
ATOM     23  C   UNL     1       4.114 -10.829   5.546  0.00  0.00    -0.023 A 
ATOM     24  C   UNL     1       4.174 -10.157   6.774  0.00  0.00    +0.042 A 
ATOM     25  C   UNL     1       4.655  -8.880   6.829  0.00  0.00    +0.148 A 
BRANCH  25  26
ATOM     26  N   UNL     1       4.724  -8.171   8.127  0.00  0.00    +0.058 N 
ATOM     27  O   UNL     1       4.359  -8.725   9.138  0.00  0.00    -0.126 OA
ATOM     28  O   UNL     1       5.144  -7.039   8.176  0.00  0.00    -0.126 OA
ENDBRANCH  25  26
BRANCH  23  29
ATOM     29  C   UNL     1       3.603 -12.203   5.483  0.00  0.00    +0.015 C 
ATOM     30  C   UNL     1       3.546 -12.850   4.295  0.00  0.00    +0.096 C 
BRANCH  30  31
ATOM     31  C   UNL     1       3.054 -14.173   4.234  0.00  0.00    +0.380 C 
ATOM     32  O   UNL     1       2.679 -14.735   5.256  0.00  0.00    -0.241 OA
ATOM     33  O   UNL     1       3.003 -14.759   3.159  0.00  0.00    -0.241 OA
ENDBRANCH  30  31
ENDBRANCH  23  29
ENDBRANCH  18  20
ENDBRANCH   1  18
TORSDOF 8
