REMARK  Name = ZINC08845565
REMARK  12 active torsions:
REMARK  status: ('A' for Active; 'I' for Inactive)
REMARK    1  A    between atoms: C_1  and  C_2
REMARK    2  A    between atoms: C_2  and  O_3
REMARK    3  A    between atoms: O_3  and  C_4
REMARK    4  A    between atoms: C_6  and  C_14
REMARK    5  A    between atoms: C_9  and  O_10
REMARK    6  A    between atoms: O_10  and  C_11
REMARK    7  A    between atoms: C_11  and  C_12
REMARK    8  A    between atoms: C_17  and  C_31
REMARK    9  A    between atoms: N_24  and  C_25
REMARK   10  A    between atoms: C_25  and  C_26
REMARK   11  A    between atoms: C_33  and  C_38
REMARK   12  A    between atoms: C_36  and  O_37
REMARK                            x       y       z     vdW  Elec       q    Type
REMARK                         _______ _______ _______ _____ _____    ______ ____
ROOT
ATOM      1  C   UNL     1       0.811  -4.964   0.001  0.00  0.00    +0.142 C 
ATOM      2  C   UNL     1       0.897  -5.573  -1.372  0.00  0.00    +0.035 A 
ATOM      3  C   UNL     1       1.048  -5.364  -2.747  0.00  0.00    +0.102 A 
ATOM      4  N   UNL     1       1.013  -6.546  -3.331  0.00  0.00    -0.173 NA
ATOM      5  N   UNL     1       0.854  -7.479  -2.461  0.00  0.00    -0.272 N 
ATOM      6  H   UNL     1       0.800  -8.426  -2.664  0.00  0.00    +0.189 HD
ATOM      7  C   UNL     1       0.774  -6.939  -1.209  0.00  0.00    +0.126 A 
ATOM      8  C   UNL     1       0.612  -7.227   0.220  0.00  0.00    +0.266 C 
ATOM      9  O   UNL     1       0.478  -8.339   0.694  0.00  0.00    -0.268 OA
ATOM     10  N   UNL     1       0.633  -6.085   0.934  0.00  0.00    -0.278 N 
ENDROOT
BRANCH   3  11
ATOM     11  C   UNL     1       1.217  -4.054  -3.424  0.00  0.00    +0.044 A 
ATOM     12  C   UNL     1       2.126  -3.123  -2.928  0.00  0.00    +0.017 A 
ATOM     13  C   UNL     1       2.279  -1.906  -3.561  0.00  0.00    -0.050 A 
ATOM     14  C   UNL     1       1.532  -1.607  -4.687  0.00  0.00    +0.007 A 
ATOM     15  C   UNL     1       0.626  -2.524  -5.186  0.00  0.00    +0.046 A 
ATOM     16  C   UNL     1       0.468  -3.752  -4.564  0.00  0.00    +0.126 A 
ATOM     17  C   UNL     1       3.263  -0.899  -3.024  0.00  0.00    +0.044 C 
BRANCH  16  18
ATOM     18  O   UNL     1      -0.418  -4.657  -5.058  0.00  0.00    -0.506 OA
ATOM     19  H   UNL     1      -1.325  -4.527  -4.751  0.00  0.00    +0.292 HD
ENDBRANCH  16  18
ENDBRANCH   3  11
BRANCH   1  22
ATOM     20  C   UNL     1      -1.248  -1.809   0.282  0.00  0.00    +0.162 A 
ATOM     21  C   UNL     1      -0.164  -2.669   0.209  0.00  0.00    +0.055 A 
ATOM     22  C   UNL     1      -0.369  -4.030   0.081  0.00  0.00    -0.019 A 
ATOM     23  C   UNL     1      -1.654  -4.536   0.026  0.00  0.00    +0.009 A 
ATOM     24  C   UNL     1      -2.740  -3.684   0.099  0.00  0.00    +0.050 A 
ATOM     25  C   UNL     1      -2.541  -2.319   0.233  0.00  0.00    +0.162 A 
BRANCH  20  26
ATOM     26  O   UNL     1      -1.047  -0.470   0.408  0.00  0.00    -0.489 OA
BRANCH  26  28
ATOM     27  C   UNL     1       0.333   1.506   0.595  0.00  0.00    +0.048 C 
ATOM     28  C   UNL     1       0.308  -0.018   0.452  0.00  0.00    +0.226 C 
ENDBRANCH  26  28
ENDBRANCH  20  26
BRANCH  25  29
ATOM     29  O   UNL     1      -3.608  -1.479   0.310  0.00  0.00    -0.484 OA
BRANCH  29  30
ATOM     30  C   UNL     1      -4.907  -2.073   0.253  0.00  0.00    +0.256 C 
BRANCH  30  31
ATOM     31  C   UNL     1      -5.956  -0.996   0.353  0.00  0.00    +0.006 C 
ATOM     32  C   UNL     1      -6.987  -1.010  -0.456  0.00  0.00    +0.007 C 
ENDBRANCH  30  31
ENDBRANCH  29  30
ENDBRANCH  25  29
ENDBRANCH   1  22
BRANCH  10  33
ATOM     33  C   UNL     1       0.500  -5.978   2.389  0.00  0.00    +0.183 C 
BRANCH  33  34
ATOM     34  C   UNL     1      -0.956  -5.830   2.751  0.00  0.00    +0.122 A 
ATOM     35  C   UNL     1      -1.806  -6.838   3.017  0.00  0.00    +0.046 A 
ATOM     36  C   UNL     1      -3.059  -6.251   3.306  0.00  0.00    +0.041 A 
ATOM     37  C   UNL     1      -2.900  -4.920   3.199  0.00  0.00    +0.195 A 
ATOM     38  O   UNL     1      -1.622  -4.670   2.869  0.00  0.00    -0.466 OA
ENDBRANCH  33  34
ENDBRANCH  10  33
TORSDOF 10
