REMARK  Name = ZINC14652940
REMARK  12 active torsions:
REMARK  status: ('A' for Active; 'I' for Inactive)
REMARK    1  A    between atoms: C_1  and  C_2
REMARK    2  A    between atoms: C_2  and  C_3
REMARK    3  A    between atoms: C_3  and  C_4
REMARK    4  A    between atoms: C_4  and  N_5
REMARK    5  A    between atoms: C_6  and  N_34
REMARK    6  A    between atoms: C_7  and  N_14
REMARK    7  A    between atoms: N_14  and  C_15
REMARK    8  A    between atoms: C_15  and  C_16
REMARK    9  A    between atoms: C_21  and  C_23
REMARK   10  A    between atoms: C_23  and  C_25
REMARK   11  A    between atoms: C_23  and  O_26
REMARK   12  A    between atoms: O_26  and  C_27
REMARK                            x       y       z     vdW  Elec       q    Type
REMARK                         _______ _______ _______ _____ _____    ______ ____
ROOT
ATOM      1  N   UNL     1      -2.479   5.361  -0.952  0.00  0.00    -0.254 N 
ATOM      2  C   UNL     1      -1.999   4.103  -1.046  0.00  0.00    +0.261 C 
ATOM      3  O   UNL     1      -0.837   3.875  -0.781  0.00  0.00    -0.271 OA
ENDROOT
BRANCH   1   6
ATOM      4  N   UNL     1      -6.107   5.538  -0.404  0.00  0.00    -0.280 N 
ATOM      5  C   UNL     1      -4.775   5.284  -0.179  0.00  0.00    +0.127 A 
ATOM      6  C   UNL     1      -3.853   5.609  -1.153  0.00  0.00    +0.140 A 
ATOM      7  C   UNL     1      -4.307   6.198  -2.348  0.00  0.00    +0.277 A 
ATOM      8  O   UNL     1      -3.513   6.499  -3.224  0.00  0.00    -0.266 OA
ATOM      9  N   UNL     1      -5.624   6.421  -2.521  0.00  0.00    -0.273 N 
ATOM     10  H   UNL     1      -5.949   6.832  -3.373  0.00  0.00    +0.173 HD
ATOM     11  C   UNL     1      -6.508   6.098  -1.560  0.00  0.00    +0.331 A 
ATOM     12  O   UNL     1      -7.691   6.314  -1.740  0.00  0.00    -0.246 OA
BRANCH   5  13
ATOM     13  N   UNL     1      -4.366   4.712   1.002  0.00  0.00    -0.343 N 
ATOM     14  H   UNL     1      -3.420   4.603   1.186  0.00  0.00    +0.144 HD
ATOM     15  H   UNL     1      -5.023   4.418   1.652  0.00  0.00    +0.144 HD
ENDBRANCH   5  13
BRANCH   4  16
ATOM     16  C   UNL     1      -7.097   5.199   0.622  0.00  0.00    +0.128 C 
BRANCH  16  17
ATOM     17  C   UNL     1      -7.289   6.392   1.560  0.00  0.00    +0.021 C 
BRANCH  17  19
ATOM     18  C   UNL     1      -8.514   7.230   3.569  0.00  0.00    +0.004 C 
ATOM     19  C   UNL     1      -8.322   6.037   2.631  0.00  0.00    -0.002 C 
ENDBRANCH  17  19
ENDBRANCH  16  17
ENDBRANCH   4  16
ENDBRANCH   1   6
BRANCH   2  20
ATOM     20  C   UNL     1      -2.907   2.981  -1.482  0.00  0.00    +0.256 C 
ATOM     21  C   UNL     1      -3.249   3.148  -2.963  0.00  0.00    +0.062 C 
BRANCH  20  22
ATOM     22  O   UNL     1      -2.246   1.730  -1.283  0.00  0.00    -0.480 OA
BRANCH  22  23
ATOM     23  C   UNL     1      -3.034   0.631  -1.150  0.00  0.00    +0.123 A 
ATOM     24  C   UNL     1      -2.458  -0.626  -1.030  0.00  0.00    +0.046 A 
ATOM     25  C   UNL     1      -3.261  -1.742  -0.889  0.00  0.00    +0.005 A 
ATOM     26  C   UNL     1      -4.637  -1.607  -0.867  0.00  0.00    +0.020 A 
ATOM     27  C   UNL     1      -5.213  -0.355  -0.986  0.00  0.00    +0.044 A 
ATOM     28  C   UNL     1      -4.414   0.764  -1.128  0.00  0.00    +0.065 A 
ATOM     29 CL   UNL     1      -6.941  -0.190  -0.957  0.00  0.00    -0.083 Cl
ENDBRANCH  22  23
ENDBRANCH  20  22
ENDBRANCH   2  20
BRANCH   1  30
ATOM     30  C   UNL     1      -1.572   6.469  -0.641  0.00  0.00    +0.188 C 
BRANCH  30  31
ATOM     31  C   UNL     1      -1.030   7.050  -1.922  0.00  0.00    +0.122 A 
ATOM     32  C   UNL     1      -1.537   8.106  -2.583  0.00  0.00    +0.046 A 
ATOM     33  C   UNL     1      -0.724   8.304  -3.722  0.00  0.00    +0.041 A 
ATOM     34  C   UNL     1       0.231   7.357  -3.689  0.00  0.00    +0.195 A 
ATOM     35  O   UNL     1       0.044   6.604  -2.594  0.00  0.00    -0.466 OA
ENDBRANCH  30  31
ENDBRANCH   1  30
TORSDOF 10
