REMARK  Name = ZINC03604214
REMARK  14 active torsions:
REMARK  status: ('A' for Active; 'I' for Inactive)
REMARK    1  A    between atoms: C_1  and  C_2
REMARK    2  A    between atoms: C_2  and  C_3
REMARK    3  A    between atoms: C_3  and  C_4
REMARK    4  A    between atoms: C_4  and  N_5
REMARK    5  A    between atoms: N_5  and  C_6
REMARK    6  A    between atoms: C_7  and  N_18
REMARK    7  A    between atoms: N_8  and  C_15
REMARK    8  A    between atoms: C_15  and  C_16
REMARK    9  A    between atoms: C_16  and  C_17
REMARK   10  A    between atoms: C_19  and  C_21
REMARK   11  A    between atoms: C_21  and  S_22
REMARK   12  A    between atoms: S_22  and  C_23
REMARK   13  A    between atoms: C_25  and  C_33
REMARK   14  A    between atoms: C_26  and  C_32
REMARK                            x       y       z     vdW  Elec       q    Type
REMARK                         _______ _______ _______ _____ _____    ______ ____
ROOT
ATOM      1  N   UNL     1       0.230  -2.802   2.470  0.00  0.00    -0.264 N 
ATOM      2  C   UNL     1       0.096  -2.155   3.647  0.00  0.00    +0.230 C 
ATOM      3  O   UNL     1       0.059  -0.943   3.672  0.00  0.00    -0.274 OA
ENDROOT
BRANCH   1   4
ATOM      4  C   UNL     1       0.223  -2.076   1.261  0.00  0.00    +0.140 A 
ATOM      5  C   UNL     1      -0.797  -2.246   0.347  0.00  0.00    +0.127 A 
ATOM      6  N   UNL     1      -0.777  -1.524  -0.824  0.00  0.00    -0.280 N 
ATOM      7  C   UNL     1       0.227  -0.665  -1.076  0.00  0.00    +0.331 A 
ATOM      8  O   UNL     1       0.229  -0.039  -2.119  0.00  0.00    -0.246 OA
ATOM      9  N   UNL     1       1.226  -0.482  -0.195  0.00  0.00    -0.273 N 
ATOM     10  H   UNL     1       2.033   0.232  -0.418  0.00  0.00    +0.173 HD
ATOM     11  C   UNL     1       1.254  -1.165   0.966  0.00  0.00    +0.277 A 
ATOM     12  O   UNL     1       2.167  -0.995   1.756  0.00  0.00    -0.266 OA
BRANCH   5  13
ATOM     13  N   UNL     1      -1.820  -3.127   0.603  0.00  0.00    -0.343 N 
ATOM     14  H   UNL     1      -2.630  -3.258  -0.131  0.00  0.00    +0.144 HD
ATOM     15  H   UNL     1      -1.830  -3.702   1.541  0.00  0.00    +0.144 HD
ENDBRANCH   5  13
BRANCH   6  16
ATOM     16  C   UNL     1      -1.853  -1.695  -1.803  0.00  0.00    +0.128 C 
BRANCH  16  17
ATOM     17  C   UNL     1      -2.977  -0.700  -1.506  0.00  0.00    +0.018 C 
ATOM     18  C   UNL     1      -4.100  -0.879  -2.529  0.00  0.00    +0.005 C 
ENDBRANCH  16  17
ENDBRANCH   6  16
ENDBRANCH   1   4
BRANCH   1  19
ATOM     19  C   UNL     1       0.385  -4.259   2.449  0.00  0.00    +0.114 C 
BRANCH  19  20
ATOM     20  C   UNL     1       1.859  -4.619   2.646  0.00  0.00    +0.019 C 
BRANCH  20  22
ATOM     21  C   UNL     1       3.494  -6.500   2.821  0.00  0.00    +0.004 C 
ATOM     22  C   UNL     1       2.020  -6.140   2.624  0.00  0.00    -0.002 C 
ENDBRANCH  20  22
ENDBRANCH  19  20
ENDBRANCH   1  19
BRANCH   2  23
ATOM     23  C   UNL     1      -0.009  -2.939   4.930  0.00  0.00    +0.172 C 
BRANCH  23  24
ATOM     24  S   UNL     1      -0.179  -1.795   6.323  0.00  0.00    -0.096 S 
BRANCH  24  25
ATOM     25  C   UNL     1      -0.279  -2.946   7.653  0.00  0.00    +0.109 A 
ATOM     26  C   UNL     1      -0.418  -2.488   8.993  0.00  0.00    +0.043 A 
ATOM     27  C   UNL     1      -0.513  -1.133   9.506  0.00  0.00    -0.029 A 
ATOM     28  C   UNL     1      -0.649  -0.940  10.827  0.00  0.00    -0.008 A 
ATOM     29  S   UNL     1      -0.668  -2.596  11.489  0.00  0.00    -0.074 S 
ATOM     30  C   UNL     1      -0.492  -3.501   9.974  0.00  0.00    +0.113 A 
ATOM     31  N   UNL     1      -0.425  -4.777   9.651  0.00  0.00    -0.228 NA
ATOM     32  C   UNL     1      -0.290  -5.141   8.390  0.00  0.00    +0.223 A 
ATOM     33  N   UNL     1      -0.219  -4.248   7.419  0.00  0.00    -0.229 NA
ATOM     34  C   UNL     1      -0.761   0.364  11.573  0.00  0.00    +0.052 C 
ATOM     35  C   UNL     1      -0.453   0.044   8.567  0.00  0.00    +0.045 C 
ENDBRANCH  24  25
ENDBRANCH  23  24
ENDBRANCH   2  23
TORSDOF 10
