REMARK  Name = ZINC16514147
REMARK  10 active torsions:
REMARK  status: ('A' for Active; 'I' for Inactive)
REMARK    1  A    between atoms: C_1  and  C_2
REMARK    2  A    between atoms: C_2  and  O_3
REMARK    3  A    between atoms: O_3  and  C_4
REMARK    4  A    between atoms: C_4  and  C_6
REMARK    5  A    between atoms: C_9  and  N_12
REMARK    6  A    between atoms: N_15  and  C_16
REMARK    7  A    between atoms: C_16  and  C_17
REMARK    8  A    between atoms: C_25  and  C_28
REMARK    9  A    between atoms: C_28  and  C_29
REMARK   10  A    between atoms: C_32  and  C_35
REMARK                            x       y       z     vdW  Elec       q    Type
REMARK                         _______ _______ _______ _____ _____    ______ ____
ROOT
ATOM      1  C   UNL     1       2.791  -4.479   1.080  0.00  0.00    +0.009 C 
ATOM      2  C   UNL     1       3.604  -3.727   0.024  0.00  0.00    +0.024 C 
ATOM      3  C   UNL     1       3.312  -2.229   0.133  0.00  0.00    +0.107 C 
ATOM      4  N   UNL     1       1.877  -1.993  -0.069  0.00  0.00    -0.308 N 
ATOM      5  C   UNL     1       1.078  -2.667   0.962  0.00  0.00    +0.107 C 
ATOM      6  C   UNL     1       1.303  -4.178   0.878  0.00  0.00    +0.024 C 
ATOM      7  C   UNL     1       1.597  -0.639  -0.106  0.00  0.00    +0.181 A 
ATOM      8  N   UNL     1       0.432  -0.027  -0.270  0.00  0.00    -0.208 NA
ATOM      9  C   UNL     1       0.406   1.285  -0.271  0.00  0.00    +0.145 A 
ATOM     10  N   UNL     1       1.519   1.960  -0.113  0.00  0.00    -0.192 NA
ATOM     11  S   UNL     1       2.678   0.710   0.049  0.00  0.00    +0.049 S 
ENDROOT
BRANCH   1  12
ATOM     12  C   UNL     1       3.034  -5.983   0.938  0.00  0.00    +0.109 C 
BRANCH  12  16
ATOM     13  N   UNL     1       1.797  -8.690   3.097  0.00  0.00    -0.269 N 
ATOM     14  C   UNL     1       2.426  -8.037   2.100  0.00  0.00    +0.304 C 
ATOM     15  O   UNL     1       3.060  -8.659   1.270  0.00  0.00    -0.253 OA
ATOM     16  N   UNL     1       2.351  -6.693   2.022  0.00  0.00    -0.299 N 
ATOM     17  H   UNL     1       1.357  -8.190   3.802  0.00  0.00    +0.156 HD
ATOM     18  H   UNL     1       1.845  -6.197   2.684  0.00  0.00    +0.150 HD
BRANCH  13  22
ATOM     19  C   UNL     1       1.748 -12.854   3.154  0.00  0.00    +0.059 A 
ATOM     20  C   UNL     1       1.784 -12.138   4.354  0.00  0.00    +0.017 A 
ATOM     21  C   UNL     1       1.801 -10.762   4.331  0.00  0.00    +0.024 A 
ATOM     22  C   UNL     1       1.781 -10.084   3.116  0.00  0.00    +0.035 A 
ATOM     23  C   UNL     1       1.740 -10.794   1.920  0.00  0.00    +0.024 A 
ATOM     24  C   UNL     1       1.729 -12.170   1.935  0.00  0.00    +0.017 A 
BRANCH  19  25
ATOM     25  C   UNL     1       1.731 -14.329   3.173  0.00  0.00    +0.339 C 
ATOM     26  O   UNL     1       1.749 -14.922   4.234  0.00  0.00    -0.245 OA
BRANCH  25  27
ATOM     27  O   UNL     1       1.696 -15.018   2.016  0.00  0.00    -0.461 OA
BRANCH  27  29
ATOM     28  C   UNL     1       1.642 -17.070   0.706  0.00  0.00    +0.048 C 
ATOM     29  C   UNL     1       1.681 -16.467   2.111  0.00  0.00    +0.229 C 
ENDBRANCH  27  29
ENDBRANCH  25  27
ENDBRANCH  19  25
ENDBRANCH  13  22
ENDBRANCH  12  16
ENDBRANCH   1  12
BRANCH   9  30
ATOM     30  C   UNL     1      -0.899   2.015  -0.460  0.00  0.00    +0.112 C 
BRANCH  30  31
ATOM     31  C   UNL     1      -1.540   2.255   0.883  0.00  0.00    -0.040 A 
ATOM     32  C   UNL     1      -2.411   1.320   1.411  0.00  0.00    +0.004 A 
ATOM     33  C   UNL     1      -2.995   1.539   2.645  0.00  0.00    +0.003 A 
ATOM     34  C   UNL     1      -2.714   2.696   3.346  0.00  0.00    -0.050 A 
ATOM     35  C   UNL     1      -1.847   3.633   2.816  0.00  0.00    +0.003 A 
ATOM     36  C   UNL     1      -1.260   3.413   1.585  0.00  0.00    +0.004 A 
ATOM     37  C   UNL     1      -3.354   2.936   4.690  0.00  0.00    +0.044 C 
ENDBRANCH  30  31
ENDBRANCH   9  30
TORSDOF 8
