REMARK  Name = ZINC45799237
REMARK  9 active torsions:
REMARK  status: ('A' for Active; 'I' for Inactive)
REMARK    1  A    between atoms: C_1  and  C_2
REMARK    2  A    between atoms: C_4  and  C_31
REMARK    3  A    between atoms: C_5  and  S_9
REMARK    4  A    between atoms: C_6  and  C_8
REMARK    5  A    between atoms: S_9  and  N_12
REMARK    6  A    between atoms: C_16  and  C_18
REMARK    7  A    between atoms: N_20  and  C_21
REMARK    8  A    between atoms: C_25  and  N_28
REMARK    9  A    between atoms: C_26  and  C_27
REMARK                            x       y       z     vdW  Elec       q    Type
REMARK                         _______ _______ _______ _____ _____    ______ ____
ROOT
ATOM      1  N   UNL     1       0.127  -4.002   0.668  0.00  0.00    -0.165 NA
ATOM      2  C   UNL     1       0.838  -3.855  -0.615  0.00  0.00    +0.110 C 
ATOM      3  C   UNL     1       2.200  -3.218  -0.243  0.00  0.00    +0.019 C 
ATOM      4  C   UNL     1       2.513  -3.916   1.106  0.00  0.00    +0.031 C 
ATOM      5  C   UNL     1       1.118  -4.055   1.753  0.00  0.00    +0.166 C 
ENDROOT
BRANCH   5   6
ATOM      6  C   UNL     1       0.883  -2.921   2.718  0.00  0.00    +0.236 C 
ATOM      7  O   UNL     1       0.233  -1.957   2.373  0.00  0.00    -0.274 OA
ATOM      8  N   UNL     1       1.395  -2.980   3.963  0.00  0.00    -0.284 N 
ATOM      9  H   UNL     1       1.958  -3.726   4.222  0.00  0.00    +0.155 HD
BRANCH   8  10
ATOM     10  C   UNL     1       1.114  -1.963   4.883  0.00  0.00    +0.039 A 
ATOM     11  C   UNL     1      -0.018  -1.175   4.725  0.00  0.00    +0.024 A 
ATOM     12  C   UNL     1      -0.292  -0.172   5.634  0.00  0.00    +0.004 A 
ATOM     13  C   UNL     1       0.559   0.046   6.702  0.00  0.00    +0.033 A 
ATOM     14  C   UNL     1       1.688  -0.736   6.862  0.00  0.00    +0.131 A 
ATOM     15  C   UNL     1       1.964  -1.744   5.959  0.00  0.00    +0.001 A 
ATOM     16  C   UNL     1       3.190  -2.602   6.138  0.00  0.00    +0.048 C 
BRANCH  14  17
ATOM     17  N   UNL     1       2.597  -0.498   8.005  0.00  0.00    +0.057 N 
ATOM     18  O   UNL     1       2.145  -0.181   9.081  0.00  0.00    -0.126 OA
ATOM     19  O   UNL     1       3.791  -0.619   7.863  0.00  0.00    -0.126 OA
ENDBRANCH  14  17
ENDBRANCH   8  10
ENDBRANCH   5   6
BRANCH   1  20
ATOM     20  S   UNL     1      -1.516  -4.087   0.858  0.00  0.00    +0.062 S 
ATOM     21  O   UNL     1      -2.087  -3.349  -0.214  0.00  0.00    -0.153 OA
ATOM     22  O   UNL     1      -1.784  -3.782   2.220  0.00  0.00    -0.153 OA
BRANCH  20  27
ATOM     23  C   UNL     1      -3.111  -9.846   0.029  0.00  0.00    +0.044 C 
ATOM     24  C   UNL     1      -2.713  -8.408   0.236  0.00  0.00    -0.050 A 
ATOM     25  C   UNL     1      -2.625  -7.552  -0.846  0.00  0.00    +0.008 A 
ATOM     26  C   UNL     1      -2.260  -6.233  -0.656  0.00  0.00    -0.024 A 
ATOM     27  C   UNL     1      -1.983  -5.768   0.616  0.00  0.00    +0.111 A 
ATOM     28  C   UNL     1      -2.071  -6.623   1.698  0.00  0.00    -0.024 A 
ATOM     29  C   UNL     1      -2.441  -7.942   1.509  0.00  0.00    +0.008 A 
ATOM     30  C   UNL     1      -1.769  -6.117   3.085  0.00  0.00    +0.046 C 
ATOM     31  C   UNL     1      -2.163  -5.300  -1.837  0.00  0.00    +0.046 C 
ENDBRANCH  20  27
ENDBRANCH   1  20
TORSDOF 5
