REMARK  Name = ZINC13256192
REMARK  12 active torsions:
REMARK  status: ('A' for Active; 'I' for Inactive)
REMARK    1  A    between atoms: C_1  and  C_2
REMARK    2  A    between atoms: C_2  and  C_4
REMARK    3  A    between atoms: C_2  and  S_14
REMARK    4  A    between atoms: N_6  and  C_7
REMARK    5  A    between atoms: C_7  and  C_8
REMARK    6  A    between atoms: C_7  and  C_9
REMARK    7  A    between atoms: C_7  and  C_11
REMARK    8  A    between atoms: C_11  and  C_12
REMARK    9  A    between atoms: C_11  and  C_13
REMARK   10  A    between atoms: S_14  and  C_15
REMARK   11  A    between atoms: C_19  and  C_33
REMARK   12  A    between atoms: N_25  and  C_26
REMARK                            x       y       z     vdW  Elec       q    Type
REMARK                         _______ _______ _______ _____ _____    ______ ____
ROOT
ATOM      1  C   UNL     1      -0.510  -0.663   2.991  0.00  0.00    +0.177 A 
ATOM      2  N   UNL     1      -1.636  -0.042   2.739  0.00  0.00    -0.223 NA
ATOM      3  C   UNL     1      -2.111   0.924   3.559  0.00  0.00    +0.080 A 
ATOM      4  C   UNL     1      -3.313   1.585   3.287  0.00  0.00    +0.043 A 
ATOM      5  C   UNL     1      -3.762   2.570   4.158  0.00  0.00    +0.065 A 
ATOM      6  C   UNL     1      -3.020   2.902   5.300  0.00  0.00    +0.016 A 
ATOM      7  C   UNL     1      -1.845   2.264   5.574  0.00  0.00    +0.016 A 
ATOM      8  C   UNL     1      -1.376   1.271   4.714  0.00  0.00    +0.065 A 
ATOM      9  C   UNL     1      -0.115   0.558   4.974  0.00  0.00    +0.267 A 
ATOM     10  O   UNL     1       0.563   0.811   5.952  0.00  0.00    -0.267 OA
ATOM     11  N   UNL     1       0.260  -0.394   4.088  0.00  0.00    -0.255 N 
ENDROOT
BRANCH  11  12
ATOM     12  C   UNL     1       1.451  -1.104   4.293  0.00  0.00    +0.052 A 
ATOM     13  C   UNL     1       1.438  -2.286   5.022  0.00  0.00    +0.029 A 
ATOM     14  C   UNL     1       2.612  -2.985   5.223  0.00  0.00    +0.040 A 
ATOM     15  C   UNL     1       3.801  -2.508   4.698  0.00  0.00    +0.124 A 
ATOM     16  C   UNL     1       3.816  -1.330   3.971  0.00  0.00    +0.040 A 
ATOM     17  C   UNL     1       2.643  -0.630   3.764  0.00  0.00    +0.029 A 
ATOM     18  F   UNL     1       4.949  -3.193   4.896  0.00  0.00    -0.205 F 
ENDBRANCH  11  12
BRANCH   5  19
ATOM     19  C   UNL     1      -5.032   3.274   3.878  0.00  0.00    +0.387 C 
ATOM     20  O   UNL     1      -5.682   2.988   2.883  0.00  0.00    -0.241 OA
ATOM     21  O   UNL     1      -5.431   4.141   4.641  0.00  0.00    -0.241 OA
ENDBRANCH   5  19
BRANCH   1  22
ATOM     22  S   UNL     1       0.033  -1.909   1.869  0.00  0.00    -0.075 S 
BRANCH  22  24
ATOM     23  C   UNL     1      -1.262  -0.605  -0.158  0.00  0.00    +0.029 C 
ATOM     24  C   UNL     1      -1.255  -1.939   0.591  0.00  0.00    +0.137 C 
BRANCH  24  25
ATOM     25  C   UNL     1      -0.974  -3.058  -0.379  0.00  0.00    +0.227 C 
ATOM     26  O   UNL     1       0.142  -3.526  -0.458  0.00  0.00    -0.275 OA
ATOM     27  N   UNL     1      -1.963  -3.539  -1.158  0.00  0.00    -0.296 N 
ATOM     28  H   UNL     1      -2.856  -3.164  -1.094  0.00  0.00    +0.150 HD
BRANCH  27  29
ATOM     29  C   UNL     1      -1.690  -4.626  -2.101  0.00  0.00    +0.121 C 
ATOM     30  C   UNL     1      -0.618  -4.180  -3.097  0.00  0.00    +0.048 C 
BRANCH  29  31
ATOM     31  C   UNL     1      -2.973  -4.981  -2.856  0.00  0.00    +0.020 C 
ATOM     32  C   UNL     1      -2.661  -6.029  -3.926  0.00  0.00    +0.010 C 
ATOM     33  C   UNL     1      -4.003  -5.544  -1.875  0.00  0.00    +0.010 C 
ENDBRANCH  29  31
BRANCH  29  34
ATOM     34  C   UNL     1      -1.213  -5.807  -1.363  0.00  0.00    +0.088 C 
ATOM     35  N   UNL     1      -0.845  -6.718  -0.793  0.00  0.00    -0.194 NA
ENDBRANCH  29  34
ENDBRANCH  27  29
ENDBRANCH  24  25
ENDBRANCH  22  24
ENDBRANCH   1  22
TORSDOF 8
