REMARK  Name = ZINC40794228
REMARK  12 active torsions:
REMARK  status: ('A' for Active; 'I' for Inactive)
REMARK    1  A    between atoms: C_1  and  C_2
REMARK    2  A    between atoms: C_2  and  C_3
REMARK    3  A    between atoms: C_2  and  N_4
REMARK    4  A    between atoms: C_5  and  C_7
REMARK    5  A    between atoms: C_11  and  N_12
REMARK    6  A    between atoms: C_13  and  C_15
REMARK    7  A    between atoms: C_18  and  O_21
REMARK    8  A    between atoms: O_21  and  C_22
REMARK    9  A    between atoms: C_22  and  C_23
REMARK   10  A    between atoms: N_27  and  C_28
REMARK   11  A    between atoms: C_28  and  C_29
REMARK   12  A    between atoms: C_28  and  C_30
REMARK                            x       y       z     vdW  Elec       q    Type
REMARK                         _______ _______ _______ _____ _____    ______ ____
ROOT
ATOM      1  N   UNL     1       2.642  -3.471  -1.802  0.00  0.00    -0.275 N 
ATOM      2  C   UNL     1       2.965  -4.729  -2.164  0.00  0.00    +0.249 C 
ATOM      3  O   UNL     1       3.541  -4.930  -3.216  0.00  0.00    -0.270 OA
ATOM      4  H   UNL     1       2.182  -3.311  -0.964  0.00  0.00    +0.156 HD
ENDROOT
BRANCH   1   9
ATOM      5  C   UNL     1       2.717  -1.060  -2.421  0.00  0.00    +0.069 A 
ATOM      6  C   UNL     1       3.169  -0.135  -3.446  0.00  0.00    -0.023 A 
ATOM      7  C   UNL     1       3.783  -0.728  -4.493  0.00  0.00    -0.004 A 
ATOM      8  S   UNL     1       3.753  -2.455  -4.112  0.00  0.00    -0.077 S 
ATOM      9  C   UNL     1       2.967  -2.408  -2.628  0.00  0.00    +0.085 A 
ATOM     10  C   UNL     1       4.354  -0.052  -5.701  0.00  0.00    +0.043 C 
ATOM     11  C   UNL     1       3.806   1.382  -5.756  0.00  0.00    +0.005 C 
ATOM     12  C   UNL     1       3.960   2.024  -4.374  0.00  0.00    +0.005 C 
ATOM     13  C   UNL     1       2.989   1.374  -3.387  0.00  0.00    +0.037 C 
BRANCH   5  15
ATOM     14  N   UNL     1       0.688  -0.476  -1.203  0.00  0.00    -0.309 N 
ATOM     15  C   UNL     1       2.031  -0.587  -1.215  0.00  0.00    +0.247 C 
ATOM     16  O   UNL     1       2.674  -0.294  -0.224  0.00  0.00    -0.270 OA
ATOM     17  H   UNL     1       0.175  -0.710  -1.993  0.00  0.00    +0.149 HD
BRANCH  14  19
ATOM     18  C   UNL     1      -0.019   1.526   0.010  0.00  0.00    +0.027 C 
ATOM     19  C   UNL     1       0.002  -0.004   0.002  0.00  0.00    +0.067 C 
ATOM     20  C   UNL     1      -1.433  -0.534   0.013  0.00  0.00    +0.027 C 
ENDBRANCH  14  19
ENDBRANCH   5  15
ENDBRANCH   1   9
BRANCH   2  21
ATOM     21  C   UNL     1       2.618  -5.862  -1.285  0.00  0.00    +0.037 A 
ATOM     22  C   UNL     1       1.950  -5.633  -0.079  0.00  0.00    +0.016 A 
ATOM     23  C   UNL     1       1.628  -6.693   0.739  0.00  0.00    +0.046 A 
ATOM     24  C   UNL     1       1.966  -7.989   0.367  0.00  0.00    +0.121 A 
ATOM     25  C   UNL     1       2.631  -8.220  -0.832  0.00  0.00    +0.046 A 
ATOM     26  C   UNL     1       2.951  -7.166  -1.658  0.00  0.00    +0.016 A 
BRANCH  24  27
ATOM     27  O   UNL     1       1.648  -9.031   1.176  0.00  0.00    -0.484 OA
BRANCH  27  28
ATOM     28  C   UNL     1       2.026 -10.336   0.732  0.00  0.00    +0.306 C 
BRANCH  28  29
ATOM     29  C   UNL     1       1.593 -11.357   1.752  0.00  0.00    +0.189 A 
ATOM     30  N   UNL     1       2.290 -11.784   2.777  0.00  0.00    -0.110 NA
ATOM     31  N   UNL     1       1.577 -12.652   3.409  0.00  0.00    -0.023 NA
ATOM     32  N   UNL     1       0.445 -12.790   2.813  0.00  0.00    -0.044 NA
ATOM     33  N   UNL     1       0.413 -12.005   1.790  0.00  0.00    -0.224 N 
BRANCH  33  34
ATOM     34  C   UNL     1      -0.696 -11.850   0.846  0.00  0.00    +0.105 C 
ATOM     35  C   UNL     1      -0.987 -13.194   0.176  0.00  0.00    +0.032 C 
ATOM     36  C   UNL     1      -1.941 -11.373   1.595  0.00  0.00    +0.032 C 
ENDBRANCH  33  34
ENDBRANCH  28  29
ENDBRANCH  27  28
ENDBRANCH  24  27
ENDBRANCH   2  21
TORSDOF 8
