REMARK  Name = ZINC13276237
REMARK  8 active torsions:
REMARK  status: ('A' for Active; 'I' for Inactive)
REMARK    1  A    between atoms: C_1  and  C_2
REMARK    2  A    between atoms: C_5  and  N_9
REMARK    3  A    between atoms: C_7  and  C_8
REMARK    4  A    between atoms: C_10  and  S_14
REMARK    5  A    between atoms: S_14  and  C_15
REMARK    6  A    between atoms: C_18  and  C_24
REMARK    7  A    between atoms: C_20  and  N_21
REMARK    8  A    between atoms: C_25  and  C_26
REMARK                            x       y       z     vdW  Elec       q    Type
REMARK                         _______ _______ _______ _____ _____    ______ ____
ROOT
ATOM      1  S   UNL     1       1.612  -1.043   1.582  0.00  0.00    -0.046 S 
ENDROOT
BRANCH   1   2
ATOM      2  C   UNL     1       2.642  -2.439   1.888  0.00  0.00    +0.046 A 
ATOM      3  C   UNL     1       3.144  -2.664   3.168  0.00  0.00    +0.018 A 
ATOM      4  C   UNL     1       3.943  -3.745   3.410  0.00  0.00    +0.009 A 
ATOM      5  C   UNL     1       4.257  -4.629   2.369  0.00  0.00    -0.023 A 
ATOM      6  C   UNL     1       3.749  -4.399   1.083  0.00  0.00    +0.041 A 
ATOM      7  C   UNL     1       2.947  -3.318   0.852  0.00  0.00    +0.140 A 
BRANCH   7   8
ATOM      8  N   UNL     1       2.405  -3.077  -0.505  0.00  0.00    +0.058 N 
ATOM      9  O   UNL     1       2.671  -3.845  -1.412  0.00  0.00    -0.126 OA
ATOM     10  O   UNL     1       1.693  -2.111  -0.714  0.00  0.00    -0.126 OA
ENDBRANCH   7   8
BRANCH   5  11
ATOM     11  C   UNL     1       5.114  -5.793   2.624  0.00  0.00    +0.015 C 
ATOM     12  C   UNL     1       5.603  -6.013   3.865  0.00  0.00    +0.096 C 
BRANCH  12  13
ATOM     13  C   UNL     1       6.431  -7.136   4.112  0.00  0.00    +0.380 C 
ATOM     14  O   UNL     1       6.702  -7.903   3.207  0.00  0.00    -0.241 OA
ATOM     15  O   UNL     1       6.918  -7.356   5.351  0.00  0.00    -0.241 OA
ENDBRANCH  12  13
ENDBRANCH   5  11
ENDBRANCH   1   2
BRANCH   1  17
ATOM     16  N   UNL     1       2.508   1.243   0.255  0.00  0.00    -0.187 N 
ATOM     17  C   UNL     1       2.768   0.021   0.783  0.00  0.00    +0.219 A 
ATOM     18  N   UNL     1       4.046  -0.221   0.585  0.00  0.00    -0.101 NA
ATOM     19  N   UNL     1       4.602   0.764  -0.021  0.00  0.00    -0.022 NA
ATOM     20  N   UNL     1       3.738   1.692  -0.257  0.00  0.00    -0.038 NA
BRANCH  16  25
ATOM     21  C   UNL     1      -2.469   3.969   0.153  0.00  0.00    +0.044 C 
ATOM     22  C   UNL     1      -1.147   3.245   0.180  0.00  0.00    -0.047 A 
ATOM     23  C   UNL     1      -1.111   1.869   0.045  0.00  0.00    +0.006 A 
ATOM     24  C   UNL     1       0.098   1.203   0.075  0.00  0.00    +0.028 A 
ATOM     25  C   UNL     1       1.279   1.916   0.230  0.00  0.00    +0.070 A 
ATOM     26  C   UNL     1       1.240   3.298   0.359  0.00  0.00    +0.031 A 
ATOM     27  C   UNL     1       0.027   3.959   0.334  0.00  0.00    -0.046 A 
ATOM     28  C   UNL     1      -0.017   5.458   0.475  0.00  0.00    +0.044 C 
ENDBRANCH  16  25
ENDBRANCH   1  17
TORSDOF 6
