REMARK  Name = ZINC03558400
REMARK  11 active torsions:
REMARK  status: ('A' for Active; 'I' for Inactive)
REMARK    1  A    between atoms: C_1  and  C_2
REMARK    2  A    between atoms: C_2  and  C_3
REMARK    3  A    between atoms: C_3  and  C_4
REMARK    4  A    between atoms: C_4  and  C_5
REMARK    5  A    between atoms: C_5  and  N_6
REMARK    6  A    between atoms: C_15  and  C_17
REMARK    7  A    between atoms: C_17  and  O_19
REMARK    8  A    between atoms: O_19  and  C_20
REMARK    9  A    between atoms: C_20  and  C_22
REMARK   10  A    between atoms: C_20  and  C_28
REMARK   11  A    between atoms: N_33  and  C_34
REMARK                            x       y       z     vdW  Elec       q    Type
REMARK                         _______ _______ _______ _____ _____    ______ ____
ROOT
ATOM      1  C   UNL     1      -0.695  -6.569   3.765  0.00  0.00    +0.361 C 
ATOM      2  O   UNL     1      -0.781  -7.779   3.819  0.00  0.00    -0.243 OA
ENDROOT
BRANCH   1  12
ATOM      3  N   UNL     1       1.523  -4.012   2.465  0.00  0.00    -0.228 N 
ATOM      4  C   UNL     1       2.557  -4.633   1.862  0.00  0.00    +0.275 A 
ATOM      5  O   UNL     1       3.450  -3.992   1.339  0.00  0.00    -0.266 OA
ATOM      6  C   UNL     1       2.582  -6.103   1.851  0.00  0.00    +0.050 A 
ATOM      7  C   UNL     1       3.603  -6.837   1.256  0.00  0.00    +0.014 A 
ATOM      8  C   UNL     1       3.552  -8.214   1.288  0.00  0.00    +0.001 A 
ATOM      9  C   UNL     1       2.497  -8.871   1.907  0.00  0.00    +0.001 A 
ATOM     10  C   UNL     1       1.475  -8.161   2.502  0.00  0.00    +0.011 A 
ATOM     11  C   UNL     1       1.507  -6.771   2.481  0.00  0.00    +0.021 A 
ATOM     12  C   UNL     1       0.457  -5.940   3.091  0.00  0.00    +0.176 A 
ATOM     13  N   UNL     1       0.560  -4.634   3.034  0.00  0.00    -0.161 NA
BRANCH   3  14
ATOM     14  C   UNL     1       1.503  -2.548   2.473  0.00  0.00    +0.147 C 
BRANCH  14  15
ATOM     15  C   UNL     1       0.763  -2.041   1.233  0.00  0.00    +0.023 C 
BRANCH  15  16
ATOM     16  C   UNL     1       0.742  -0.511   1.242  0.00  0.00    +0.002 C 
BRANCH  16  18
ATOM     17  C   UNL     1      -0.019   1.526   0.010  0.00  0.00    +0.004 C 
ATOM     18  C   UNL     1       0.002  -0.004   0.002  0.00  0.00    -0.003 C 
ENDBRANCH  16  18
ENDBRANCH  15  16
ENDBRANCH  14  15
ENDBRANCH   3  14
ENDBRANCH   1  12
BRANCH   1  19
ATOM     19  O   UNL     1      -1.651  -5.800   4.322  0.00  0.00    -0.442 OA
BRANCH  19  20
ATOM     20  C   UNL     1      -2.738  -6.476   4.958  0.00  0.00    +0.293 C 
BRANCH  20  21
ATOM     21  C   UNL     1      -3.265  -5.628   6.087  0.00  0.00    +0.266 C 
ATOM     22  O   UNL     1      -2.822  -4.513   6.266  0.00  0.00    -0.271 OA
ATOM     23  N   UNL     1      -4.230  -6.107   6.897  0.00  0.00    -0.237 N 
ATOM     24  C   UNL     1      -4.702  -5.349   7.906  0.00  0.00    +0.306 C 
ATOM     25  O   UNL     1      -4.257  -4.232   8.086  0.00  0.00    -0.252 OA
ATOM     26  N   UNL     1      -5.666  -5.829   8.716  0.00  0.00    -0.302 N 
ATOM     27  C   UNL     1      -6.179  -5.004   9.813  0.00  0.00    +0.129 C 
ATOM     28  H   UNL     1      -4.585  -6.999   6.753  0.00  0.00    +0.159 HD
ATOM     29  H   UNL     1      -6.021  -6.720   8.572  0.00  0.00    +0.150 HD
ENDBRANCH  20  21
BRANCH  20  30
ATOM     30  C   UNL     1      -3.837  -6.716   3.955  0.00  0.00    +0.002 A 
ATOM     31  C   UNL     1      -4.079  -5.787   2.960  0.00  0.00    +0.008 A 
ATOM     32  C   UNL     1      -5.087  -6.008   2.040  0.00  0.00    +0.000 A 
ATOM     33  C   UNL     1      -5.851  -7.157   2.114  0.00  0.00    +0.000 A 
ATOM     34  C   UNL     1      -5.608  -8.086   3.108  0.00  0.00    +0.000 A 
ATOM     35  C   UNL     1      -4.598  -7.868   4.026  0.00  0.00    +0.008 A 
ENDBRANCH  20  30
ENDBRANCH  19  20
ENDBRANCH   1  19
TORSDOF 9
