REMARK  Name = ZINC39578499
REMARK  13 active torsions:
REMARK  status: ('A' for Active; 'I' for Inactive)
REMARK    1  A    between atoms: C_1  and  O_2
REMARK    2  A    between atoms: O_2  and  C_3
REMARK    3  A    between atoms: C_3  and  C_5
REMARK    4  A    between atoms: C_6  and  C_15
REMARK    5  A    between atoms: C_7  and  C_11
REMARK    6  A    between atoms: C_9  and  N_10
REMARK    7  A    between atoms: C_11  and  O_13
REMARK    8  A    between atoms: O_13  and  C_14
REMARK    9  A    between atoms: C_15  and  S_16
REMARK   10  A    between atoms: S_16  and  C_17
REMARK   11  A    between atoms: C_20  and  C_29
REMARK   12  A    between atoms: N_21  and  C_22
REMARK   13  A    between atoms: C_22  and  C_23
REMARK                            x       y       z     vdW  Elec       q    Type
REMARK                         _______ _______ _______ _____ _____    ______ ____
ROOT
ATOM      1  S   UNL     1       4.180  -1.702   1.009  0.00  0.00    -0.081 S 
ENDROOT
BRANCH   1   2
ATOM      2  C   UNL     1       5.414  -0.894   0.043  0.00  0.00    +0.193 A 
ATOM      3  N   UNL     1       5.351  -0.637  -1.244  0.00  0.00    -0.122 NA
ATOM      4  N   UNL     1       6.421  -0.038  -1.628  0.00  0.00    -0.125 NA
ATOM      5  C   UNL     1       7.235   0.125  -0.608  0.00  0.00    +0.201 A 
ATOM      6  N   UNL     1       6.611  -0.414   0.495  0.00  0.00    -0.295 N 
BRANCH   5   7
ATOM      7  C   UNL     1       8.558   0.766  -0.639  0.00  0.00    +0.172 A 
ATOM      8  C   UNL     1       9.044   1.553  -1.641  0.00  0.00    +0.053 A 
ATOM      9  C   UNL     1      10.338   1.949  -1.254  0.00  0.00    +0.042 A 
ATOM     10  C   UNL     1      10.579   1.394  -0.049  0.00  0.00    +0.196 A 
ATOM     11  O   UNL     1       9.500   0.684   0.322  0.00  0.00    -0.460 OA
ENDBRANCH   5   7
BRANCH   6  12
ATOM     12  C   UNL     1       7.125  -0.466   1.866  0.00  0.00    +0.161 C 
BRANCH  12  13
ATOM     13  C   UNL     1       7.909  -1.738   2.062  0.00  0.00    -0.028 A 
ATOM     14  C   UNL     1       7.269  -2.883   2.499  0.00  0.00    +0.005 A 
ATOM     15  C   UNL     1       7.988  -4.050   2.678  0.00  0.00    +0.000 A 
ATOM     16  C   UNL     1       9.346  -4.072   2.420  0.00  0.00    +0.000 A 
ATOM     17  C   UNL     1       9.985  -2.927   1.982  0.00  0.00    +0.000 A 
ATOM     18  C   UNL     1       9.265  -1.761   1.798  0.00  0.00    +0.005 A 
ENDBRANCH  12  13
ENDBRANCH   6  12
ENDBRANCH   1   2
BRANCH   1  19
ATOM     19  C   UNL     1       2.866  -2.077  -0.183  0.00  0.00    +0.114 C 
BRANCH  19  21
ATOM     20  C   UNL     1       0.680  -2.077   1.091  0.00  0.00    +0.092 A 
ATOM     21  C   UNL     1       1.733  -2.778   0.521  0.00  0.00    -0.000 A 
ATOM     22  C   UNL     1       1.687  -4.142   0.634  0.00  0.00    +0.103 A 
ATOM     23  S   UNL     1       0.174  -4.412   1.534  0.00  0.00    -0.066 S 
ATOM     24  C   UNL     1      -0.321  -2.818   1.728  0.00  0.00    +0.078 A 
BRANCH  24  25
ATOM     25  N   UNL     1      -1.447  -2.352   2.363  0.00  0.00    -0.352 N 
ATOM     26  H   UNL     1      -1.621  -1.398   2.405  0.00  0.00    +0.143 HD
ATOM     27  H   UNL     1      -2.069  -2.976   2.769  0.00  0.00    +0.143 HD
ENDBRANCH  24  25
BRANCH  20  28
ATOM     28  C   UNL     1       0.621  -0.614   1.034  0.00  0.00    +0.342 C 
ATOM     29  O   UNL     1       1.130   0.051   1.915  0.00  0.00    -0.245 OA
BRANCH  28  31
ATOM     30  C   UNL     1      -0.017   1.425   0.010  0.00  0.00    +0.280 C 
ATOM     31  O   UNL     1       0.002  -0.004   0.002  0.00  0.00    -0.464 OA
ENDBRANCH  28  31
ENDBRANCH  20  28
BRANCH  22  32
ATOM     32  C   UNL     1       2.643  -5.131   0.140  0.00  0.00    +0.346 C 
ATOM     33  O   UNL     1       3.636  -4.769  -0.462  0.00  0.00    -0.244 OA
BRANCH  32  34
ATOM     34  O   UNL     1       2.423  -6.446   0.350  0.00  0.00    -0.464 OA
ATOM     35  C   UNL     1       3.398  -7.357  -0.161  0.00  0.00    +0.280 C 
ENDBRANCH  32  34
ENDBRANCH  22  32
ENDBRANCH  19  21
ENDBRANCH   1  19
TORSDOF 11
