REMARK  Name = ZINC04475424
REMARK  5 active torsions:
REMARK  status: ('A' for Active; 'I' for Inactive)
REMARK    1  A    between atoms: C_1  and  C_2
REMARK    2  A    between atoms: C_2  and  C_19
REMARK    3  A    between atoms: N_3  and  N_4
REMARK    4  A    between atoms: C_7  and  C_10
REMARK    5  A    between atoms: C_13  and  N_16
REMARK                            x       y       z     vdW  Elec       q    Type
REMARK                         _______ _______ _______ _____ _____    ______ ____
ROOT
ATOM      1  N   UNL     1      -0.938   4.948   0.038  0.00  0.00    -0.215 N 
ATOM      2  C   UNL     1      -0.460   3.696   0.026  0.00  0.00    +0.178 A 
ATOM      3  N   UNL     1       0.814   3.293   0.012  0.00  0.00    -0.224 NA
ATOM      4  C   UNL     1       1.115   2.028   0.002  0.00  0.00    +0.080 A 
ATOM      5  C   UNL     1      -0.013   1.076   0.008  0.00  0.00    +0.077 A 
ATOM      6  S   UNL     1      -1.370   2.160   0.019  0.00  0.00    -0.059 S 
ATOM      7  H   UNL     1      -0.327   5.701   0.036  0.00  0.00    +0.176 HD
ENDROOT
BRANCH   4   8
ATOM      8  C   UNL     1       2.515   1.567  -0.014  0.00  0.00    +0.001 A 
ATOM      9  C   UNL     1       2.805   0.197  -0.019  0.00  0.00    +0.012 A 
ATOM     10  C   UNL     1       4.117  -0.225  -0.039  0.00  0.00    +0.033 A 
ATOM     11  C   UNL     1       5.147   0.701  -0.044  0.00  0.00    +0.126 A 
ATOM     12  C   UNL     1       4.868   2.058  -0.034  0.00  0.00    +0.033 A 
ATOM     13  C   UNL     1       3.562   2.497  -0.019  0.00  0.00    +0.012 A 
BRANCH  11  14
ATOM     14  N   UNL     1       6.553   0.238  -0.061  0.00  0.00    +0.056 N 
ATOM     15  O   UNL     1       7.535   1.116  -0.065  0.00  0.00    -0.126 OA
ATOM     16  O   UNL     1       6.822  -1.051  -0.070  0.00  0.00    -0.126 OA
ENDBRANCH  11  14
ENDBRANCH   4   8
BRANCH   1  19
ATOM     17  C   UNL     1      -1.733   7.553   0.059  0.00  0.00    +0.068 C 
ATOM     18  C   UNL     1      -2.683   6.384   0.062  0.00  0.00    +0.063 C 
ATOM     19  N   UNL     1      -2.212   5.152   0.051  0.00  0.00    -0.185 NA
BRANCH  18  20
ATOM     20  C   UNL     1      -4.126   6.614   0.077  0.00  0.00    -0.003 A 
ATOM     21  C   UNL     1      -4.633   7.926   0.095  0.00  0.00    +0.010 A 
ATOM     22  C   UNL     1      -5.994   8.132   0.105  0.00  0.00    +0.001 A 
ATOM     23  C   UNL     1      -6.864   7.052   0.107  0.00  0.00    +0.000 A 
ATOM     24  C   UNL     1      -6.374   5.755   0.094  0.00  0.00    +0.001 A 
ATOM     25  C   UNL     1      -5.017   5.527   0.080  0.00  0.00    +0.010 A 
ENDBRANCH  18  20
ENDBRANCH   1  19
TORSDOF 4
