REMARK  Name = ZINC63428407
REMARK  5 active torsions:
REMARK  status: ('A' for Active; 'I' for Inactive)
REMARK    1  A    between atoms: C_1  and  C_2
REMARK    2  A    between atoms: C_5  and  C_8
REMARK    3  A    between atoms: C_8  and  O_9
REMARK    4  A    between atoms: O_9  and  C_10
REMARK    5  A    between atoms: C_13  and  C_16
REMARK                            x       y       z     vdW  Elec       q    Type
REMARK                         _______ _______ _______ _____ _____    ______ ____
ROOT
ATOM      1  C   UNL     1       2.223 -10.308  -0.067  0.00  0.00    +0.047 C 
ATOM      2  C   UNL     1       3.602 -10.633   0.515  0.00  0.00    +0.105 C 
ATOM      3  C   UNL     1       4.692 -10.240  -0.438  0.00  0.00    +0.219 C 
ATOM      4  O   UNL     1       5.812 -10.092   0.003  0.00  0.00    -0.275 OA
ATOM      5  N   UNL     1       4.497 -10.043  -1.749  0.00  0.00    -0.273 N 
ATOM      6  C   UNL     1       3.246 -10.118  -2.292  0.00  0.00    +0.117 C 
ATOM      7  N   UNL     1       2.989  -9.582  -3.451  0.00  0.00    -0.205 NA
ATOM      8  C   UNL     1       1.752  -9.537  -3.958  0.00  0.00    +0.206 C 
ATOM      9  N   UNL     1       0.701  -9.995  -3.295  0.00  0.00    -0.147 NA
ATOM     10  C   UNL     1       0.826 -10.595  -2.119  0.00  0.00    +0.250 C 
ATOM     11  O   UNL     1      -0.170 -10.964  -1.528  0.00  0.00    -0.273 OA
ATOM     12  C   UNL     1       2.171 -10.828  -1.506  0.00  0.00    +0.148 C 
ATOM     13  N   UNL     1       1.566  -8.998  -5.201  0.00  0.00    -0.329 N 
ATOM     14  H   UNL     1       5.255  -9.845  -2.321  0.00  0.00    +0.156 HD
ATOM     15  H   UNL     1       2.325  -8.658  -5.701  0.00  0.00    +0.145 HD
ATOM     16  H   UNL     1       0.676  -8.957  -5.584  0.00  0.00    +0.145 HD
ENDROOT
BRANCH   1  20
ATOM     17  C   UNL     1       1.608  -6.079  -0.040  0.00  0.00    +0.121 A 
ATOM     18  C   UNL     1       0.632  -6.926   0.463  0.00  0.00    +0.046 A 
ATOM     19  C   UNL     1       0.833  -8.293   0.453  0.00  0.00    +0.007 A 
ATOM     20  C   UNL     1       2.006  -8.817  -0.058  0.00  0.00    -0.042 A 
ATOM     21  C   UNL     1       2.981  -7.974  -0.559  0.00  0.00    +0.007 A 
ATOM     22  C   UNL     1       2.782  -6.607  -0.557  0.00  0.00    +0.046 A 
BRANCH  17  23
ATOM     23  O   UNL     1       1.413  -4.734  -0.032  0.00  0.00    -0.487 OA
BRANCH  23  24
ATOM     24  C   UNL     1       0.181  -4.261   0.516  0.00  0.00    +0.264 C 
BRANCH  24  29
ATOM     25  C   UNL     1       0.031   1.509   0.230  0.00  0.00    +0.044 C 
ATOM     26  C   UNL     1       0.070   0.004   0.304  0.00  0.00    -0.050 A 
ATOM     27  C   UNL     1      -0.418  -0.753  -0.745  0.00  0.00    +0.004 A 
ATOM     28  C   UNL     1      -0.382  -2.133  -0.676  0.00  0.00    +0.007 A 
ATOM     29  C   UNL     1       0.142  -2.756   0.441  0.00  0.00    -0.010 A 
ATOM     30  C   UNL     1       0.631  -1.999   1.489  0.00  0.00    +0.007 A 
ATOM     31  C   UNL     1       0.599  -0.619   1.419  0.00  0.00    +0.004 A 
ENDBRANCH  24  29
ENDBRANCH  23  24
ENDBRANCH  17  23
ENDBRANCH   1  20
TORSDOF 4
