REMARK  Name = ZINC38588866
REMARK  6 active torsions:
REMARK  status: ('A' for Active; 'I' for Inactive)
REMARK    1  A    between atoms: C_1  and  C_2
REMARK    2  A    between atoms: C_4  and  C_8
REMARK    3  A    between atoms: C_15  and  C_17
REMARK    4  A    between atoms: C_17  and  C_18
REMARK    5  A    between atoms: C_18  and  C_19
REMARK    6  A    between atoms: C_19  and  C_20
REMARK                            x       y       z     vdW  Elec       q    Type
REMARK                         _______ _______ _______ _____ _____    ______ ____
ROOT
ATOM      1  C   UNL     1      -0.964  -2.951   1.248  0.00  0.00    +0.230 C 
ATOM      2  N   UNL     1      -2.427  -3.094   1.282  0.00  0.00    -0.242 N 
ATOM      3  N   UNL     1      -2.682  -4.470   1.264  0.00  0.00    -0.161 NA
ATOM      4  C   UNL     1      -1.589  -5.145   1.225  0.00  0.00    +0.201 C 
ATOM      5  N   UNL     1      -0.452  -4.344   1.212  0.00  0.00    -0.175 N 
ATOM      6  N   UNL     1       0.769  -5.008   1.171  0.00  0.00    -0.174 NA
ATOM      7  C   UNL     1       0.840  -6.300   1.147  0.00  0.00    +0.100 C 
ATOM      8  S   UNL     1      -0.886  -6.782   1.178  0.00  0.00    -0.034 S 
ATOM      9  H   UNL     1      -3.082  -2.379   1.311  0.00  0.00    +0.170 HD
ENDROOT
BRANCH   1  13
ATOM     10  C   UNL     1      -0.018   1.503   0.010  0.00  0.00    +0.067 C 
ATOM     11  C   UNL     1       0.002  -0.004   0.002  0.00  0.00    +0.058 C 
ATOM     12  C   UNL     1      -1.086  -0.777   0.003  0.00  0.00    +0.029 C 
ATOM     13  C   UNL     1      -0.531  -2.190  -0.007  0.00  0.00    +0.194 C 
ATOM     14  N   UNL     1       0.926  -1.973  -0.013  0.00  0.00    -0.176 NA
ATOM     15  N   UNL     1       1.125  -0.756  -0.013  0.00  0.00    -0.159 NA
ENDBRANCH   1  13
BRANCH   7  16
ATOM     16  C   UNL     1       2.065  -7.177   1.102  0.00  0.00    +0.065 C 
BRANCH  16  17
ATOM     17  C   UNL     1       3.319  -6.301   1.086  0.00  0.00    +0.011 C 
BRANCH  17  18
ATOM     18  C   UNL     1       4.562  -7.191   1.041  0.00  0.00    +0.035 C 
BRANCH  18  19
ATOM     19  C   UNL     1       5.798  -6.328   1.025  0.00  0.00    -0.047 A 
ATOM     20  C   UNL     1       6.332  -5.907  -0.178  0.00  0.00    +0.003 A 
ATOM     21  C   UNL     1       7.465  -5.115  -0.192  0.00  0.00    +0.000 A 
ATOM     22  C   UNL     1       8.064  -4.744   0.998  0.00  0.00    +0.000 A 
ATOM     23  C   UNL     1       7.529  -5.165   2.201  0.00  0.00    +0.000 A 
ATOM     24  C   UNL     1       6.393  -5.953   2.215  0.00  0.00    +0.003 A 
ENDBRANCH  18  19
ENDBRANCH  17  18
ENDBRANCH  16  17
ENDBRANCH   7  16
TORSDOF 5
