REMARK  Name = ZINC65641841
REMARK  5 active torsions:
REMARK  status: ('A' for Active; 'I' for Inactive)
REMARK    1  A    between atoms: C_4  and  N_10
REMARK    2  A    between atoms: C_6  and  N_7
REMARK    3  A    between atoms: C_11  and  C_13
REMARK    4  A    between atoms: N_18  and  C_21
REMARK    5  A    between atoms: C_21  and  C_22
REMARK                            x       y       z     vdW  Elec       q    Type
REMARK                         _______ _______ _______ _____ _____    ______ ____
ROOT
ATOM      1  C   UNL     1       5.523  -2.972  -0.372  0.00  0.00    +0.302 C 
ATOM      2  O   UNL     1       6.582  -2.400  -0.216  0.00  0.00    -0.265 OA
ATOM      3  N   UNL     1       5.454  -4.311  -0.233  0.00  0.00    -0.291 N 
ATOM      4  C   UNL     1       4.162  -5.011  -0.293  0.00  0.00    +0.123 C 
ATOM      5  C   UNL     1       4.041  -5.916   0.937  0.00  0.00    +0.103 C 
ATOM      6  N   UNL     1       5.218  -6.791   1.016  0.00  0.00    -0.299 NA
ATOM      7  C   UNL     1       6.449  -6.012   1.202  0.00  0.00    +0.103 C 
ATOM      8  C   UNL     1       6.670  -5.112  -0.024  0.00  0.00    +0.123 C 
ENDROOT
BRANCH   1  10
ATOM      9  N   UNL     1       4.334  -0.846  -0.726  0.00  0.00    -0.275 N 
ATOM     10  C   UNL     1       4.297  -2.193  -0.717  0.00  0.00    +0.303 C 
ATOM     11  O   UNL     1       3.266  -2.773  -0.991  0.00  0.00    -0.265 OA
ATOM     12  H   UNL     1       5.172  -0.383  -0.570  0.00  0.00    +0.155 HD
BRANCH   9  16
ATOM     13  C   UNL     1       0.851   1.331  -1.424  0.00  0.00    +0.035 A 
ATOM     14  C   UNL     1       1.821   1.837  -0.578  0.00  0.00    +0.042 A 
ATOM     15  C   UNL     1       2.978   1.118  -0.343  0.00  0.00    +0.145 A 
ATOM     16  C   UNL     1       3.165  -0.116  -0.960  0.00  0.00    +0.072 A 
ATOM     17  C   UNL     1       2.188  -0.619  -1.808  0.00  0.00    +0.059 A 
ATOM     18  C   UNL     1       1.034   0.106  -2.038  0.00  0.00    +0.128 A 
ATOM     19  F   UNL     1       3.926   1.612   0.483  0.00  0.00    -0.204 F 
BRANCH  18  20
ATOM     20  N   UNL     1      -0.007  -0.431  -2.942  0.00  0.00    +0.056 N 
ATOM     21  O   UNL     1      -1.017   0.202  -3.144  0.00  0.00    -0.126 OA
ATOM     22  O   UNL     1       0.152  -1.502  -3.480  0.00  0.00    -0.126 OA
ENDBRANCH  18  20
ENDBRANCH   9  16
ENDBRANCH   1  10
BRANCH   6  23
ATOM     23  C   UNL     1       5.061  -7.790   2.081  0.00  0.00    +0.088 C 
BRANCH  23  24
ATOM     24  C   UNL     1       4.099  -8.886   1.615  0.00  0.00    +0.003 C 
ATOM     25  C   UNL     1       4.662  -9.558   0.361  0.00  0.00    +0.005 C 
ATOM     26  C   UNL     1       3.700 -10.653  -0.105  0.00  0.00    +0.000 C 
ATOM     27  C   UNL     1       3.539 -11.695   1.004  0.00  0.00    +0.000 C 
ATOM     28  C   UNL     1       2.977 -11.023   2.258  0.00  0.00    +0.000 C 
ATOM     29  C   UNL     1       3.938  -9.928   2.724  0.00  0.00    +0.005 C 
ENDBRANCH  23  24
ENDBRANCH   6  23
TORSDOF 5
