REMARK  Name = ZINC12250174
REMARK  13 active torsions:
REMARK  status: ('A' for Active; 'I' for Inactive)
REMARK    1  A    between atoms: C_1  and  C_2
REMARK    2  A    between atoms: C_6  and  C_39
REMARK    3  A    between atoms: C_7  and  N_8
REMARK    4  A    between atoms: C_9  and  C_11
REMARK    5  A    between atoms: C_12  and  C_38
REMARK    6  A    between atoms: C_14  and  S_25
REMARK    7  A    between atoms: C_15  and  C_23
REMARK    8  A    between atoms: C_16  and  C_18
REMARK    9  A    between atoms: S_25  and  C_26
REMARK   10  A    between atoms: C_26  and  C_27
REMARK   11  A    between atoms: N_29  and  C_30
REMARK   12  A    between atoms: C_33  and  C_37
REMARK   13  A    between atoms: C_34  and  C_36
REMARK                            x       y       z     vdW  Elec       q    Type
REMARK                         _______ _______ _______ _____ _____    ______ ____
ROOT
ATOM      1  C   UNL     1      -2.853   4.003   0.437  0.00  0.00    +0.047 C 
ATOM      2  C   UNL     1      -2.656   5.299   0.731  0.00  0.00    +0.015 C 
ATOM      3  N   UNL     1      -3.712   6.152   0.897  0.00  0.00    -0.312 N 
ATOM      4  C   UNL     1      -4.973   5.653   1.137  0.00  0.00    +0.080 C 
ATOM      5  C   UNL     1      -5.264   4.354   0.861  0.00  0.00    +0.072 C 
ATOM      6  C   UNL     1      -4.232   3.430   0.280  0.00  0.00    +0.134 C 
ATOM      7  C   UNL     1      -1.250   5.822   0.873  0.00  0.00    +0.061 C 
ATOM      8  H   UNL     1      -3.555   7.239   0.840  0.00  0.00    +0.152 HD
ENDROOT
BRANCH   6   9
ATOM      9  C   UNL     1      -4.520   3.224  -1.185  0.00  0.00    +0.118 A 
ATOM     10  C   UNL     1      -4.807   2.049  -1.773  0.00  0.00    +0.045 A 
ATOM     11  C   UNL     1      -5.005   2.316  -3.147  0.00  0.00    +0.041 A 
ATOM     12  C   UNL     1      -4.827   3.639  -3.317  0.00  0.00    +0.195 A 
ATOM     13  O   UNL     1      -4.539   4.184  -2.124  0.00  0.00    -0.467 OA
ENDBRANCH   6   9
BRANCH   1  15
ATOM     14  N   UNL     1      -1.904   1.875  -0.110  0.00  0.00    -0.281 N 
ATOM     15  C   UNL     1      -1.731   3.155   0.276  0.00  0.00    +0.247 C 
ATOM     16  O   UNL     1      -0.610   3.582   0.486  0.00  0.00    -0.270 OA
ATOM     17  H   UNL     1      -2.919   1.474  -0.246  0.00  0.00    +0.155 HD
BRANCH  14  24
ATOM     18  C   UNL     1      -1.920  -0.749   0.990  0.00  0.00    +0.045 C 
ATOM     19  C   UNL     1      -0.757  -0.230   0.184  0.00  0.00    -0.029 A 
ATOM     20  C   UNL     1       0.344  -1.033  -0.037  0.00  0.00    +0.005 A 
ATOM     21  C   UNL     1       1.411  -0.557  -0.777  0.00  0.00    +0.001 A 
ATOM     22  C   UNL     1       1.379   0.724  -1.297  0.00  0.00    +0.005 A 
ATOM     23  C   UNL     1       0.281   1.532  -1.079  0.00  0.00    -0.029 A 
ATOM     24  C   UNL     1      -0.792   1.057  -0.337  0.00  0.00    +0.040 A 
ATOM     25  C   UNL     1       0.247   2.928  -1.646  0.00  0.00    +0.045 C 
ENDBRANCH  14  24
ENDBRANCH   1  15
BRANCH   5  26
ATOM     26  C   UNL     1      -6.580   3.857   1.129  0.00  0.00    +0.098 C 
ATOM     27  N   UNL     1      -7.624   3.462   1.341  0.00  0.00    -0.191 NA
ENDBRANCH   5  26
BRANCH   4  28
ATOM     28  S   UNL     1      -6.217   6.705   1.808  0.00  0.00    -0.100 S 
BRANCH  28  29
ATOM     29  C   UNL     1      -5.279   8.245   1.958  0.00  0.00    +0.171 C 
BRANCH  29  30
ATOM     30  C   UNL     1      -6.168   9.321   2.527  0.00  0.00    +0.227 C 
ATOM     31  O   UNL     1      -7.322   9.070   2.805  0.00  0.00    -0.275 OA
ATOM     32  N   UNL     1      -5.680  10.561   2.728  0.00  0.00    -0.285 N 
ATOM     33  H   UNL     1      -4.658  10.809   2.407  0.00  0.00    +0.155 HD
BRANCH  32  34
ATOM     34  C   UNL     1      -6.474  11.534   3.346  0.00  0.00    +0.034 A 
ATOM     35  C   UNL     1      -7.843  11.567   3.110  0.00  0.00    +0.023 A 
ATOM     36  C   UNL     1      -8.625  12.525   3.726  0.00  0.00    +0.005 A 
ATOM     37  C   UNL     1      -8.045  13.457   4.567  0.00  0.00    -0.047 A 
ATOM     38  C   UNL     1      -6.682  13.429   4.800  0.00  0.00    -0.046 A 
ATOM     39  C   UNL     1      -5.896  12.470   4.192  0.00  0.00    +0.027 A 
ATOM     40  C   UNL     1      -6.055  14.446   5.718  0.00  0.00    +0.044 C 
ATOM     41  C   UNL     1      -8.900  14.504   5.232  0.00  0.00    +0.044 C 
ENDBRANCH  32  34
ENDBRANCH  29  30
ENDBRANCH  28  29
ENDBRANCH   4  28
TORSDOF 8
