REMARK  Name = ZINC36500327
REMARK  12 active torsions:
REMARK  status: ('A' for Active; 'I' for Inactive)
REMARK    1  A    between atoms: C_1  and  C_2
REMARK    2  A    between atoms: C_2  and  C_3
REMARK    3  A    between atoms: C_3  and  C_4
REMARK    4  A    between atoms: C_4  and  N_5
REMARK    5  A    between atoms: C_6  and  C_8
REMARK    6  A    between atoms: C_8  and  C_10
REMARK    7  A    between atoms: C_8  and  N_20
REMARK    8  A    between atoms: C_12  and  N_17
REMARK    9  A    between atoms: N_20  and  C_21
REMARK   10  A    between atoms: C_21  and  C_22
REMARK   11  A    between atoms: C_27  and  C_29
REMARK   12  A    between atoms: C_32  and  O_35
REMARK                            x       y       z     vdW  Elec       q    Type
REMARK                         _______ _______ _______ _____ _____    ______ ____
ROOT
ATOM      1  C   UNL     1      -4.555  -5.934  -1.597  0.00  0.00    +0.194 C 
ENDROOT
BRANCH   1   2
ATOM      2  C   UNL     1      -4.973  -4.719  -0.810  0.00  0.00    +0.002 A 
ATOM      3  C   UNL     1      -4.383  -4.448   0.410  0.00  0.00    +0.040 A 
ATOM      4  C   UNL     1      -4.768  -3.333   1.131  0.00  0.00    +0.127 A 
ATOM      5  C   UNL     1      -5.742  -2.488   0.633  0.00  0.00    +0.034 A 
ATOM      6  C   UNL     1      -6.332  -2.758  -0.587  0.00  0.00    +0.022 A 
ATOM      7  C   UNL     1      -5.944  -3.871  -1.313  0.00  0.00    +0.047 A 
ATOM      8 CL   UNL     1      -6.680  -4.206  -2.849  0.00  0.00    -0.083 Cl
BRANCH   4   9
ATOM      9  N   UNL     1      -4.136  -3.044   2.438  0.00  0.00    +0.056 N 
ATOM     10  O   UNL     1      -3.355  -3.831   2.919  0.00  0.00    -0.126 OA
ATOM     11  O   UNL     1      -4.402  -2.020   3.025  0.00  0.00    -0.126 OA
ENDBRANCH   4   9
ENDBRANCH   1   2
BRANCH   1  13
ATOM     12  N   UNL     1      -4.661  -5.408  -4.011  0.00  0.00    -0.313 N 
ATOM     13  C   UNL     1      -3.917  -5.500  -2.891  0.00  0.00    +0.238 C 
ATOM     14  O   UNL     1      -2.735  -5.234  -2.925  0.00  0.00    -0.273 OA
ATOM     15  H   UNL     1      -5.607  -5.621  -3.984  0.00  0.00    +0.149 HD
BRANCH  12  16
ATOM     16  C   UNL     1      -4.042  -4.986  -5.270  0.00  0.00    +0.104 C 
BRANCH  16  17
ATOM     17  C   UNL     1      -5.098  -4.965  -6.377  0.00  0.00    +0.018 C 
BRANCH  17  19
ATOM     18  C   UNL     1      -5.507  -4.504  -8.798  0.00  0.00    +0.004 C 
ATOM     19  C   UNL     1      -4.450  -4.525  -7.691  0.00  0.00    -0.002 C 
ENDBRANCH  17  19
ENDBRANCH  16  17
ENDBRANCH  12  16
ENDBRANCH   1  13
BRANCH   1  20
ATOM     20  N   UNL     1      -3.591  -6.713  -0.815  0.00  0.00    -0.275 N 
ATOM     21  C   UNL     1      -4.025  -7.553   0.145  0.00  0.00    +0.248 C 
ATOM     22  O   UNL     1      -3.282  -7.876   1.052  0.00  0.00    -0.270 OA
BRANCH  21  23
ATOM     23  C   UNL     1      -5.402  -8.082   0.097  0.00  0.00    +0.037 A 
ATOM     24  C   UNL     1      -6.475  -7.220  -0.146  0.00  0.00    +0.016 A 
ATOM     25  C   UNL     1      -7.759  -7.716  -0.191  0.00  0.00    +0.046 A 
ATOM     26  C   UNL     1      -7.988  -9.073   0.005  0.00  0.00    +0.117 A 
ATOM     27  C   UNL     1      -6.924  -9.934   0.247  0.00  0.00    +0.046 A 
ATOM     28  C   UNL     1      -5.637  -9.446   0.288  0.00  0.00    +0.016 A 
BRANCH  26  29
ATOM     29  O   UNL     1      -9.255  -9.559  -0.039  0.00  0.00    -0.507 OA
ATOM     30  H   UNL     1      -9.538  -9.839  -0.920  0.00  0.00    +0.292 HD
ENDBRANCH  26  29
ENDBRANCH  21  23
BRANCH  20  31
ATOM     31  C   UNL     1      -2.156  -6.579  -1.077  0.00  0.00    +0.183 C 
BRANCH  31  32
ATOM     32  C   UNL     1      -1.762  -7.505  -2.199  0.00  0.00    +0.122 A 
ATOM     33  C   UNL     1      -1.334  -7.128  -3.417  0.00  0.00    +0.046 A 
ATOM     34  C   UNL     1      -1.078  -8.311  -4.146  0.00  0.00    +0.041 A 
ATOM     35  C   UNL     1      -1.364  -9.341  -3.330  0.00  0.00    +0.195 A 
ATOM     36  O   UNL     1      -1.772  -8.847  -2.150  0.00  0.00    -0.466 OA
ENDBRANCH  31  32
ENDBRANCH  20  31
ENDBRANCH   1  20
TORSDOF 11
