REMARK  Name = ZINC60751066
REMARK  8 active torsions:
REMARK  status: ('A' for Active; 'I' for Inactive)
REMARK    1  A    between atoms: C_1  and  C_2
REMARK    2  A    between atoms: C_2  and  C_3
REMARK    3  A    between atoms: N_11  and  C_15
REMARK    4  A    between atoms: C_15  and  C_16
REMARK    5  A    between atoms: C_16  and  O_18
REMARK    6  A    between atoms: O_18  and  C_19
REMARK    7  A    between atoms: C_22  and  C_28
REMARK    8  A    between atoms: C_24  and  N_25
REMARK                            x       y       z     vdW  Elec       q    Type
REMARK                         _______ _______ _______ _____ _____    ______ ____
ROOT
ATOM      1  C   UNL     1      -1.784  -0.490  -0.080  0.00  0.00    -0.011 C 
ATOM      2  C   UNL     1      -2.437  -0.120   1.253  0.00  0.00    +0.006 C 
ATOM      3  C   UNL     1      -3.853  -0.699   1.304  0.00  0.00    +0.035 C 
ATOM      4  C   UNL     1      -3.791  -2.215   1.154  0.00  0.00    +0.113 C 
ATOM      5  C   UNL     1      -3.118  -2.601  -0.159  0.00  0.00    +0.035 C 
ATOM      6  C   UNL     1      -1.705  -2.014  -0.204  0.00  0.00    +0.006 C 
ATOM      7  C   UNL     1      -3.058  -2.832   2.324  0.00  0.00    +0.247 C 
ATOM      8  O   UNL     1      -1.907  -2.640   2.652  0.00  0.00    -0.273 OA
ATOM      9  N   UNL     1      -3.955  -3.641   2.925  0.00  0.00    -0.213 N 
ATOM     10  C   UNL     1      -5.138  -3.616   2.299  0.00  0.00    +0.310 C 
ATOM     11  O   UNL     1      -6.104  -4.263   2.654  0.00  0.00    -0.252 OA
ATOM     12  N   UNL     1      -5.138  -2.795   1.231  0.00  0.00    -0.285 N 
ATOM     13  H   UNL     1      -5.880  -2.621   0.632  0.00  0.00    +0.151 HD
ENDROOT
BRANCH   1  15
ATOM     14  C   UNL     1      -0.458   1.626  -0.138  0.00  0.00    +0.004 C 
ATOM     15  C   UNL     1      -0.373   0.099  -0.137  0.00  0.00    -0.000 C 
ENDBRANCH   1  15
BRANCH   9  16
ATOM     16  C   UNL     1      -3.670  -4.447   4.114  0.00  0.00    +0.238 C 
BRANCH  16  17
ATOM     17  C   UNL     1      -3.987  -3.646   5.351  0.00  0.00    +0.331 C 
ATOM     18  O   UNL     1      -4.409  -2.518   5.249  0.00  0.00    -0.249 OA
BRANCH  17  19
ATOM     19  O   UNL     1      -3.802  -4.186   6.566  0.00  0.00    -0.422 OA
BRANCH  19  20
ATOM     20  C   UNL     1      -4.001  -3.395   7.654  0.00  0.00    +0.162 A 
ATOM     21  C   UNL     1      -2.936  -2.708   8.217  0.00  0.00    +0.049 A 
ATOM     22  C   UNL     1      -3.141  -1.905   9.322  0.00  0.00    +0.007 A 
ATOM     23  C   UNL     1      -4.406  -1.786   9.867  0.00  0.00    -0.048 A 
ATOM     24  C   UNL     1      -5.469  -2.470   9.307  0.00  0.00    +0.039 A 
ATOM     25  C   UNL     1      -5.271  -3.269   8.198  0.00  0.00    +0.169 A 
ATOM     26  C   UNL     1      -4.627  -0.909  11.073  0.00  0.00    +0.044 C 
BRANCH  25  27
ATOM     27  N   UNL     1      -6.410  -3.996   7.595  0.00  0.00    +0.060 N 
ATOM     28  O   UNL     1      -7.517  -3.886   8.070  0.00  0.00    -0.126 OA
ATOM     29  O   UNL     1      -6.235  -4.700   6.628  0.00  0.00    -0.126 OA
ENDBRANCH  25  27
ENDBRANCH  19  20
ENDBRANCH  17  19
ENDBRANCH  16  17
ENDBRANCH   9  16
TORSDOF 6
