REMARK  Name = ZINC66188594
REMARK  9 active torsions:
REMARK  status: ('A' for Active; 'I' for Inactive)
REMARK    1  A    between atoms: C_1  and  C_2
REMARK    2  A    between atoms: C_5  and  C_31
REMARK    3  A    between atoms: N_8  and  C_10
REMARK    4  A    between atoms: C_10  and  C_11
REMARK    5  A    between atoms: C_11  and  C_13
REMARK    6  A    between atoms: C_11  and  N_14
REMARK    7  A    between atoms: N_17  and  C_18
REMARK    8  A    between atoms: N_17  and  C_19
REMARK    9  A    between atoms: N_22  and  C_25
REMARK                            x       y       z     vdW  Elec       q    Type
REMARK                         _______ _______ _______ _____ _____    ______ ____
ROOT
ATOM      1  N   UNL     1       3.510  -2.495   0.951  0.00  0.00    -0.298 N 
ATOM      2  C   UNL     1       4.540  -1.852   0.365  0.00  0.00    +0.302 C 
ATOM      3  O   UNL     1       5.040  -0.884   0.906  0.00  0.00    -0.253 OA
ATOM      4  N   UNL     1       5.016  -2.281  -0.821  0.00  0.00    -0.286 N 
ATOM      5  C   UNL     1       4.414  -3.447  -1.473  0.00  0.00    +0.134 C 
ATOM      6  H   UNL     1       3.112  -3.266   0.519  0.00  0.00    +0.150 HD
ENDROOT
BRANCH   4   7
ATOM      7  C   UNL     1       6.135  -1.582  -1.457  0.00  0.00    +0.074 C 
ATOM      8  C   UNL     1       5.699  -1.062  -2.830  0.00  0.00    +0.004 C 
ATOM      9  C   UNL     1       6.894  -0.403  -3.523  0.00  0.00    -0.077 C 
ATOM     10  N   UNL     1       7.971  -1.387  -3.689  0.00  0.00    +0.382 N 
ATOM     11  C   UNL     1       8.443  -1.836  -2.374  0.00  0.00    -0.077 C 
ATOM     12  C   UNL     1       7.308  -2.550  -1.638  0.00  0.00    +0.004 C 
ATOM     13  H   UNL     1       7.625  -2.179  -4.210  0.00  0.00    -0.081 HD
BRANCH  10  14
ATOM     14  C   UNL     1       9.085  -0.771  -4.423  0.00  0.00    -0.064 C 
ATOM     15  C   UNL     1       8.601  -0.319  -5.804  0.00  0.00    +0.013 C 
ATOM     16  C   UNL     1       9.786   0.248  -6.591  0.00  0.00    +0.158 C 
ATOM     17  O   UNL     1      10.809  -0.744  -6.691  0.00  0.00    -0.380 OA
ATOM     18  C   UNL     1      11.333  -1.171  -5.432  0.00  0.00    +0.158 C 
ATOM     19  C   UNL     1      10.211  -1.795  -4.599  0.00  0.00    +0.013 C 
ENDBRANCH  10  14
ENDBRANCH   4   7
BRANCH   1  20
ATOM     20  C   UNL     1       2.993  -2.028   2.239  0.00  0.00    +0.055 C 
ATOM     21  C   UNL     1       3.825  -2.634   3.372  0.00  0.00    +0.026 C 
BRANCH  20  22
ATOM     22  C   UNL     1       1.534  -2.461   2.390  0.00  0.00    -0.057 C 
BRANCH  22  28
ATOM     23  C   UNL     1      -0.019   1.526   0.010  0.00  0.00    +0.005 C 
ATOM     24  C   UNL     1       0.002  -0.004   0.002  0.00  0.00    -0.031 C 
ATOM     25  C   UNL     1      -1.434  -0.535   0.015  0.00  0.00    +0.003 C 
ATOM     26  C   UNL     1      -1.402  -2.064   0.086  0.00  0.00    -0.031 C 
ATOM     27  C   UNL     1      -0.613  -2.496   1.324  0.00  0.00    -0.076 C 
ATOM     28  N   UNL     1       0.758  -1.980   1.239  0.00  0.00    +0.381 N 
ATOM     29  C   UNL     1       0.740  -0.512   1.242  0.00  0.00    -0.076 C 
ATOM     30  C   UNL     1      -2.832  -2.602   0.177  0.00  0.00    +0.005 C 
ATOM     31  H   UNL     1       1.188  -2.307   0.386  0.00  0.00    -0.082 HD
ENDBRANCH  22  28
ENDBRANCH  20  22
ENDBRANCH   1  20
TORSDOF 5
