REMARK  Name = ZINC28018060
REMARK  7 active torsions:
REMARK  status: ('A' for Active; 'I' for Inactive)
REMARK    1  A    between atoms: C_1  and  C_2
REMARK    2  A    between atoms: C_2  and  C_4
REMARK    3  A    between atoms: C_2  and  N_13
REMARK    4  A    between atoms: C_14  and  C_16
REMARK    5  A    between atoms: C_16  and  N_23
REMARK    6  A    between atoms: C_17  and  C_18
REMARK    7  A    between atoms: C_24  and  C_28
REMARK                            x       y       z     vdW  Elec       q    Type
REMARK                         _______ _______ _______ _____ _____    ______ ____
ROOT
ATOM      1  C   UNL     1       3.571   2.894  -1.321  0.00  0.00    +0.134 C 
ATOM      2  C   UNL     1       4.404   3.193  -2.354  0.00  0.00    +0.079 C 
ENDROOT
BRANCH   2   3
ATOM      3  C   UNL     1       5.644   3.828  -2.103  0.00  0.00    +0.130 A 
ATOM      4  C   UNL     1       6.538   4.271  -3.055  0.00  0.00    +0.049 A 
ATOM      5  C   UNL     1       7.619   4.832  -2.358  0.00  0.00    +0.042 A 
ATOM      6  C   UNL     1       7.348   4.713  -1.039  0.00  0.00    +0.195 A 
ATOM      7  O   UNL     1       6.158   4.114  -0.889  0.00  0.00    -0.463 OA
ENDBRANCH   2   3
BRANCH   1   8
ATOM      8  N   UNL     1       3.989   3.104  -0.001  0.00  0.00    -0.188 N 
ATOM      9  C   UNL     1       4.715   2.257   0.783  0.00  0.00    +0.187 A 
ATOM     10  N   UNL     1       4.882   2.859   1.944  0.00  0.00    -0.108 NA
ATOM     11  N   UNL     1       4.307   4.007   1.942  0.00  0.00    -0.022 NA
ATOM     12  N   UNL     1       3.745   4.231   0.804  0.00  0.00    -0.038 NA
BRANCH   9  13
ATOM     13  C   UNL     1       5.223   0.921   0.403  0.00  0.00    +0.021 A 
ATOM     14  C   UNL     1       4.689   0.257  -0.703  0.00  0.00    +0.011 A 
ATOM     15  C   UNL     1       5.169  -0.987  -1.055  0.00  0.00    +0.001 A 
ATOM     16  C   UNL     1       6.171  -1.581  -0.309  0.00  0.00    +0.000 A 
ATOM     17  C   UNL     1       6.702  -0.931   0.790  0.00  0.00    +0.001 A 
ATOM     18  C   UNL     1       6.233   0.316   1.150  0.00  0.00    +0.011 A 
ENDBRANCH   9  13
ENDBRANCH   1   8
BRANCH   1  20
ATOM     19  N   UNL     1       1.373   2.155  -0.574  0.00  0.00    -0.301 N 
ATOM     20  C   UNL     1       2.236   2.354  -1.589  0.00  0.00    +0.263 C 
ATOM     21  O   UNL     1       1.907   2.085  -2.730  0.00  0.00    -0.269 OA
ATOM     22  H   UNL     1       1.698   2.320   0.465  0.00  0.00    +0.150 HD
BRANCH  19  24
ATOM     23  C   UNL     1      -0.031   0.195  -0.985  0.00  0.00    +0.036 C 
ATOM     24  C   UNL     1       0.002   1.719  -0.852  0.00  0.00    +0.136 C 
BRANCH  24  25
ATOM     25  C   UNL     1      -0.899   2.145   0.278  0.00  0.00    +0.126 A 
ATOM     26  C   UNL     1      -2.142   2.622   0.130  0.00  0.00    +0.055 A 
ATOM     27  C   UNL     1      -2.638   2.902   1.483  0.00  0.00    +0.020 A 
ATOM     28  C   UNL     1      -3.832   3.402   2.000  0.00  0.00    +0.011 A 
ATOM     29  C   UNL     1      -3.979   3.544   3.352  0.00  0.00    +0.001 A 
ATOM     30  C   UNL     1      -2.947   3.194   4.211  0.00  0.00    +0.004 A 
ATOM     31  C   UNL     1      -1.759   2.698   3.718  0.00  0.00    +0.047 A 
ATOM     32  C   UNL     1      -1.589   2.546   2.347  0.00  0.00    +0.135 A 
ATOM     33  O   UNL     1      -0.575   2.095   1.582  0.00  0.00    -0.458 OA
ENDBRANCH  24  25
ENDBRANCH  19  24
ENDBRANCH   1  20
TORSDOF 6
