REMARK  Name = ZINC36304367
REMARK  19 active torsions:
REMARK  status: ('A' for Active; 'I' for Inactive)
REMARK    1  A    between atoms: C_1  and  C_2
REMARK    2  A    between atoms: C_3  and  C_22
REMARK    3  A    between atoms: C_4  and  O_13
REMARK    4  A    between atoms: N_5  and  C_7
REMARK    5  A    between atoms: O_13  and  C_14
REMARK    6  A    between atoms: C_19  and  O_20
REMARK    7  A    between atoms: O_20  and  C_21
REMARK    8  A    between atoms: C_22  and  N_23
REMARK    9  A    between atoms: N_23  and  C_24
REMARK   10  A    between atoms: N_23  and  C_28
REMARK   11  A    between atoms: C_24  and  C_25
REMARK   12  A    between atoms: C_25  and  O_26
REMARK   13  A    between atoms: O_26  and  C_27
REMARK   14  A    between atoms: C_28  and  C_29
REMARK   15  A    between atoms: C_29  and  C_31
REMARK   16  A    between atoms: C_29  and  O_36
REMARK   17  A    between atoms: C_31  and  O_32
REMARK   18  A    between atoms: O_32  and  C_33
REMARK   19  A    between atoms: C_33  and  C_34
REMARK                            x       y       z     vdW  Elec       q    Type
REMARK                         _______ _______ _______ _____ _____    ______ ____
ROOT
ATOM      1  C   UNL     1       1.913   0.974   0.595  0.00  0.00    +0.068 C 
ATOM      2  C   UNL     1       1.168  -0.326   0.433  0.00  0.00    +0.065 A 
ATOM      3  C   UNL     1       0.523  -0.758  -0.730  0.00  0.00    +0.021 A 
ATOM      4  C   UNL     1      -0.029  -1.975  -0.473  0.00  0.00    +0.225 A 
ATOM      5  N   UNL     1       0.265  -2.293   0.816  0.00  0.00    -0.200 N 
ATOM      6  N   UNL     1       1.020  -1.243   1.354  0.00  0.00    -0.168 NA
ENDROOT
BRANCH   5   7
ATOM      7  C   UNL     1      -0.116  -3.464   1.485  0.00  0.00    +0.069 A 
ATOM      8  C   UNL     1      -1.401  -3.967   1.331  0.00  0.00    +0.028 A 
ATOM      9  C   UNL     1      -1.773  -5.122   1.991  0.00  0.00    +0.002 A 
ATOM     10  C   UNL     1      -0.867  -5.777   2.804  0.00  0.00    +0.000 A 
ATOM     11  C   UNL     1       0.414  -5.279   2.960  0.00  0.00    +0.002 A 
ATOM     12  C   UNL     1       0.794  -4.128   2.298  0.00  0.00    +0.028 A 
ENDBRANCH   5   7
BRANCH   3  13
ATOM     13  C   UNL     1       0.450  -0.009  -2.035  0.00  0.00    -0.036 C 
BRANCH  13  14
ATOM     14  N   UNL     1       1.668  -0.266  -2.815  0.00  0.00    +0.386 N 
ATOM     15  H   UNL     1       2.477  -0.002  -2.273  0.00  0.00    -0.081 HD
BRANCH  14  16
ATOM     16  C   UNL     1       1.631   0.522  -4.055  0.00  0.00    -0.050 C 
BRANCH  16  17
ATOM     17  C   UNL     1       1.571   2.012  -3.710  0.00  0.00    +0.141 C 
BRANCH  17  18
ATOM     18  O   UNL     1       2.744   2.379  -2.981  0.00  0.00    -0.385 OA
ATOM     19  C   UNL     1       2.788   3.758  -2.608  0.00  0.00    +0.193 C 
ENDBRANCH  17  18
ENDBRANCH  16  17
ENDBRANCH  14  16
BRANCH  14  20
ATOM     20  C   UNL     1       1.746  -1.695  -3.146  0.00  0.00    -0.044 C 
BRANCH  20  21
ATOM     21  C   UNL     1       3.111  -2.002  -3.766  0.00  0.00    +0.124 C 
BRANCH  21  22
ATOM     22  O   UNL     1       3.199  -1.387  -5.053  0.00  0.00    -0.391 OA
ATOM     23  H   UNL     1       2.526  -1.689  -5.679  0.00  0.00    +0.210 HD
ENDBRANCH  21  22
BRANCH  21  24
ATOM     24  C   UNL     1       3.276  -3.516  -3.911  0.00  0.00    +0.190 C 
BRANCH  24  25
ATOM     25  O   UNL     1       4.594  -3.808  -4.380  0.00  0.00    -0.365 OA
BRANCH  25  26
ATOM     26  C   UNL     1       4.854  -5.203  -4.550  0.00  0.00    +0.248 C 
BRANCH  26  27
ATOM     27  C   UNL     1       6.232  -5.389  -5.034  0.00  0.00    -0.077 C 
ATOM     28  C   UNL     1       7.331  -5.538  -5.420  0.00  0.00    +0.006 C 
ENDBRANCH  26  27
ENDBRANCH  25  26
ENDBRANCH  24  25
ENDBRANCH  21  24
ENDBRANCH  20  21
ENDBRANCH  14  20
ENDBRANCH  13  14
ENDBRANCH   3  13
BRANCH   4  29
ATOM     29  O   UNL     1      -0.742  -2.733  -1.345  0.00  0.00    -0.434 OA
BRANCH  29  30
ATOM     30  C   UNL     1      -2.077  -2.498  -1.451  0.00  0.00    +0.172 A 
ATOM     31  C   UNL     1      -2.652  -1.439  -0.766  0.00  0.00    +0.050 A 
ATOM     32  C   UNL     1      -4.010  -1.201  -0.876  0.00  0.00    +0.004 A 
ATOM     33  C   UNL     1      -4.796  -2.018  -1.667  0.00  0.00    +0.004 A 
ATOM     34  C   UNL     1      -4.229  -3.076  -2.353  0.00  0.00    +0.049 A 
ATOM     35  C   UNL     1      -2.868  -3.317  -2.252  0.00  0.00    +0.162 A 
BRANCH  35  36
ATOM     36  O   UNL     1      -2.307  -4.353  -2.930  0.00  0.00    -0.491 OA
ATOM     37  C   UNL     1      -3.179  -5.151  -3.732  0.00  0.00    +0.277 C 
ENDBRANCH  35  36
ENDBRANCH  29  30
ENDBRANCH   4  29
TORSDOF 16
