REMARK  Name = ZINC44516233
REMARK  7 active torsions:
REMARK  status: ('A' for Active; 'I' for Inactive)
REMARK    1  A    between atoms: C_1  and  C_2
REMARK    2  A    between atoms: C_2  and  N_3
REMARK    3  A    between atoms: C_6  and  C_9
REMARK    4  A    between atoms: C_9  and  N_10
REMARK    5  A    between atoms: N_10  and  S_11
REMARK    6  A    between atoms: S_11  and  C_14
REMARK    7  A    between atoms: C_17  and  N_21
REMARK                            x       y       z     vdW  Elec       q    Type
REMARK                         _______ _______ _______ _____ _____    ______ ____
ROOT
ATOM      1  S   UNL     1      -6.400  -4.792  -0.292  0.00  0.00    +0.059 S 
ATOM      2  O   UNL     1      -6.205  -6.197  -0.222  0.00  0.00    -0.153 OA
ATOM      3  O   UNL     1      -6.684  -4.003   0.855  0.00  0.00    -0.153 OA
ENDROOT
BRANCH   1   4
ATOM      4  C   UNL     1      -7.720  -4.522  -1.428  0.00  0.00    +0.119 A 
ATOM      5  C   UNL     1      -8.775  -3.701  -1.076  0.00  0.00    +0.031 A 
ATOM      6  C   UNL     1      -9.812  -3.488  -1.964  0.00  0.00    +0.025 A 
ATOM      7  C   UNL     1      -9.794  -4.099  -3.211  0.00  0.00    +0.026 A 
ATOM      8  C   UNL     1      -8.733  -4.923  -3.562  0.00  0.00    +0.040 A 
ATOM      9  C   UNL     1      -7.696  -5.128  -2.671  0.00  0.00    +0.046 A 
ATOM     10 BR   UNL     1      -6.246  -6.244  -3.150  0.00  0.00    -0.048 Br
BRANCH   7  11
ATOM     11  N   UNL     1     -10.841  -3.886  -4.110  0.00  0.00    -0.358 N 
ATOM     12  H   UNL     1     -11.582  -3.311  -3.864  0.00  0.00    +0.142 HD
ATOM     13  H   UNL     1     -10.828  -4.314  -4.981  0.00  0.00    +0.142 HD
ENDBRANCH   7  11
ENDBRANCH   1   4
BRANCH   1  14
ATOM     14  N   UNL     1      -5.030  -4.158  -0.975  0.00  0.00    -0.190 NA
ATOM     15  H   UNL     1      -4.293  -4.741  -1.214  0.00  0.00    +0.148 HD
BRANCH  14  16
ATOM     16  C   UNL     1      -4.932  -2.717  -1.218  0.00  0.00    +0.109 C 
BRANCH  16  20
ATOM     17  N   UNL     1      -1.186  -0.704  -0.776  0.00  0.00    +0.380 N 
ATOM     18  C   UNL     1      -1.913  -0.471  -2.030  0.00  0.00    -0.079 C 
ATOM     19  C   UNL     1      -3.382  -0.859  -1.852  0.00  0.00    -0.014 C 
ATOM     20  C   UNL     1      -3.471  -2.341  -1.475  0.00  0.00    +0.001 C 
ATOM     21  C   UNL     1      -2.649  -2.586  -0.207  0.00  0.00    -0.014 C 
ATOM     22  C   UNL     1      -1.206  -2.134  -0.446  0.00  0.00    -0.079 C 
ATOM     23  H   UNL     1      -1.626  -0.182  -0.033  0.00  0.00    -0.082 HD
BRANCH  17  25
ATOM     24  C   UNL     1       0.234   1.256  -1.149  0.00  0.00    -0.017 C 
ATOM     25  C   UNL     1       0.205  -0.257  -0.928  0.00  0.00    -0.082 C 
ENDBRANCH  17  25
ENDBRANCH  16  20
ENDBRANCH  14  16
ENDBRANCH   1  14
TORSDOF 6
