REMARK  Name = ZINC43149683
REMARK  6 active torsions:
REMARK  status: ('A' for Active; 'I' for Inactive)
REMARK    1  A    between atoms: C_1  and  C_2
REMARK    2  A    between atoms: C_5  and  N_20
REMARK    3  A    between atoms: C_7  and  N_8
REMARK    4  A    between atoms: N_11  and  C_12
REMARK    5  A    between atoms: N_11  and  C_13
REMARK    6  A    between atoms: C_13  and  C_14
REMARK                            x       y       z     vdW  Elec       q    Type
REMARK                         _______ _______ _______ _____ _____    ______ ____
ROOT
ATOM      1  N   UNL     1       0.025  -0.015   2.417  0.00  0.00    -0.269 N 
ATOM      2  C   UNL     1      -0.056  -0.694   3.578  0.00  0.00    +0.307 C 
ATOM      3  O   UNL     1      -0.040  -1.910   3.573  0.00  0.00    -0.252 OA
ATOM      4  N   UNL     1      -0.156  -0.026   4.745  0.00  0.00    -0.284 N 
ATOM      5  C   UNL     1      -0.176   1.438   4.750  0.00  0.00    +0.134 C 
ATOM      6  H   UNL     1       0.077   0.954   2.425  0.00  0.00    +0.156 HD
ENDROOT
BRANCH   1  13
ATOM      7  C   UNL     1      -1.265   1.183   0.181  0.00  0.00    +0.045 C 
ATOM      8  C   UNL     1      -0.584  -0.158   0.084  0.00  0.00    -0.029 A 
ATOM      9  C   UNL     1      -0.568  -0.841  -1.117  0.00  0.00    +0.007 A 
ATOM     10  C   UNL     1       0.057  -2.071  -1.206  0.00  0.00    +0.033 A 
ATOM     11  C   UNL     1       0.669  -2.621  -0.095  0.00  0.00    +0.128 A 
ATOM     12  C   UNL     1       0.656  -1.944   1.109  0.00  0.00    +0.056 A 
ATOM     13  C   UNL     1       0.034  -0.706   1.200  0.00  0.00    +0.040 A 
BRANCH  11  14
ATOM     14  N   UNL     1       1.337  -3.938  -0.196  0.00  0.00    +0.056 N 
ATOM     15  O   UNL     1       1.348  -4.532  -1.249  0.00  0.00    -0.126 OA
ATOM     16  O   UNL     1       1.872  -4.420   0.776  0.00  0.00    -0.126 OA
ENDBRANCH  11  14
ENDBRANCH   1  13
BRANCH   4  17
ATOM     17  C   UNL     1      -0.245  -0.765   6.006  0.00  0.00    +0.151 C 
BRANCH  17  18
ATOM     18  C   UNL     1       1.141  -1.000   6.549  0.00  0.00    +0.009 A 
ATOM     19  C   UNL     1       1.871  -0.227   7.390  0.00  0.00    +0.014 A 
ATOM     20  C   UNL     1       3.136  -0.645   7.759  0.00  0.00    +0.028 A 
ATOM     21  C   UNL     1       3.609  -1.818   7.268  0.00  0.00    +0.078 A 
ATOM     22  S   UNL     1       2.245  -2.373   6.259  0.00  0.00    -0.080 S 
ATOM     23 CL   UNL     1       5.140  -2.585   7.554  0.00  0.00    -0.076 Cl
ENDBRANCH  17  18
ENDBRANCH   4  17
TORSDOF 4
