REMARK  Name = ZINC56865134
REMARK  8 active torsions:
REMARK  status: ('A' for Active; 'I' for Inactive)
REMARK    1  A    between atoms: C_1  and  C_2
REMARK    2  A    between atoms: C_5  and  C_30
REMARK    3  A    between atoms: N_8  and  C_10
REMARK    4  A    between atoms: C_10  and  C_11
REMARK    5  A    between atoms: C_11  and  C_12
REMARK    6  A    between atoms: C_12  and  N_13
REMARK    7  A    between atoms: C_24  and  N_25
REMARK    8  A    between atoms: C_26  and  C_28
REMARK                            x       y       z     vdW  Elec       q    Type
REMARK                         _______ _______ _______ _____ _____    ______ ____
ROOT
ATOM      1  N   UNL     1       5.192  -2.124   3.267  0.00  0.00    -0.299 N 
ATOM      2  C   UNL     1       6.094  -2.450   4.215  0.00  0.00    +0.303 C 
ATOM      3  O   UNL     1       5.732  -3.010   5.232  0.00  0.00    -0.253 OA
ATOM      4  N   UNL     1       7.397  -2.155   4.035  0.00  0.00    -0.281 N 
ATOM      5  C   UNL     1       8.421  -2.596   4.996  0.00  0.00    +0.114 C 
ATOM      6  C   UNL     1       9.354  -3.569   4.275  0.00  0.00    +0.056 C 
ATOM      7  C   UNL     1       9.779  -3.015   2.941  0.00  0.00    -0.020 A 
ATOM      8  C   UNL     1       9.084  -2.023   2.288  0.00  0.00    -0.025 A 
ATOM      9  C   UNL     1       9.524  -1.569   1.052  0.00  0.00    +0.005 A 
ATOM     10  C   UNL     1      10.660  -2.097   0.472  0.00  0.00    +0.002 A 
ATOM     11  C   UNL     1      11.368  -3.086   1.125  0.00  0.00    +0.023 A 
ATOM     12  C   UNL     1      10.929  -3.546   2.357  0.00  0.00    +0.037 A 
ATOM     13  C   UNL     1       7.852  -1.387   2.871  0.00  0.00    +0.144 C 
ATOM     14  H   UNL     1       5.468  -1.613   2.491  0.00  0.00    +0.150 HD
ENDROOT
BRANCH  12  15
ATOM     15  N   UNL     1      11.645  -4.550   3.018  0.00  0.00    -0.285 N 
ATOM     16  C   UNL     1      12.989  -4.596   2.921  0.00  0.00    +0.214 C 
ATOM     17  O   UNL     1      13.570  -3.819   2.193  0.00  0.00    -0.276 OA
ATOM     18  C   UNL     1      13.768  -5.613   3.715  0.00  0.00    +0.109 C 
ATOM     19  H   UNL     1      11.174  -5.213   3.548  0.00  0.00    +0.155 HD
ENDBRANCH  12  15
BRANCH   1  20
ATOM     20  C   UNL     1       3.796  -2.543   3.410  0.00  0.00    +0.104 C 
BRANCH  20  21
ATOM     21  C   UNL     1       2.990  -2.048   2.208  0.00  0.00    +0.000 C 
BRANCH  21  22
ATOM     22  C   UNL     1       1.531  -2.485   2.357  0.00  0.00    -0.077 C 
BRANCH  22  28
ATOM     23  C   UNL     1      -0.029   1.488  -0.039  0.00  0.00    +0.005 C 
ATOM     24  C   UNL     1      -0.003  -0.041  -0.043  0.00  0.00    -0.031 C 
ATOM     25  C   UNL     1      -1.438  -0.577  -0.031  0.00  0.00    +0.003 C 
ATOM     26  C   UNL     1      -1.401  -2.106   0.045  0.00  0.00    -0.031 C 
ATOM     27  C   UNL     1      -0.613  -2.531   1.286  0.00  0.00    -0.076 C 
ATOM     28  N   UNL     1       0.757  -2.010   1.202  0.00  0.00    +0.380 N 
ATOM     29  C   UNL     1       0.734  -0.543   1.201  0.00  0.00    -0.076 C 
ATOM     30  C   UNL     1      -2.829  -2.648   0.135  0.00  0.00    +0.005 C 
ATOM     31  H   UNL     1       1.189  -2.339   0.352  0.00  0.00    -0.082 HD
ENDBRANCH  22  28
ENDBRANCH  21  22
ENDBRANCH  20  21
ENDBRANCH   1  20
TORSDOF 5
