REMARK  Name = ZINC09877326
REMARK  7 active torsions:
REMARK  status: ('A' for Active; 'I' for Inactive)
REMARK    1  A    between atoms: C_1  and  C_2
REMARK    2  A    between atoms: C_5  and  C_8
REMARK    3  A    between atoms: C_11  and  C_13
REMARK    4  A    between atoms: C_13  and  C_15
REMARK    5  A    between atoms: C_13  and  S_16
REMARK    6  A    between atoms: S_16  and  C_17
REMARK    7  A    between atoms: C_23  and  N_25
REMARK                            x       y       z     vdW  Elec       q    Type
REMARK                         _______ _______ _______ _____ _____    ______ ____
ROOT
ATOM      1  C   UNL     1      -0.900  -2.588  -0.003  0.00  0.00    +0.139 C 
ATOM      2  C   UNL     1      -0.165  -2.850  -1.319  0.00  0.00    +0.029 C 
ENDROOT
BRANCH   1   6
ATOM      3  C   UNL     1      -3.313  -5.189   0.730  0.00  0.00    +0.248 A 
ATOM      4  N   UNL     1      -3.942  -4.460  -0.161  0.00  0.00    -0.107 NA
ATOM      5  N   UNL     1      -3.188  -3.478  -0.513  0.00  0.00    -0.111 NA
ATOM      6  C   UNL     1      -2.055  -3.547   0.127  0.00  0.00    +0.231 A 
ATOM      7  O   UNL     1      -2.105  -4.624   0.929  0.00  0.00    -0.419 OA
BRANCH   3  12
ATOM      8  C   UNL     1      -5.332  -9.923   3.306  0.00  0.00    +0.044 C 
ATOM      9  C   UNL     1      -4.803  -8.683   2.632  0.00  0.00    -0.050 A 
ATOM     10  C   UNL     1      -5.586  -8.014   1.708  0.00  0.00    +0.004 A 
ATOM     11  C   UNL     1      -5.108  -6.879   1.087  0.00  0.00    +0.013 A 
ATOM     12  C   UNL     1      -3.832  -6.405   1.392  0.00  0.00    +0.038 A 
ATOM     13  C   UNL     1      -3.045  -7.088   2.321  0.00  0.00    +0.013 A 
ATOM     14  C   UNL     1      -3.537  -8.219   2.939  0.00  0.00    +0.004 A 
ENDBRANCH   3  12
ENDBRANCH   1   6
BRANCH   1  15
ATOM     15  S   UNL     1      -1.522  -0.888   0.012  0.00  0.00    -0.075 S 
BRANCH  15  16
ATOM     16  C   UNL     1       0.002  -0.004   0.002  0.00  0.00    +0.171 A 
ATOM     17  N   UNL     1      -0.016   1.358   0.009  0.00  0.00    -0.302 N 
ATOM     18  H   UNL     1      -0.864   1.831   0.016  0.00  0.00    +0.171 HD
ATOM     19  C   UNL     1       1.141   2.051   0.002  0.00  0.00    +0.254 A 
ATOM     20  O   UNL     1       1.134   3.272   0.009  0.00  0.00    -0.268 OA
ATOM     21  C   UNL     1       2.350   1.348  -0.013  0.00  0.00    +0.113 A 
ATOM     22  C   UNL     1       2.314  -0.040  -0.020  0.00  0.00    +0.124 A 
ATOM     23  N   UNL     1       1.136  -0.674  -0.012  0.00  0.00    -0.209 NA
BRANCH  22  24
ATOM     24  N   UNL     1       3.490  -0.763  -0.036  0.00  0.00    -0.343 N 
ATOM     25  H   UNL     1       3.463  -1.732  -0.041  0.00  0.00    +0.144 HD
ATOM     26  H   UNL     1       4.343  -0.301  -0.041  0.00  0.00    +0.144 HD
ENDBRANCH  22  24
ENDBRANCH  15  16
ENDBRANCH   1  15
TORSDOF 5
