REMARK  Name = ZINC06639241
REMARK  11 active torsions:
REMARK  status: ('A' for Active; 'I' for Inactive)
REMARK    1  A    between atoms: C_1  and  C_2
REMARK    2  A    between atoms: C_6  and  C_29
REMARK    3  A    between atoms: C_7  and  N_8
REMARK    4  A    between atoms: C_9  and  C_11
REMARK    5  A    between atoms: C_11  and  N_52
REMARK    6  A    between atoms: C_12  and  N_52
REMARK    7  A    between atoms: C_13  and  C_15
REMARK    8  A    between atoms: C_13  and  C_16
REMARK    9  A    between atoms: C_13  and  N_52
REMARK   10  A    between atoms: N_18  and  C_19
REMARK   11  A    between atoms: C_21  and  N_26
REMARK                            x       y       z     vdW  Elec       q    Type
REMARK                         _______ _______ _______ _____ _____    ______ ____
ROOT
ATOM      1  C   UNL     1      -7.043  -1.224   1.866  0.00  0.00    +0.017 C 
ATOM      2  C   UNL     1      -8.534  -0.894   1.956  0.00  0.00    -0.004 C 
ENDROOT
BRANCH   1   3
ATOM      3  C   UNL     1      -6.473  -0.637   0.600  0.00  0.00    +0.203 C 
ATOM      4  O   UNL     1      -6.071  -1.369  -0.280  0.00  0.00    -0.277 OA
ATOM      5  N   UNL     1      -6.411   0.700   0.446  0.00  0.00    -0.286 N 
ATOM      6  H   UNL     1      -6.662   1.285   1.177  0.00  0.00    +0.155 HD
BRANCH   5   7
ATOM      7  C   UNL     1      -5.983   1.245  -0.771  0.00  0.00    +0.054 A 
ATOM      8  C   UNL     1      -5.024   0.587  -1.529  0.00  0.00    +0.057 A 
ATOM      9  C   UNL     1      -4.605   1.127  -2.729  0.00  0.00    +0.128 A 
ATOM     10  C   UNL     1      -5.134   2.324  -3.174  0.00  0.00    +0.034 A 
ATOM     11  C   UNL     1      -6.094   2.980  -2.424  0.00  0.00    +0.024 A 
ATOM     12  C   UNL     1      -6.518   2.445  -1.222  0.00  0.00    +0.062 A 
ATOM     13 CL   UNL     1      -7.718   3.272  -0.279  0.00  0.00    -0.082 Cl
BRANCH   9  14
ATOM     14  N   UNL     1      -3.582   0.425  -3.538  0.00  0.00    +0.056 N 
ATOM     15  O   UNL     1      -3.111  -0.627  -3.144  0.00  0.00    -0.126 OA
ATOM     16  O   UNL     1      -3.215   0.898  -4.598  0.00  0.00    -0.126 OA
ENDBRANCH   9  14
ENDBRANCH   5   7
ENDBRANCH   1   3
BRANCH   1  18
ATOM     17  C   UNL     1      -7.126  -3.256   3.181  0.00  0.00    -0.094 C 
ATOM     18  N   UNL     1      -6.837  -2.688   1.847  0.00  0.00    +0.391 N 
ATOM     19  H   UNL     1      -5.858  -2.883   1.607  0.00  0.00    -0.080 HD
BRANCH  18  20
ATOM     20  C   UNL     1      -7.714  -3.308   0.833  0.00  0.00    +0.020 C 
BRANCH  20  22
ATOM     21  N   UNL     1      -7.980  -5.536  -0.208  0.00  0.00    -0.287 N 
ATOM     22  C   UNL     1      -7.330  -4.757   0.679  0.00  0.00    +0.201 C 
ATOM     23  O   UNL     1      -6.436  -5.223   1.354  0.00  0.00    -0.278 OA
ATOM     24  H   UNL     1      -8.669  -5.155  -0.775  0.00  0.00    +0.155 HD
BRANCH  21  31
ATOM     25  C   UNL     1      -5.286  -6.245  -0.791  0.00  0.00    +0.045 C 
ATOM     26  C   UNL     1      -6.359  -7.285  -0.595  0.00  0.00    -0.029 A 
ATOM     27  C   UNL     1      -6.047  -8.627  -0.691  0.00  0.00    +0.005 A 
ATOM     28  C   UNL     1      -7.032  -9.581  -0.516  0.00  0.00    +0.001 A 
ATOM     29  C   UNL     1      -8.331  -9.196  -0.240  0.00  0.00    +0.005 A 
ATOM     30  C   UNL     1      -8.649  -7.856  -0.137  0.00  0.00    -0.029 A 
ATOM     31  C   UNL     1      -7.662  -6.895  -0.312  0.00  0.00    +0.039 A 
ATOM     32  C   UNL     1     -10.065  -7.437   0.164  0.00  0.00    +0.045 C 
ENDBRANCH  21  31
ENDBRANCH  20  22
ENDBRANCH  18  20
ENDBRANCH   1  18
TORSDOF 7
