REMARK  Name = ZINC04647280
REMARK  6 active torsions:
REMARK  status: ('A' for Active; 'I' for Inactive)
REMARK    1  A    between atoms: C_1  and  C_2
REMARK    2  A    between atoms: N_4  and  C_5
REMARK    3  A    between atoms: C_8  and  S_11
REMARK    4  A    between atoms: S_11  and  N_14
REMARK    5  A    between atoms: C_20  and  C_32
REMARK    6  A    between atoms: C_23  and  C_25
REMARK                            x       y       z     vdW  Elec       q    Type
REMARK                         _______ _______ _______ _____ _____    ______ ____
ROOT
ATOM      1  N   UNL     1       3.263   0.857  -0.125  0.00  0.00    -0.182 N 
ATOM      2  C   UNL     1       1.875   0.937  -0.250  0.00  0.00    +0.255 A 
ATOM      3  N   UNL     1       1.161   2.071  -0.284  0.00  0.00    -0.179 NA
ATOM      4  C   UNL     1      -0.107   1.784  -0.406  0.00  0.00    +0.220 A 
ATOM      5  N   UNL     1      -0.231   0.435  -0.459  0.00  0.00    -0.220 N 
ATOM      6  N   UNL     1       1.058  -0.088  -0.353  0.00  0.00    -0.130 NA
ATOM      7  C   UNL     1      -1.508  -0.257  -0.605  0.00  0.00    +0.165 C 
ATOM      8  C   UNL     1      -2.638   0.711  -0.383  0.00  0.00    +0.028 C 
ATOM      9  C   UNL     1      -2.472   2.026  -0.331  0.00  0.00    +0.039 C 
ATOM     10  N   UNL     1      -1.211   2.620  -0.473  0.00  0.00    -0.283 N 
ATOM     11  H   UNL     1       3.681   0.014   0.108  0.00  0.00    +0.177 HD
ATOM     12  H   UNL     1      -1.115   3.575  -0.612  0.00  0.00    +0.155 HD
ENDROOT
BRANCH   9  13
ATOM     13  C   UNL     1      -3.654   2.891  -0.115  0.00  0.00    -0.004 A 
ATOM     14  C   UNL     1      -4.920   2.324   0.024  0.00  0.00    +0.011 A 
ATOM     15  C   UNL     1      -6.018   3.134   0.230  0.00  0.00    +0.020 A 
ATOM     16  C   UNL     1      -5.865   4.509   0.287  0.00  0.00    +0.041 A 
ATOM     17  C   UNL     1      -4.611   5.078   0.145  0.00  0.00    +0.020 A 
ATOM     18  C   UNL     1      -3.506   4.276  -0.056  0.00  0.00    +0.011 A 
ATOM     19 CL   UNL     1      -7.251   5.524   0.539  0.00  0.00    -0.084 Cl
ENDBRANCH   9  13
BRANCH   7  20
ATOM     20  C   UNL     1      -1.609  -0.836  -1.993  0.00  0.00    -0.019 A 
ATOM     21  C   UNL     1      -1.557  -0.002  -3.094  0.00  0.00    +0.009 A 
ATOM     22  C   UNL     1      -1.644  -0.532  -4.367  0.00  0.00    +0.039 A 
ATOM     23  C   UNL     1      -1.795  -1.897  -4.540  0.00  0.00    +0.123 A 
ATOM     24  C   UNL     1      -1.852  -2.731  -3.436  0.00  0.00    +0.039 A 
ATOM     25  C   UNL     1      -1.759  -2.199  -2.163  0.00  0.00    +0.009 A 
ATOM     26  F   UNL     1      -1.886  -2.416  -5.784  0.00  0.00    -0.205 F 
ENDBRANCH   7  20
BRANCH   1  27
ATOM     27  S   UNL     1       4.196   2.203  -0.376  0.00  0.00    +0.075 S 
ATOM     28  O   UNL     1       5.543   1.810  -0.152  0.00  0.00    -0.150 OA
ATOM     29  O   UNL     1       3.762   2.775  -1.602  0.00  0.00    -0.150 OA
BRANCH  27  33
ATOM     30  C   UNL     1       3.156   5.177   2.878  0.00  0.00    +0.033 A 
ATOM     31  C   UNL     1       4.175   4.255   3.078  0.00  0.00    +0.025 A 
ATOM     32  C   UNL     1       4.489   3.349   2.084  0.00  0.00    +0.030 A 
ATOM     33  C   UNL     1       3.791   3.360   0.890  0.00  0.00    +0.109 A 
ATOM     34  C   UNL     1       2.780   4.280   0.686  0.00  0.00    +0.030 A 
ATOM     35  C   UNL     1       2.457   5.186   1.678  0.00  0.00    +0.025 A 
BRANCH  30  39
ATOM     36  C   UNL     1       3.442   7.473   5.846  0.00  0.00    +0.109 C 
ATOM     37  C   UNL     1       3.802   6.576   4.690  0.00  0.00    +0.214 C 
ATOM     38  O   UNL     1       4.962   6.286   4.487  0.00  0.00    -0.276 OA
ATOM     39  N   UNL     1       2.836   6.097   3.882  0.00  0.00    -0.286 N 
ATOM     40  H   UNL     1       1.918   6.389   3.998  0.00  0.00    +0.155 HD
ENDBRANCH  30  39
ENDBRANCH  27  33
ENDBRANCH   1  27
TORSDOF 5
