REMARK  Name = ZINC22132858
REMARK  6 active torsions:
REMARK  status: ('A' for Active; 'I' for Inactive)
REMARK    1  A    between atoms: C_7  and  N_28
REMARK    2  A    between atoms: C_9  and  C_11
REMARK    3  A    between atoms: C_11  and  O_12
REMARK    4  A    between atoms: O_12  and  C_13
REMARK    5  A    between atoms: C_13  and  C_15
REMARK    6  A    between atoms: C_17  and  C_21
REMARK                            x       y       z     vdW  Elec       q    Type
REMARK                         _______ _______ _______ _____ _____    ______ ____
ROOT
ATOM      1  O   UNL     1       5.361  -2.828  -1.409  0.00  0.00    -0.452 OA
ENDROOT
BRANCH   1   2
ATOM      2  C   UNL     1       6.542  -3.450  -1.599  0.00  0.00    +0.358 C 
ATOM      3  O   UNL     1       7.206  -3.799  -0.643  0.00  0.00    -0.243 OA
BRANCH   2   4
ATOM      4  C   UNL     1       7.027  -3.705  -2.964  0.00  0.00    +0.143 A 
ATOM      5  C   UNL     1       8.207  -4.332  -3.319  0.00  0.00    +0.064 A 
ATOM      6  C   UNL     1       8.216  -4.335  -4.726  0.00  0.00    +0.093 A 
ATOM      7  N   UNL     1       7.111  -3.747  -5.132  0.00  0.00    -0.173 NA
ATOM      8  N   UNL     1       6.397  -3.374  -4.132  0.00  0.00    -0.270 N 
ATOM      9  H   UNL     1       5.541  -2.924  -4.195  0.00  0.00    +0.189 HD
BRANCH   6  10
ATOM     10  C   UNL     1       9.280  -4.899  -5.594  0.00  0.00    +0.002 A 
ATOM     11  C   UNL     1      10.400  -5.501  -5.026  0.00  0.00    +0.011 A 
ATOM     12  C   UNL     1      11.386  -6.024  -5.837  0.00  0.00    +0.016 A 
ATOM     13  C   UNL     1      11.264  -5.950  -7.214  0.00  0.00    +0.018 A 
ATOM     14  C   UNL     1      10.153  -5.353  -7.784  0.00  0.00    +0.016 A 
ATOM     15  C   UNL     1       9.159  -4.833  -6.981  0.00  0.00    +0.011 A 
ATOM     16 BR   UNL     1      12.620  -6.667  -8.320  0.00  0.00    -0.050 Br
ENDBRANCH   6  10
ENDBRANCH   2   4
ENDBRANCH   1   2
BRANCH   1  17
ATOM     17  C   UNL     1       4.952  -2.612  -0.057  0.00  0.00    +0.308 C 
BRANCH  17  26
ATOM     18  C   UNL     1      -0.016   1.360   0.009  0.00  0.00    +0.001 A 
ATOM     19  C   UNL     1       1.168   2.091   0.002  0.00  0.00    +0.002 A 
ATOM     20  C   UNL     1       2.380   1.466  -0.013  0.00  0.00    +0.028 A 
ATOM     21  C   UNL     1       2.436   0.065  -0.021  0.00  0.00    +0.076 A 
ATOM     22  C   UNL     1       1.229  -0.676  -0.013  0.00  0.00    +0.040 A 
ATOM     23  C   UNL     1       0.002  -0.004   0.002  0.00  0.00    +0.013 A 
ATOM     24  C   UNL     1       1.313  -2.090  -0.021  0.00  0.00    +0.128 A 
ATOM     25  N   UNL     1       2.518  -2.646  -0.035  0.00  0.00    -0.214 NA
ATOM     26  C   UNL     1       3.618  -1.911  -0.042  0.00  0.00    +0.169 A 
ATOM     27  N   UNL     1       3.600  -0.599  -0.035  0.00  0.00    -0.228 NA
BRANCH  24  28
ATOM     28  N   UNL     1       0.175  -2.867  -0.014  0.00  0.00    -0.343 N 
ATOM     29  H   UNL     1      -0.699  -2.447  -0.003  0.00  0.00    +0.144 HD
ATOM     30  H   UNL     1       0.248  -3.834  -0.019  0.00  0.00    +0.144 HD
ENDBRANCH  24  28
ENDBRANCH  17  26
ENDBRANCH   1  17
TORSDOF 6
