REMARK  Name = ZINC13206344
REMARK  9 active torsions:
REMARK  status: ('A' for Active; 'I' for Inactive)
REMARK    1  A    between atoms: C_6  and  C_7
REMARK    2  A    between atoms: C_10  and  S_16
REMARK    3  A    between atoms: N_11  and  C_12
REMARK    4  A    between atoms: C_12  and  C_13
REMARK    5  A    between atoms: C_13  and  C_14
REMARK    6  A    between atoms: S_16  and  C_17
REMARK    7  A    between atoms: C_17  and  C_18
REMARK    8  A    between atoms: N_20  and  C_21
REMARK    9  A    between atoms: C_24  and  N_27
REMARK                            x       y       z     vdW  Elec       q    Type
REMARK                         _______ _______ _______ _____ _____    ______ ____
ROOT
ATOM      1  C   UNL     1       0.925   1.878   3.511  0.00  0.00    +0.165 A 
ATOM      2  N   UNL     1       1.390   0.944   4.308  0.00  0.00    -0.128 NA
ATOM      3  N   UNL     1       0.566  -0.041   4.358  0.00  0.00    -0.122 NA
ATOM      4  C   UNL     1      -0.479   0.207   3.600  0.00  0.00    +0.192 A 
ATOM      5  N   UNL     1      -0.284   1.433   3.030  0.00  0.00    -0.302 N 
ENDROOT
BRANCH   1  11
ATOM      6  C   UNL     1       1.173   3.898   2.075  0.00  0.00    +0.014 A 
ATOM      7  C   UNL     1       1.783   5.100   1.784  0.00  0.00    +0.039 A 
ATOM      8  C   UNL     1       2.803   5.576   2.592  0.00  0.00    +0.123 A 
ATOM      9  C   UNL     1       3.213   4.850   3.699  0.00  0.00    +0.039 A 
ATOM     10  C   UNL     1       2.607   3.649   4.002  0.00  0.00    +0.014 A 
ATOM     11  C   UNL     1       1.579   3.165   3.191  0.00  0.00    +0.019 A 
ATOM     12  F   UNL     1       3.401   6.752   2.299  0.00  0.00    -0.205 F 
ENDBRANCH   1  11
BRANCH   5  13
ATOM     13  C   UNL     1      -1.180   2.131   2.104  0.00  0.00    +0.137 C 
BRANCH  13  14
ATOM     14  C   UNL     1      -0.875   1.692   0.671  0.00  0.00    +0.147 C 
BRANCH  14  15
ATOM     15  C   UNL     1      -1.796   2.411  -0.281  0.00  0.00    +0.358 C 
ATOM     16  O   UNL     1      -2.612   3.194   0.143  0.00  0.00    -0.246 OA
ATOM     17  O   UNL     1      -1.709   2.181  -1.601  0.00  0.00    -0.246 OA
ENDBRANCH  14  15
ENDBRANCH  13  14
ENDBRANCH   5  13
BRANCH   4  18
ATOM     18  S   UNL     1      -1.870  -0.847   3.361  0.00  0.00    -0.077 S 
BRANCH  18  19
ATOM     19  C   UNL     1      -1.398  -2.237   4.420  0.00  0.00    +0.173 C 
BRANCH  19  20
ATOM     20  C   UNL     1      -2.471  -3.293   4.372  0.00  0.00    +0.227 C 
ATOM     21  O   UNL     1      -3.458  -3.124   3.688  0.00  0.00    -0.275 OA
ATOM     22  N   UNL     1      -2.334  -4.427   5.088  0.00  0.00    -0.285 N 
ATOM     23  H   UNL     1      -1.581  -4.531   5.691  0.00  0.00    +0.155 HD
BRANCH  22  24
ATOM     24  C   UNL     1      -3.277  -5.453   4.962  0.00  0.00    +0.034 A 
ATOM     25  C   UNL     1      -3.585  -6.253   6.054  0.00  0.00    +0.025 A 
ATOM     26  C   UNL     1      -4.521  -7.261   5.928  0.00  0.00    +0.034 A 
ATOM     27  C   UNL     1      -5.142  -7.481   4.712  0.00  0.00    +0.126 A 
ATOM     28  C   UNL     1      -4.832  -6.690   3.621  0.00  0.00    +0.034 A 
ATOM     29  C   UNL     1      -3.902  -5.677   3.742  0.00  0.00    +0.025 A 
BRANCH  27  30
ATOM     30  N   UNL     1      -6.139  -8.567   4.579  0.00  0.00    +0.056 N 
ATOM     31  O   UNL     1      -6.687  -8.762   3.508  0.00  0.00    -0.126 OA
ATOM     32  O   UNL     1      -6.413  -9.264   5.539  0.00  0.00    -0.126 OA
ENDBRANCH  27  30
ENDBRANCH  22  24
ENDBRANCH  19  20
ENDBRANCH  18  19
ENDBRANCH   4  18
TORSDOF 9
