REMARK  Name = ZINC09580246
REMARK  6 active torsions:
REMARK  status: ('A' for Active; 'I' for Inactive)
REMARK    1  A    between atoms: C_1  and  C_2
REMARK    2  A    between atoms: C_5  and  N_9
REMARK    3  A    between atoms: C_6  and  C_8
REMARK    4  A    between atoms: N_9  and  C_10
REMARK    5  A    between atoms: N_20  and  C_23
REMARK    6  A    between atoms: C_23  and  C_24
REMARK                            x       y       z     vdW  Elec       q    Type
REMARK                         _______ _______ _______ _____ _____    ______ ____
ROOT
ATOM      1  C   UNL     1      -1.960   3.144   5.813  0.00  0.00    +0.085 C 
ATOM      2  C   UNL     1      -2.633   3.673   6.892  0.00  0.00    +0.059 C 
ATOM      3  C   UNL     1      -4.094   3.892   6.846  0.00  0.00    +0.000 A 
ATOM      4  C   UNL     1      -4.847   3.567   5.723  0.00  0.00    +0.009 A 
ATOM      5  C   UNL     1      -6.209   3.786   5.731  0.00  0.00    +0.001 A 
ATOM      6  C   UNL     1      -6.831   4.323   6.849  0.00  0.00    +0.001 A 
ATOM      7  C   UNL     1      -6.101   4.647   7.972  0.00  0.00    +0.013 A 
ATOM      8  C   UNL     1      -4.723   4.433   7.986  0.00  0.00    +0.045 A 
ATOM      9  C   UNL     1      -3.909   4.765   9.162  0.00  0.00    +0.254 C 
ATOM     10  O   UNL     1      -4.445   5.236  10.147  0.00  0.00    -0.270 OA
ATOM     11  N   UNL     1      -2.582   4.557   9.169  0.00  0.00    -0.230 N 
ATOM     12  C   UNL     1      -1.919   4.042   8.121  0.00  0.00    +0.255 C 
ATOM     13  O   UNL     1      -0.715   3.878   8.190  0.00  0.00    -0.269 OA
ENDROOT
BRANCH   1  14
ATOM     14  N   UNL     1      -2.607   2.321   4.946  0.00  0.00    -0.320 N 
ATOM     15  H   UNL     1      -3.631   1.984   5.166  0.00  0.00    +0.152 HD
BRANCH  14  20
ATOM     16  C   UNL     1      -0.026   0.618   0.191  0.00  0.00    +0.044 C 
ATOM     17  C   UNL     1      -0.712   1.070   1.454  0.00  0.00    -0.050 A 
ATOM     18  C   UNL     1      -0.053   1.908   2.335  0.00  0.00    +0.005 A 
ATOM     19  C   UNL     1      -0.678   2.325   3.494  0.00  0.00    +0.024 A 
ATOM     20  C   UNL     1      -1.971   1.901   3.774  0.00  0.00    +0.034 A 
ATOM     21  C   UNL     1      -2.631   1.060   2.887  0.00  0.00    -0.029 A 
ATOM     22  C   UNL     1      -2.001   0.651   1.728  0.00  0.00    +0.008 A 
ATOM     23  C   UNL     1      -4.033   0.597   3.187  0.00  0.00    +0.045 C 
ENDBRANCH  14  20
ENDBRANCH   1  14
BRANCH  11  24
ATOM     24  C   UNL     1      -1.824   4.908  10.372  0.00  0.00    +0.152 C 
BRANCH  24  25
ATOM     25  C   UNL     1      -1.357   6.338  10.272  0.00  0.00    -0.026 A 
ATOM     26  C   UNL     1      -2.153   7.359  10.756  0.00  0.00    +0.009 A 
ATOM     27  C   UNL     1      -1.729   8.672  10.666  0.00  0.00    +0.050 A 
ATOM     28  C   UNL     1      -0.504   8.967  10.091  0.00  0.00    +0.166 A 
ATOM     29  C   UNL     1       0.299   7.938   9.604  0.00  0.00    +0.167 A 
ATOM     30  C   UNL     1      -0.130   6.624   9.702  0.00  0.00    +0.054 A 
ATOM     31  O   UNL     1       1.442   8.481   9.093  0.00  0.00    -0.453 OA
ATOM     32  C   UNL     1       1.151   9.878   8.901  0.00  0.00    +0.466 C 
ATOM     33  O   UNL     1       0.137  10.155   9.885  0.00  0.00    -0.453 OA
ENDBRANCH  24  25
ENDBRANCH  11  24
TORSDOF 4
