REMARK  Name = ZINC66250098
REMARK  6 active torsions:
REMARK  status: ('A' for Active; 'I' for Inactive)
REMARK    1  A    between atoms: C_3  and  S_11
REMARK    2  A    between atoms: C_6  and  N_7
REMARK    3  A    between atoms: S_11  and  N_14
REMARK    4  A    between atoms: N_14  and  C_15
REMARK    5  A    between atoms: N_19  and  C_20
REMARK    6  A    between atoms: C_20  and  C_21
REMARK                            x       y       z     vdW  Elec       q    Type
REMARK                         _______ _______ _______ _____ _____    ______ ____
ROOT
ATOM      1  S   UNL     1       3.917   2.323  -0.034  0.00  0.00    +0.075 S 
ATOM      2  O   UNL     1       3.592   3.699   0.108  0.00  0.00    -0.150 OA
ATOM      3  O   UNL     1       2.941   1.338  -0.346  0.00  0.00    -0.150 OA
ENDROOT
BRANCH   1   6
ATOM      4  C   UNL     1       5.978   1.245  -3.311  0.00  0.00    +0.035 A 
ATOM      5  C   UNL     1       5.010   1.323  -2.326  0.00  0.00    +0.032 A 
ATOM      6  C   UNL     1       5.151   2.223  -1.288  0.00  0.00    +0.127 A 
ATOM      7  C   UNL     1       6.262   3.047  -1.232  0.00  0.00    +0.070 A 
ATOM      8  C   UNL     1       7.230   2.969  -2.217  0.00  0.00    +0.054 A 
ATOM      9  C   UNL     1       7.088   2.068  -3.256  0.00  0.00    +0.128 A 
ATOM     10 CL   UNL     1       6.439   4.179   0.072  0.00  0.00    -0.081 Cl
BRANCH   9  11
ATOM     11  N   UNL     1       8.124   1.984  -4.309  0.00  0.00    +0.056 N 
ATOM     12  O   UNL     1       8.000   1.195  -5.218  0.00  0.00    -0.126 OA
ATOM     13  O   UNL     1       9.094   2.703  -4.261  0.00  0.00    -0.126 OA
ENDBRANCH   9  11
ENDBRANCH   1   6
BRANCH   1  14
ATOM     14  N   UNL     1       4.624   1.854   1.388  0.00  0.00    -0.200 N 
ATOM     15  H   UNL     1       4.724   2.490   2.113  0.00  0.00    +0.175 HD
BRANCH  14  16
ATOM     16  C   UNL     1       5.076   0.546   1.542  0.00  0.00    +0.136 A 
ATOM     17  C   UNL     1       5.073  -0.424   0.588  0.00  0.00    +0.066 A 
ATOM     18  C   UNL     1       5.610  -1.584   1.154  0.00  0.00    +0.136 A 
ATOM     19  N   UNL     1       5.925  -1.326   2.398  0.00  0.00    -0.178 NA
ATOM     20  N   UNL     1       5.604   0.011   2.667  0.00  0.00    -0.245 N 
BRANCH  20  21
ATOM     21  C   UNL     1       5.801   0.705   3.942  0.00  0.00    +0.181 C 
BRANCH  21  22
ATOM     22  C   UNL     1       4.571   0.543   4.797  0.00  0.00    -0.019 A 
ATOM     23  C   UNL     1       3.538   1.459   4.721  0.00  0.00    +0.013 A 
ATOM     24  C   UNL     1       2.446   1.284   5.505  0.00  0.00    +0.045 A 
ATOM     25  S   UNL     1       2.860  -0.212   6.387  0.00  0.00    -0.105 S 
ATOM     26  C   UNL     1       4.458  -0.506   5.649  0.00  0.00    +0.050 A 
ENDBRANCH  21  22
ENDBRANCH  20  21
ENDBRANCH  14  16
ENDBRANCH   1  14
TORSDOF 6
