REMARK  Name = ZINC13389349
REMARK  5 active torsions:
REMARK  status: ('A' for Active; 'I' for Inactive)
REMARK    1  A    between atoms: C_1  and  C_2
REMARK    2  A    between atoms: C_2  and  O_3
REMARK    3  A    between atoms: O_3  and  C_4
REMARK    4  A    between atoms: C_11  and  C_20
REMARK    5  A    between atoms: C_23  and  N_26
REMARK                            x       y       z     vdW  Elec       q    Type
REMARK                         _______ _______ _______ _____ _____    ______ ____
ROOT
ATOM      1  C   UNL     1       2.219   2.581   0.272  0.00  0.00    +0.142 A 
ATOM      2  C   UNL     1       3.551   2.236   0.394  0.00  0.00    +0.047 A 
ATOM      3  C   UNL     1       4.521   3.220   0.458  0.00  0.00    +0.004 A 
ATOM      4  C   UNL     1       4.151   4.550   0.392  0.00  0.00    +0.006 A 
ATOM      5  C   UNL     1       2.823   4.904   0.267  0.00  0.00    -0.016 A 
ATOM      6  C   UNL     1       1.831   3.924   0.208  0.00  0.00    +0.074 A 
ATOM      7  N   UNL     1       0.464   4.198   0.131  0.00  0.00    -0.334 N 
ATOM      8  C   UNL     1       0.081   5.611  -0.020  0.00  0.00    +0.105 C 
ATOM      9  C   UNL     1       1.007   6.420   0.865  0.00  0.00    +0.029 C 
ATOM     10  C   UNL     1       2.402   6.319   0.172  0.00  0.00    +0.049 C 
ATOM     11  C   UNL     1       3.167   7.425   0.798  0.00  0.00    -0.023 C 
ATOM     12  C   UNL     1       2.314   8.376   1.162  0.00  0.00    -0.030 C 
ATOM     13  C   UNL     1       0.882   7.947   0.832  0.00  0.00    +0.033 C 
ATOM     14  H   UNL     1       0.023   3.627  -0.575  0.00  0.00    +0.147 HD
ENDROOT
BRANCH   8  15
ATOM     15  C   UNL     1       0.242   6.037  -1.456  0.00  0.00    -0.027 A 
ATOM     16  C   UNL     1      -0.488   7.104  -1.947  0.00  0.00    +0.008 A 
ATOM     17  C   UNL     1      -0.337   7.497  -3.263  0.00  0.00    +0.033 A 
ATOM     18  C   UNL     1       0.536   6.818  -4.092  0.00  0.00    +0.126 A 
ATOM     19  C   UNL     1       1.262   5.748  -3.603  0.00  0.00    +0.033 A 
ATOM     20  C   UNL     1       1.114   5.357  -2.285  0.00  0.00    +0.008 A 
BRANCH  18  21
ATOM     21  N   UNL     1       0.694   7.236  -5.503  0.00  0.00    +0.056 N 
ATOM     22  O   UNL     1       1.464   6.638  -6.233  0.00  0.00    -0.126 OA
ATOM     23  O   UNL     1       0.054   8.179  -5.934  0.00  0.00    -0.126 OA
ENDBRANCH  18  21
ENDBRANCH   8  15
BRANCH   1  24
ATOM     24  O   UNL     1       1.275   1.604   0.208  0.00  0.00    -0.490 OA
BRANCH  24  26
ATOM     25  C   UNL     1       0.538  -0.698   0.185  0.00  0.00    +0.048 C 
ATOM     26  C   UNL     1       1.734   0.252   0.272  0.00  0.00    +0.226 C 
ENDBRANCH  24  26
ENDBRANCH   1  24
TORSDOF 4
