REMARK  Name = ZINC04979047
REMARK  7 active torsions:
REMARK  status: ('A' for Active; 'I' for Inactive)
REMARK    1  A    between atoms: C_4  and  N_27
REMARK    2  A    between atoms: C_5  and  C_7
REMARK    3  A    between atoms: C_8  and  C_9
REMARK    4  A    between atoms: N_10  and  C_11
REMARK    5  A    between atoms: C_13  and  S_18
REMARK    6  A    between atoms: C_16  and  O_17
REMARK    7  A    between atoms: S_18  and  N_21
REMARK                            x       y       z     vdW  Elec       q    Type
REMARK                         _______ _______ _______ _____ _____    ______ ____
ROOT
ATOM      1  C   UNL     1       0.215   1.855   0.557  0.00  0.00    +0.107 A 
ATOM      2  C   UNL     1       1.396   2.553   0.293  0.00  0.00    +0.060 A 
ATOM      3  C   UNL     1       2.605   1.891   0.315  0.00  0.00    +0.108 A 
ATOM      4  C   UNL     1       2.654   0.537   0.600  0.00  0.00    +0.032 A 
ATOM      5  C   UNL     1       1.493  -0.165   0.864  0.00  0.00    +0.049 A 
ATOM      6  C   UNL     1       0.270   0.484   0.845  0.00  0.00    +0.142 A 
ENDROOT
BRANCH   3   7
ATOM      7  S   UNL     1       4.094   2.772  -0.021  0.00  0.00    +0.061 S 
ATOM      8  O   UNL     1       3.835   4.136   0.279  0.00  0.00    -0.153 OA
ATOM      9  O   UNL     1       5.145   2.042   0.597  0.00  0.00    -0.153 OA
BRANCH   7  10
ATOM     10  N   UNL     1       4.356   2.687  -1.654  0.00  0.00    -0.177 NA
ATOM     11  C   UNL     1       5.144   1.589  -2.230  0.00  0.00    +0.109 C 
ATOM     12  C   UNL     1       4.313   0.918  -3.334  0.00  0.00    +0.017 C 
ATOM     13  C   UNL     1       3.875   1.976  -4.349  0.00  0.00    +0.003 C 
ATOM     14  C   UNL     1       2.997   3.019  -3.654  0.00  0.00    +0.017 C 
ATOM     15  C   UNL     1       3.809   3.711  -2.554  0.00  0.00    +0.109 C 
ENDBRANCH   7  10
ENDBRANCH   3   7
BRANCH   1  17
ATOM     16  C   UNL     1      -1.223   3.405  -0.387  0.00  0.00    +0.111 C 
ATOM     17  N   UNL     1      -0.987   2.504   0.531  0.00  0.00    -0.252 NA
BRANCH  16  19
ATOM     18  C   UNL     1      -2.712   5.008  -1.363  0.00  0.00    +0.011 C 
ATOM     19  C   UNL     1      -2.467   4.076  -0.415  0.00  0.00    +0.020 C 
BRANCH  18  24
ATOM     20  C   UNL     1      -6.312   5.845  -0.728  0.00  0.00    +0.001 A 
ATOM     21  C   UNL     1      -6.444   7.021  -1.446  0.00  0.00    +0.002 A 
ATOM     22  C   UNL     1      -5.364   7.544  -2.137  0.00  0.00    +0.033 A 
ATOM     23  C   UNL     1      -4.146   6.898  -2.110  0.00  0.00    +0.133 A 
ATOM     24  C   UNL     1      -4.006   5.706  -1.392  0.00  0.00    +0.005 A 
ATOM     25  C   UNL     1      -5.102   5.184  -0.696  0.00  0.00    +0.010 A 
BRANCH  23  26
ATOM     26  N   UNL     1      -2.991   7.462  -2.845  0.00  0.00    +0.057 N 
ATOM     27  O   UNL     1      -3.076   8.562  -3.361  0.00  0.00    -0.126 OA
ATOM     28  O   UNL     1      -1.956   6.825  -2.933  0.00  0.00    -0.126 OA
ENDBRANCH  23  26
ENDBRANCH  18  24
ENDBRANCH  16  19
ENDBRANCH   1  17
BRANCH   6  29
ATOM     29  O   UNL     1      -0.872  -0.205   1.104  0.00  0.00    -0.505 OA
ATOM     30  H   UNL     1      -1.287  -0.588   0.319  0.00  0.00    +0.292 HD
ENDBRANCH   6  29
TORSDOF 7
