REMARK  Name = ZINC13037714
REMARK  10 active torsions:
REMARK  status: ('A' for Active; 'I' for Inactive)
REMARK    1  A    between atoms: C_1  and  C_2
REMARK    2  A    between atoms: C_2  and  C_4
REMARK    3  A    between atoms: C_2  and  N_14
REMARK    4  A    between atoms: C_7  and  S_10
REMARK    5  A    between atoms: S_10  and  C_13
REMARK    6  A    between atoms: N_14  and  C_15
REMARK    7  A    between atoms: C_18  and  C_24
REMARK    8  A    between atoms: C_20  and  N_21
REMARK    9  A    between atoms: C_24  and  C_26
REMARK   10  A    between atoms: C_31  and  C_32
REMARK                            x       y       z     vdW  Elec       q    Type
REMARK                         _______ _______ _______ _____ _____    ______ ____
ROOT
ATOM      1  C   UNL     1      -2.156   3.781   7.346  0.00  0.00    +0.058 A 
ATOM      2  C   UNL     1      -3.304   3.236   7.916  0.00  0.00    +0.026 A 
ATOM      3  C   UNL     1      -3.412   3.134   9.273  0.00  0.00    +0.013 A 
ATOM      4  C   UNL     1      -2.372   3.587  10.092  0.00  0.00    +0.025 A 
ATOM      5  C   UNL     1      -1.222   4.138   9.517  0.00  0.00    +0.046 A 
ATOM      6  C   UNL     1      -1.119   4.233   8.158  0.00  0.00    +0.148 A 
ENDROOT
BRANCH   6   7
ATOM      7  N   UNL     1       0.097   4.816   7.548  0.00  0.00    +0.058 N 
ATOM      8  O   UNL     1       1.050   5.108   8.248  0.00  0.00    -0.126 OA
ATOM      9  O   UNL     1       0.145   5.004   6.345  0.00  0.00    -0.126 OA
ENDBRANCH   6   7
BRANCH   1  10
ATOM     10  N   UNL     1      -2.048   3.880   5.964  0.00  0.00    -0.336 N 
ATOM     11  H   UNL     1      -1.289   4.336   5.568  0.00  0.00    +0.147 HD
BRANCH  10  13
ATOM     12  C   UNL     1      -4.230   4.289   4.939  0.00  0.00    +0.033 C 
ATOM     13  C   UNL     1      -3.080   3.294   5.105  0.00  0.00    +0.098 C 
BRANCH  13  14
ATOM     14  C   UNL     1      -2.489   2.978   3.755  0.00  0.00    -0.027 A 
ATOM     15  C   UNL     1      -2.839   1.810   3.104  0.00  0.00    +0.007 A 
ATOM     16  C   UNL     1      -2.298   1.520   1.865  0.00  0.00    +0.027 A 
ATOM     17  C   UNL     1      -1.408   2.400   1.277  0.00  0.00    +0.088 A 
ATOM     18  C   UNL     1      -1.055   3.566   1.930  0.00  0.00    +0.027 A 
ATOM     19  C   UNL     1      -1.599   3.857   3.167  0.00  0.00    +0.007 A 
BRANCH  17  20
ATOM     20  S   UNL     1      -0.719   2.031  -0.303  0.00  0.00    -0.006 S 
ATOM     21  O   UNL     1      -0.757   0.614  -0.393  0.00  0.00    -0.170 OA
ATOM     22  O   UNL     1       0.520   2.726  -0.328  0.00  0.00    -0.170 OA
ATOM     23  C   UNL     1      -1.871   2.765  -1.497  0.00  0.00    +0.200 C 
ENDBRANCH  17  20
ENDBRANCH  13  14
ENDBRANCH  10  13
ENDBRANCH   1  10
BRANCH   4  24
ATOM     24  C   UNL     1      -2.487   3.483  11.558  0.00  0.00    +0.194 C 
ATOM     25  O   UNL     1      -1.630   3.969  12.271  0.00  0.00    -0.287 OA
BRANCH  24  26
ATOM     26  C   UNL     1      -3.645   2.789  12.161  0.00  0.00    +0.036 A 
ATOM     27  C   UNL     1      -4.683   3.522  12.730  0.00  0.00    +0.012 A 
ATOM     28  C   UNL     1      -5.766   2.869  13.288  0.00  0.00    +0.001 A 
ATOM     29  C   UNL     1      -5.821   1.486  13.297  0.00  0.00    +0.001 A 
ATOM     30  C   UNL     1      -4.798   0.741  12.742  0.00  0.00    +0.016 A 
ATOM     31  C   UNL     1      -3.701   1.382  12.170  0.00  0.00    +0.074 A 
BRANCH  31  32
ATOM     32  C   UNL     1      -2.604   0.590  11.575  0.00  0.00    +0.387 C 
ATOM     33  O   UNL     1      -1.603   1.147  11.171  0.00  0.00    -0.241 OA
ATOM     34  O   UNL     1      -2.715  -0.749  11.480  0.00  0.00    -0.241 OA
ENDBRANCH  31  32
ENDBRANCH  24  26
ENDBRANCH   4  24
TORSDOF 8
