REMARK  Name = ZINC58513846
REMARK  5 active torsions:
REMARK  status: ('A' for Active; 'I' for Inactive)
REMARK    1  A    between atoms: C_1  and  C_2
REMARK    2  A    between atoms: C_2  and  C_3
REMARK    3  A    between atoms: C_2  and  C_4
REMARK    4  A    between atoms: C_2  and  C_11
REMARK    5  A    between atoms: C_11  and  N_13
REMARK                            x       y       z     vdW  Elec       q    Type
REMARK                         _______ _______ _______ _____ _____    ______ ____
ROOT
ATOM      1  C   UNL     1       0.707  -0.490  -1.238  0.00  0.00    +0.249 C 
ATOM      2  O   UNL     1       0.118  -1.193  -2.037  0.00  0.00    -0.273 OA
ENDROOT
BRANCH   1   3
ATOM      3  N   UNL     1       1.970  -0.151  -1.458  0.00  0.00    -0.145 NA
ATOM      4  C   UNL     1       2.596  -0.583  -2.558  0.00  0.00    +0.222 A 
ATOM      5  N   UNL     1       2.064  -1.357  -3.522  0.00  0.00    -0.246 N 
ATOM      6  N   UNL     1       3.055  -1.574  -4.489  0.00  0.00    -0.153 NA
ATOM      7  C   UNL     1       4.144  -0.945  -4.107  0.00  0.00    +0.160 A 
ATOM      8  N   UNL     1       3.885  -0.312  -2.908  0.00  0.00    -0.271 N 
ATOM      9  C   UNL     1       4.866   0.425  -2.293  0.00  0.00    +0.096 A 
ATOM     10  C   UNL     1       6.086   0.544  -2.850  0.00  0.00    +0.018 A 
ATOM     11  C   UNL     1       6.378  -0.087  -4.075  0.00  0.00    +0.005 A 
ATOM     12  C   UNL     1       5.428  -0.829  -4.696  0.00  0.00    +0.048 A 
ATOM     13  H   UNL     1       1.158  -1.703  -3.544  0.00  0.00    +0.192 HD
ENDBRANCH   1   3
BRANCH   1  15
ATOM     14  C   UNL     1      -0.019   1.526   0.010  0.00  0.00    +0.025 C 
ATOM     15  C   UNL     1       0.002  -0.004   0.002  0.00  0.00    +0.068 C 
ATOM     16  C   UNL     1       0.742  -0.511   1.242  0.00  0.00    +0.025 C 
BRANCH  15  17
ATOM     17  C   UNL     1      -1.412  -0.526   0.013  0.00  0.00    -0.033 A 
ATOM     18  C   UNL     1      -2.474   0.358   0.022  0.00  0.00    +0.006 A 
ATOM     19  C   UNL     1      -3.771  -0.119   0.032  0.00  0.00    +0.020 A 
ATOM     20  C   UNL     1      -4.006  -1.483   0.032  0.00  0.00    +0.041 A 
ATOM     21  C   UNL     1      -2.942  -2.367   0.023  0.00  0.00    +0.020 A 
ATOM     22  C   UNL     1      -1.646  -1.888   0.008  0.00  0.00    +0.006 A 
ATOM     23 CL   UNL     1      -5.635  -2.084   0.045  0.00  0.00    -0.084 Cl
ENDBRANCH  15  17
ENDBRANCH   1  15
TORSDOF 3
