REMARK  Name = ZINC13239378
REMARK  8 active torsions:
REMARK  status: ('A' for Active; 'I' for Inactive)
REMARK    1  A    between atoms: C_1  and  C_2
REMARK    2  A    between atoms: C_2  and  C_4
REMARK    3  A    between atoms: C_2  and  S_16
REMARK    4  A    between atoms: N_6  and  C_7
REMARK    5  A    between atoms: C_12  and  N_13
REMARK    6  A    between atoms: S_16  and  C_17
REMARK    7  A    between atoms: C_21  and  C_34
REMARK    8  A    between atoms: N_27  and  C_28
REMARK                            x       y       z     vdW  Elec       q    Type
REMARK                         _______ _______ _______ _____ _____    ______ ____
ROOT
ATOM      1  C   UNL     1       1.053   2.918   0.726  0.00  0.00    +0.177 A 
ATOM      2  N   UNL     1       2.002   2.050   0.478  0.00  0.00    -0.223 NA
ATOM      3  C   UNL     1       3.217   2.140   1.068  0.00  0.00    +0.080 A 
ATOM      4  C   UNL     1       4.228   1.212   0.801  0.00  0.00    +0.043 A 
ATOM      5  C   UNL     1       5.459   1.344   1.430  0.00  0.00    +0.065 A 
ATOM      6  C   UNL     1       5.691   2.396   2.326  0.00  0.00    +0.016 A 
ATOM      7  C   UNL     1       4.711   3.308   2.594  0.00  0.00    +0.016 A 
ATOM      8  C   UNL     1       3.467   3.196   1.974  0.00  0.00    +0.065 A 
ATOM      9  C   UNL     1       2.384   4.156   2.235  0.00  0.00    +0.267 A 
ATOM     10  O   UNL     1       2.538   5.087   3.004  0.00  0.00    -0.267 OA
ATOM     11  N   UNL     1       1.212   3.971   1.584  0.00  0.00    -0.255 N 
ENDROOT
BRANCH  11  12
ATOM     12  C   UNL     1       0.152   4.862   1.795  0.00  0.00    +0.052 A 
ATOM     13  C   UNL     1      -0.818   4.576   2.746  0.00  0.00    +0.026 A 
ATOM     14  C   UNL     1      -1.859   5.460   2.957  0.00  0.00    +0.002 A 
ATOM     15  C   UNL     1      -1.941   6.622   2.212  0.00  0.00    +0.000 A 
ATOM     16  C   UNL     1      -0.980   6.907   1.260  0.00  0.00    +0.002 A 
ATOM     17  C   UNL     1       0.067   6.031   1.050  0.00  0.00    +0.026 A 
ENDBRANCH  11  12
BRANCH   5  18
ATOM     18  C   UNL     1       6.534   0.365   1.153  0.00  0.00    +0.387 C 
ATOM     19  O   UNL     1       6.338  -0.548   0.378  0.00  0.00    -0.241 OA
ATOM     20  O   UNL     1       7.729   0.488   1.761  0.00  0.00    -0.241 OA
ENDBRANCH   5  18
BRANCH   1  21
ATOM     21  S   UNL     1      -0.498   2.724  -0.087  0.00  0.00    -0.075 S 
BRANCH  21  23
ATOM     22  C   UNL     1       0.928   1.547  -2.098  0.00  0.00    +0.029 C 
ATOM     23  C   UNL     1      -0.157   1.239  -1.064  0.00  0.00    +0.137 C 
BRANCH  23  24
ATOM     24  C   UNL     1      -1.414   0.802  -1.770  0.00  0.00    +0.230 C 
ATOM     25  O   UNL     1      -2.284   1.611  -2.015  0.00  0.00    -0.274 OA
ATOM     26  N   UNL     1      -1.573  -0.487  -2.129  0.00  0.00    -0.283 N 
ATOM     27  H   UNL     1      -0.850  -1.120  -1.996  0.00  0.00    +0.155 HD
BRANCH  26  28
ATOM     28  C   UNL     1      -2.780  -0.913  -2.694  0.00  0.00    +0.064 A 
ATOM     29  C   UNL     1      -3.414  -0.131  -3.651  0.00  0.00    +0.025 A 
ATOM     30  C   UNL     1      -4.603  -0.557  -4.211  0.00  0.00    +0.002 A 
ATOM     31  C   UNL     1      -5.167  -1.755  -3.811  0.00  0.00    +0.002 A 
ATOM     32  C   UNL     1      -4.541  -2.532  -2.854  0.00  0.00    +0.034 A 
ATOM     33  C   UNL     1      -3.349  -2.114  -2.294  0.00  0.00    +0.147 A 
BRANCH  33  34
ATOM     34  N   UNL     1      -2.680  -2.947  -1.270  0.00  0.00    +0.058 N 
ATOM     35  O   UNL     1      -3.224  -3.954  -0.853  0.00  0.00    -0.126 OA
ATOM     36  O   UNL     1      -1.586  -2.625  -0.843  0.00  0.00    -0.126 OA
ENDBRANCH  33  34
ENDBRANCH  26  28
ENDBRANCH  23  24
ENDBRANCH  21  23
ENDBRANCH   1  21
TORSDOF 7
