REMARK  Name = ZINC06601088
REMARK  8 active torsions:
REMARK  status: ('A' for Active; 'I' for Inactive)
REMARK    1  A    between atoms: C_1  and  C_2
REMARK    2  A    between atoms: C_2  and  O_3
REMARK    3  A    between atoms: O_3  and  C_4
REMARK    4  A    between atoms: C_7  and  N_10
REMARK    5  A    between atoms: C_14  and  C_15
REMARK    6  A    between atoms: C_18  and  C_20
REMARK    7  A    between atoms: C_23  and  S_26
REMARK    8  A    between atoms: S_26  and  N_29
REMARK                            x       y       z     vdW  Elec       q    Type
REMARK                         _______ _______ _______ _____ _____    ______ ____
ROOT
ATOM      1  N   UNL     1       8.428   1.492   0.248  0.00  0.00    -0.190 N 
ATOM      2  C   UNL     1       7.968   2.750   0.081  0.00  0.00    +0.264 C 
ATOM      3  O   UNL     1       8.736   3.692   0.012  0.00  0.00    -0.269 OA
ATOM      4  C   UNL     1       6.513   2.953  -0.009  0.00  0.00    +0.103 C 
ATOM      5  C   UNL     1       5.966   4.223  -0.176  0.00  0.00    +0.064 C 
ATOM      6  C   UNL     1       5.661   1.755   0.078  0.00  0.00    +0.257 C 
ATOM      7  O   UNL     1       4.449   1.844   0.007  0.00  0.00    -0.270 OA
ATOM      8  N   UNL     1       6.260   0.557   0.239  0.00  0.00    -0.235 N 
ATOM      9  C   UNL     1       7.593   0.446   0.319  0.00  0.00    +0.320 C 
ATOM     10  O   UNL     1       8.071  -0.662   0.464  0.00  0.00    -0.251 OA
ATOM     11  H   UNL     1       5.713  -0.242   0.299  0.00  0.00    +0.159 HD
ENDROOT
BRANCH   1  15
ATOM     12  C   UNL     1      12.539   0.846   0.528  0.00  0.00    +0.121 A 
ATOM     13  C   UNL     1      11.841   0.401  -0.586  0.00  0.00    +0.047 A 
ATOM     14  C   UNL     1      10.480   0.615  -0.679  0.00  0.00    +0.027 A 
ATOM     15  C   UNL     1       9.810   1.275   0.342  0.00  0.00    +0.046 A 
ATOM     16  C   UNL     1      10.510   1.724   1.454  0.00  0.00    +0.027 A 
ATOM     17  C   UNL     1      11.870   1.505   1.549  0.00  0.00    +0.047 A 
BRANCH  12  18
ATOM     18  O   UNL     1      13.879   0.634   0.619  0.00  0.00    -0.492 OA
BRANCH  18  20
ATOM     19  C   UNL     1      16.026   0.791   1.718  0.00  0.00    +0.048 C 
ATOM     20  C   UNL     1      14.533   1.118   1.794  0.00  0.00    +0.225 C 
ENDBRANCH  18  20
ENDBRANCH  12  18
ENDBRANCH   1  15
BRANCH   5  21
ATOM     21  C   UNL     1       4.580   4.408  -0.076  0.00  0.00    +0.129 A 
ATOM     22  C   UNL     1       3.815   5.273  -0.849  0.00  0.00    +0.050 A 
ATOM     23  C   UNL     1       2.498   5.139  -0.418  0.00  0.00    +0.050 A 
ATOM     24  C   UNL     1       2.497   4.203   0.596  0.00  0.00    +0.136 A 
ATOM     25  O   UNL     1       3.757   3.779   0.791  0.00  0.00    -0.455 OA
BRANCH  24  26
ATOM     26  C   UNL     1       1.311   3.747   1.346  0.00  0.00    +0.017 A 
ATOM     27  C   UNL     1       1.443   2.790   2.355  0.00  0.00    +0.013 A 
ATOM     28  C   UNL     1       0.330   2.369   3.052  0.00  0.00    +0.029 A 
ATOM     29  C   UNL     1      -0.917   2.889   2.750  0.00  0.00    +0.105 A 
ATOM     30  C   UNL     1      -1.055   3.842   1.756  0.00  0.00    +0.029 A 
ATOM     31  C   UNL     1       0.050   4.272   1.051  0.00  0.00    +0.013 A 
BRANCH  29  32
ATOM     32  S   UNL     1      -2.335   2.340   3.641  0.00  0.00    +0.056 S 
ATOM     33  O   UNL     1      -3.457   2.575   2.802  0.00  0.00    -0.153 OA
ATOM     34  O   UNL     1      -2.021   1.051   4.150  0.00  0.00    -0.153 OA
BRANCH  32  35
ATOM     35  N   UNL     1      -2.506   3.338   4.951  0.00  0.00    -0.204 NA
ATOM     36  H   UNL     1      -3.389   3.514   5.314  0.00  0.00    +0.144 HD
ATOM     37  H   UNL     1      -1.725   3.746   5.356  0.00  0.00    +0.144 HD
ENDBRANCH  32  35
ENDBRANCH  29  32
ENDBRANCH  24  26
ENDBRANCH   5  21
TORSDOF 7
