REMARK  Name = ZINC19228162
REMARK  9 active torsions:
REMARK  status: ('A' for Active; 'I' for Inactive)
REMARK    1  A    between atoms: C_1  and  N_2
REMARK    2  A    between atoms: N_2  and  C_3
REMARK    3  A    between atoms: N_2  and  C_4
REMARK    4  A    between atoms: C_7  and  C_10
REMARK    5  A    between atoms: N_11  and  N_12
REMARK    6  A    between atoms: C_13  and  S_15
REMARK    7  A    between atoms: S_15  and  C_16
REMARK    8  A    between atoms: N_21  and  C_24
REMARK    9  A    between atoms: C_27  and  C_30
REMARK                            x       y       z     vdW  Elec       q    Type
REMARK                         _______ _______ _______ _____ _____    ______ ____
ROOT
ATOM      1  N   UNL     1      -0.356  -3.719  -7.495  0.00  0.00    -0.217 N 
ATOM      2  C   UNL     1      -0.313  -2.810  -8.528  0.00  0.00    +0.146 C 
ATOM      3  N   UNL     1      -0.396  -1.533  -8.277  0.00  0.00    -0.380 N 
ATOM      4  H   UNL     1      -0.294  -4.669  -7.681  0.00  0.00    +0.176 HD
ATOM      5  H   UNL     1      -0.366  -0.892  -9.005  0.00  0.00    +0.158 HD
ATOM      6  H   UNL     1      -0.489  -1.223  -7.362  0.00  0.00    +0.158 HD
ENDROOT
BRANCH   1   8
ATOM      7  C   UNL     1      -0.531  -4.129  -5.200  0.00  0.00    +0.138 C 
ATOM      8  N   UNL     1      -0.490  -3.272  -6.174  0.00  0.00    -0.188 NA
BRANCH   7  12
ATOM      9  C   UNL     1      -0.936  -2.774  -1.196  0.00  0.00    +0.029 A 
ATOM     10  C   UNL     1      -0.848  -4.136  -1.462  0.00  0.00    +0.024 A 
ATOM     11  C   UNL     1      -0.717  -4.580  -2.759  0.00  0.00    +0.011 A 
ATOM     12  C   UNL     1      -0.672  -3.658  -3.809  0.00  0.00    -0.005 A 
ATOM     13  C   UNL     1      -0.761  -2.290  -3.539  0.00  0.00    +0.011 A 
ATOM     14  C   UNL     1      -0.897  -1.855  -2.239  0.00  0.00    +0.024 A 
BRANCH   9  16
ATOM     15  C   UNL     1      -1.167  -0.894   0.401  0.00  0.00    +0.129 C 
ATOM     16  N   UNL     1      -1.069  -2.329   0.120  0.00  0.00    -0.336 N 
ATOM     17  C   UNL     1      -1.109  -3.296   1.220  0.00  0.00    +0.129 C 
ENDBRANCH   9  16
ENDBRANCH   7  12
ENDBRANCH   1   8
BRANCH   2  18
ATOM     18  S   UNL     1      -0.144  -3.373 -10.189  0.00  0.00    -0.078 S 
BRANCH  18  19
ATOM     19  C   UNL     1      -0.135  -1.847 -11.170  0.00  0.00    +0.149 C 
ATOM     20  C   UNL     1       0.079  -2.163 -12.664  0.00  0.00    +0.120 C 
ATOM     21  C   UNL     1      -1.183  -1.648 -13.320  0.00  0.00    +0.228 C 
ATOM     22  O   UNL     1      -1.429  -1.698 -14.507  0.00  0.00    -0.275 OA
ATOM     23  N   UNL     1      -1.986  -1.127 -12.384  0.00  0.00    -0.209 N 
ATOM     24  C   UNL     1      -1.495  -1.183 -11.136  0.00  0.00    +0.240 C 
ATOM     25  O   UNL     1      -2.050  -0.772 -10.140  0.00  0.00    -0.274 OA
BRANCH  23  26
ATOM     26  C   UNL     1      -3.231  -0.568 -12.681  0.00  0.00    +0.044 A 
ATOM     27  C   UNL     1      -4.266  -1.381 -13.132  0.00  0.00    +0.025 A 
ATOM     28  C   UNL     1      -5.495  -0.835 -13.426  0.00  0.00    +0.017 A 
ATOM     29  C   UNL     1      -5.702   0.540 -13.270  0.00  0.00    +0.063 A 
ATOM     30  C   UNL     1      -4.659   1.354 -12.816  0.00  0.00    +0.017 A 
ATOM     31  C   UNL     1      -3.435   0.798 -12.519  0.00  0.00    +0.025 A 
BRANCH  29  32
ATOM     32  C   UNL     1      -7.015   1.129 -13.584  0.00  0.00    +0.387 C 
ATOM     33  O   UNL     1      -7.926   0.416 -13.981  0.00  0.00    -0.241 OA
ATOM     34  O   UNL     1      -7.194   2.331 -13.447  0.00  0.00    -0.241 OA
ENDBRANCH  29  32
ENDBRANCH  23  26
ENDBRANCH  18  19
ENDBRANCH   2  18
TORSDOF 7
