REMARK  Name = ZINC12774280
REMARK  10 active torsions:
REMARK  status: ('A' for Active; 'I' for Inactive)
REMARK    1  A    between atoms: C_1  and  C_2
REMARK    2  A    between atoms: C_2  and  C_3
REMARK    3  A    between atoms: C_2  and  C_4
REMARK    4  A    between atoms: C_4  and  C_6
REMARK    5  A    between atoms: C_4  and  N_13
REMARK    6  A    between atoms: C_14  and  C_16
REMARK    7  A    between atoms: C_16  and  N_61
REMARK    8  A    between atoms: C_19  and  C_22
REMARK    9  A    between atoms: N_24  and  C_25
REMARK   10  A    between atoms: C_30  and  O_31
REMARK                            x       y       z     vdW  Elec       q    Type
REMARK                         _______ _______ _______ _____ _____    ______ ____
ROOT
ATOM      1  C   UNL     1      -0.774   1.981  -1.130  0.00  0.00    -0.077 C 
ATOM      2  C   UNL     1      -0.905   3.500  -1.002  0.00  0.00    -0.006 C 
ATOM      3  C   UNL     1       0.491   4.130  -1.004  0.00  0.00    +0.072 C 
ATOM      4  C   UNL     1       1.313   3.536   0.143  0.00  0.00    -0.006 C 
ATOM      5  C   UNL     1       1.379   2.015  -0.019  0.00  0.00    -0.077 C 
ATOM      6  N   UNL     1       0.007   1.468   0.016  0.00  0.00    +0.385 N 
ATOM      7  H   UNL     1      -0.448   1.765   0.888  0.00  0.00    -0.081 HD
ENDROOT
BRANCH   3   8
ATOM      8  C   UNL     1       0.371   5.621  -0.818  0.00  0.00    +0.220 C 
ATOM      9  O   UNL     1       0.891   6.156   0.138  0.00  0.00    -0.275 OA
ATOM     10  N   UNL     1      -0.315   6.359  -1.714  0.00  0.00    -0.282 N 
ATOM     11  H   UNL     1      -0.676   5.941  -2.511  0.00  0.00    +0.155 HD
BRANCH  10  12
ATOM     12  C   UNL     1      -0.506   7.729  -1.492  0.00  0.00    +0.075 A 
ATOM     13  C   UNL     1       0.481   8.477  -0.868  0.00  0.00    +0.027 A 
ATOM     14  C   UNL     1       0.290   9.829  -0.650  0.00  0.00    +0.002 A 
ATOM     15  C   UNL     1      -0.883  10.438  -1.055  0.00  0.00    +0.004 A 
ATOM     16  C   UNL     1      -1.871   9.699  -1.678  0.00  0.00    +0.047 A 
ATOM     17  C   UNL     1      -1.686   8.345  -1.904  0.00  0.00    +0.138 A 
BRANCH  17  18
ATOM     18  O   UNL     1      -2.654   7.618  -2.522  0.00  0.00    -0.505 OA
ATOM     19  H   UNL     1      -3.301   7.230  -1.917  0.00  0.00    +0.292 HD
ENDBRANCH  17  18
ENDBRANCH  10  12
ENDBRANCH   3   8
BRANCH   6  20
ATOM     20  C   UNL     1       0.051  -0.008  -0.023  0.00  0.00    +0.019 C 
BRANCH  20  22
ATOM     21  N   UNL     1      -1.550  -1.872   0.266  0.00  0.00    -0.310 N 
ATOM     22  C   UNL     1      -1.335  -0.542   0.234  0.00  0.00    +0.197 C 
ATOM     23  O   UNL     1      -2.257   0.225   0.410  0.00  0.00    -0.278 OA
ATOM     24  H   UNL     1      -0.812  -2.486   0.125  0.00  0.00    +0.149 HD
BRANCH  21  25
ATOM     25  C   UNL     1      -2.897  -2.391   0.516  0.00  0.00    +0.106 C 
BRANCH  25  26
ATOM     26  C   UNL     1      -3.022  -3.770  -0.079  0.00  0.00    -0.027 A 
ATOM     27  C   UNL     1      -1.968  -4.660   0.012  0.00  0.00    +0.008 A 
ATOM     28  C   UNL     1      -2.084  -5.927  -0.528  0.00  0.00    +0.038 A 
ATOM     29  C   UNL     1      -3.252  -6.300  -1.171  0.00  0.00    +0.123 A 
ATOM     30  C   UNL     1      -4.304  -5.406  -1.267  0.00  0.00    +0.038 A 
ATOM     31  C   UNL     1      -4.189  -4.142  -0.721  0.00  0.00    +0.008 A 
ATOM     32  F   UNL     1      -3.364  -7.536  -1.706  0.00  0.00    -0.205 F 
ENDBRANCH  25  26
BRANCH  25  34
ATOM     33  C   UNL     1      -3.017  -1.062   2.628  0.00  0.00    +0.009 C 
ATOM     34  C   UNL     1      -3.144  -2.462   2.024  0.00  0.00    +0.008 C 
ATOM     35  C   UNL     1      -4.551  -3.004   2.285  0.00  0.00    +0.009 C 
ENDBRANCH  25  34
ENDBRANCH  21  25
ENDBRANCH  20  22
ENDBRANCH   6  20
TORSDOF 8
