REMARK  Name = ZINC38664323
REMARK  8 active torsions:
REMARK  status: ('A' for Active; 'I' for Inactive)
REMARK    1  A    between atoms: C_1  and  C_2
REMARK    2  A    between atoms: C_2  and  C_3
REMARK    3  A    between atoms: N_9  and  C_10
REMARK    4  A    between atoms: C_10  and  C_11
REMARK    5  A    between atoms: N_13  and  C_14
REMARK    6  A    between atoms: C_18  and  C_20
REMARK    7  A    between atoms: C_20  and  O_22
REMARK    8  A    between atoms: O_22  and  C_23
REMARK                            x       y       z     vdW  Elec       q    Type
REMARK                         _______ _______ _______ _____ _____    ______ ____
ROOT
ATOM      1  C   UNL     1      -2.826   4.002  -4.381  0.00  0.00    +0.054 C 
ATOM      2  C   UNL     1      -3.388   5.133  -4.946  0.00  0.00    +0.036 A 
ATOM      3  C   UNL     1      -4.092   4.746  -6.181  0.00  0.00    +0.046 A 
ATOM      4  N   UNL     1      -3.982   3.449  -6.385  0.00  0.00    -0.367 N 
ATOM      5  C   UNL     1      -3.188   2.859  -5.303  0.00  0.00    +0.234 C 
ATOM      6  C   UNL     1      -4.745   5.762  -6.925  0.00  0.00    +0.026 A 
ATOM      7  C   UNL     1      -4.708   7.045  -6.492  0.00  0.00    +0.003 A 
ATOM      8  C   UNL     1      -4.040   7.411  -5.321  0.00  0.00    +0.021 A 
ATOM      9  C   UNL     1      -3.393   6.495  -4.556  0.00  0.00    +0.052 A 
ATOM     10 CL   UNL     1      -2.576   6.990  -3.106  0.00  0.00    -0.083 Cl
ATOM     11  H   UNL     1      -4.363   2.962  -7.133  0.00  0.00    +0.161 HD
ENDROOT
BRANCH   1  14
ATOM     12  C   UNL     1      -1.482   2.781  -2.893  0.00  0.00    +0.200 C 
ATOM     13  O   UNL     1      -1.484   1.843  -3.662  0.00  0.00    -0.278 OA
ATOM     14  N   UNL     1      -2.094   3.933  -3.234  0.00  0.00    -0.288 N 
ATOM     15  H   UNL     1      -2.013   4.712  -2.663  0.00  0.00    +0.155 HD
BRANCH  12  16
ATOM     16  C   UNL     1      -0.795   2.659  -1.557  0.00  0.00    +0.019 C 
BRANCH  16  22
ATOM     17  C   UNL     1       0.424   1.169  -0.130  0.00  0.00    -0.068 C 
ATOM     18  C   UNL     1       1.113  -0.194  -0.041  0.00  0.00    -0.015 C 
ATOM     19  C   UNL     1       2.291  -0.228  -1.019  0.00  0.00    -0.003 C 
ATOM     20  C   UNL     1       1.779   0.073  -2.431  0.00  0.00    -0.019 C 
ATOM     21  C   UNL     1       1.065   1.426  -2.430  0.00  0.00    -0.078 C 
ATOM     22  N   UNL     1      -0.066   1.385  -1.496  0.00  0.00    +0.387 N 
ATOM     23  H   UNL     1      -0.687   0.632  -1.753  0.00  0.00    -0.081 HD
BRANCH  17  25
ATOM     24  C   UNL     1      -0.242   1.001   2.273  0.00  0.00    +0.002 C 
ATOM     25  C   UNL     1      -0.754   1.208   0.846  0.00  0.00    -0.019 C 
ENDBRANCH  17  25
ENDBRANCH  16  22
ENDBRANCH  12  16
ENDBRANCH   1  14
BRANCH   5  26
ATOM     26  C   UNL     1      -4.006   1.833  -4.562  0.00  0.00    +0.335 C 
ATOM     27  O   UNL     1      -5.204   1.968  -4.470  0.00  0.00    -0.248 OA
BRANCH  26  28
ATOM     28  O   UNL     1      -3.405   0.770  -4.005  0.00  0.00    -0.466 OA
ATOM     29  C   UNL     1      -4.243  -0.163  -3.318  0.00  0.00    +0.280 C 
ENDBRANCH  26  28
ENDBRANCH   5  26
TORSDOF 6
