REMARK  Name = ZINC09447559
REMARK  9 active torsions:
REMARK  status: ('A' for Active; 'I' for Inactive)
REMARK    1  A    between atoms: C_2  and  C_3
REMARK    2  A    between atoms: C_3  and  N_4
REMARK    3  A    between atoms: C_5  and  C_26
REMARK    4  A    between atoms: C_8  and  S_9
REMARK    5  A    between atoms: S_9  and  C_10
REMARK    6  A    between atoms: C_10  and  C_11
REMARK    7  A    between atoms: N_13  and  N_14
REMARK    8  A    between atoms: C_15  and  C_17
REMARK    9  A    between atoms: C_20  and  N_23
REMARK                            x       y       z     vdW  Elec       q    Type
REMARK                         _______ _______ _______ _____ _____    ______ ____
ROOT
ATOM      1  C   UNL     1       3.458  -5.051   0.077  0.00  0.00    +0.239 C 
ATOM      2  O   UNL     1       4.475  -4.391   0.074  0.00  0.00    -0.273 OA
ATOM      3  N   UNL     1       2.257  -4.440   0.117  0.00  0.00    -0.233 N 
ATOM      4  H   UNL     1       1.444  -4.968   0.119  0.00  0.00    +0.173 HD
ENDROOT
BRANCH   3   5
ATOM      5  N   UNL     1       2.185  -3.041   0.154  0.00  0.00    -0.230 N 
ATOM      6  C   UNL     1       0.984  -2.429   0.193  0.00  0.00    +0.260 C 
ATOM      7  O   UNL     1      -0.035  -3.091   0.196  0.00  0.00    -0.269 OA
ATOM      8  H   UNL     1       2.998  -2.513   0.151  0.00  0.00    +0.173 HD
BRANCH   6   9
ATOM      9  C   UNL     1       0.907  -0.954   0.232  0.00  0.00    +0.038 A 
ATOM     10  C   UNL     1      -0.334  -0.317   0.273  0.00  0.00    +0.015 A 
ATOM     11  C   UNL     1      -0.399   1.061   0.310  0.00  0.00    +0.033 A 
ATOM     12  C   UNL     1       0.764   1.811   0.307  0.00  0.00    +0.126 A 
ATOM     13  C   UNL     1       1.998   1.186   0.267  0.00  0.00    +0.033 A 
ATOM     14  C   UNL     1       2.076  -0.191   0.230  0.00  0.00    +0.015 A 
BRANCH  12  15
ATOM     15  N   UNL     1       0.687   3.289   0.347  0.00  0.00    +0.056 N 
ATOM     16  O   UNL     1      -0.398   3.841   0.382  0.00  0.00    -0.126 OA
ATOM     17  O   UNL     1       1.709   3.952   0.344  0.00  0.00    -0.126 OA
ENDBRANCH  12  15
ENDBRANCH   6   9
ENDBRANCH   3   5
BRANCH   1  18
ATOM     18  C   UNL     1       3.536  -6.556   0.037  0.00  0.00    +0.174 C 
BRANCH  18  19
ATOM     19  S   UNL     1       5.271  -7.069  -0.010  0.00  0.00    -0.077 S 
BRANCH  19  24
ATOM     20  N   UNL     1       6.072  -9.747  -0.094  0.00  0.00    -0.298 N 
ATOM     21  C   UNL     1       5.443 -10.971  -0.113  0.00  0.00    +0.165 A 
ATOM     22  N   UNL     1       4.151 -10.740  -0.082  0.00  0.00    -0.128 NA
ATOM     23  N   UNL     1       3.932  -9.474  -0.040  0.00  0.00    -0.122 NA
ATOM     24  C   UNL     1       5.072  -8.819  -0.051  0.00  0.00    +0.193 A 
BRANCH  21  25
ATOM     25  C   UNL     1       6.098 -12.295  -0.160  0.00  0.00    +0.019 A 
ATOM     26  C   UNL     1       7.436 -12.429   0.214  0.00  0.00    +0.011 A 
ATOM     27  C   UNL     1       8.040 -13.668   0.173  0.00  0.00    +0.001 A 
ATOM     28  C   UNL     1       7.325 -14.776  -0.248  0.00  0.00    +0.000 A 
ATOM     29  C   UNL     1       6.000 -14.650  -0.624  0.00  0.00    +0.001 A 
ATOM     30  C   UNL     1       5.383 -13.417  -0.583  0.00  0.00    +0.011 A 
ENDBRANCH  21  25
BRANCH  20  31
ATOM     31  C   UNL     1       7.515  -9.494  -0.117  0.00  0.00    +0.152 C 
BRANCH  31  33
ATOM     32  C   UNL     1       9.019 -10.003   1.737  0.00  0.00    +0.005 C 
ATOM     33  C   UNL     1       8.012  -9.295   1.292  0.00  0.00    -0.013 C 
ENDBRANCH  31  33
ENDBRANCH  20  31
ENDBRANCH  19  24
ENDBRANCH  18  19
ENDBRANCH   1  18
TORSDOF 9
