REMARK  Name = ZINC08951429
REMARK  11 active torsions:
REMARK  status: ('A' for Active; 'I' for Inactive)
REMARK    1  A    between atoms: C_1  and  C_2
REMARK    2  A    between atoms: C_2  and  C_3
REMARK    3  A    between atoms: C_3  and  C_4
REMARK    4  A    between atoms: C_4  and  N_5
REMARK    5  A    between atoms: N_8  and  C_9
REMARK    6  A    between atoms: N_8  and  O_28
REMARK    7  A    between atoms: C_11  and  C_26
REMARK    8  A    between atoms: C_11  and  C_27
REMARK    9  A    between atoms: N_15  and  N_16
REMARK   10  A    between atoms: C_17  and  C_18
REMARK   11  A    between atoms: C_23  and  O_24
REMARK                            x       y       z     vdW  Elec       q    Type
REMARK                         _______ _______ _______ _____ _____    ______ ____
ROOT
ATOM      1  C   UNL     1      -2.563   1.071   0.474  0.00  0.00    +0.232 C 
ATOM      2  C   UNL     1      -3.477   1.980   1.322  0.00  0.00    +0.056 C 
ATOM      3  S   UNL     1      -3.849   0.872   2.735  0.00  0.00    -0.091 S 
ATOM      4  C   UNL     1      -2.917  -0.559   2.231  0.00  0.00    +0.132 C 
ATOM      5  S   UNL     1      -2.774  -2.046   3.068  0.00  0.00    -0.026 S 
ATOM      6  N   UNL     1      -2.350  -0.231   1.062  0.00  0.00    -0.187 N 
ATOM      7  C   UNL     1      -2.731   3.233   1.785  0.00  0.00    +0.026 C 
ATOM      8  C   UNL     1      -4.750   2.348   0.558  0.00  0.00    +0.026 C 
ENDROOT
BRANCH   1  12
ATOM      9  N   UNL     1      -0.003   3.532  -0.472  0.00  0.00    -0.298 N 
ATOM     10  C   UNL     1      -1.177   2.874  -0.400  0.00  0.00    +0.327 C 
ATOM     11  O   UNL     1      -2.157   3.314  -0.969  0.00  0.00    -0.250 OA
ATOM     12  N   UNL     1      -1.266   1.731   0.308  0.00  0.00    -0.144 N 
ATOM     13  H   UNL     1       0.779   3.181  -0.018  0.00  0.00    +0.150 HD
BRANCH  12  14
ATOM     14  O   UNL     1      -0.105   1.167   0.892  0.00  0.00    -0.289 OA
ATOM     15  H   UNL     1      -0.256   0.314   1.321  0.00  0.00    +0.242 HD
ENDBRANCH  12  14
BRANCH   9  16
ATOM     16  C   UNL     1       0.092   4.778  -1.237  0.00  0.00    +0.106 C 
BRANCH  16  17
ATOM     17  C   UNL     1       1.522   5.317  -1.158  0.00  0.00    +0.018 C 
BRANCH  17  19
ATOM     18  C   UNL     1       3.051   7.158  -1.877  0.00  0.00    +0.004 C 
ATOM     19  C   UNL     1       1.621   6.619  -1.956  0.00  0.00    -0.002 C 
ENDBRANCH  17  19
ENDBRANCH  16  17
ENDBRANCH   9  16
ENDBRANCH   1  12
BRANCH   6  20
ATOM     20  N   UNL     1      -1.540  -1.164   0.400  0.00  0.00    -0.184 NA
ATOM     21  C   UNL     1      -1.079  -0.899  -0.784  0.00  0.00    +0.142 C 
BRANCH  21  22
ATOM     22  C   UNL     1      -0.316  -1.921  -1.523  0.00  0.00    +0.037 A 
ATOM     23  C   UNL     1       0.268  -1.608  -2.753  0.00  0.00    +0.028 A 
ATOM     24  C   UNL     1       0.985  -2.568  -3.438  0.00  0.00    +0.019 A 
ATOM     25  C   UNL     1       1.119  -3.844  -2.915  0.00  0.00    +0.019 A 
ATOM     26  C   UNL     1       0.541  -4.166  -1.702  0.00  0.00    +0.047 A 
ATOM     27  C   UNL     1      -0.177  -3.213  -0.999  0.00  0.00    +0.126 A 
ATOM     28 BR   UNL     1       1.781  -2.142  -5.099  0.00  0.00    -0.050 Br
BRANCH  27  29
ATOM     29  O   UNL     1      -0.746  -3.530   0.193  0.00  0.00    -0.506 OA
ATOM     30  H   UNL     1      -1.618  -3.941   0.117  0.00  0.00    +0.292 HD
ENDBRANCH  27  29
ENDBRANCH  21  22
ENDBRANCH   6  20
TORSDOF 8
