REMARK  Name = ZINC20873408
REMARK  10 active torsions:
REMARK  status: ('A' for Active; 'I' for Inactive)
REMARK    1  A    between atoms: C_4  and  N_7
REMARK    2  A    between atoms: C_8  and  S_12
REMARK    3  A    between atoms: S_12  and  C_13
REMARK    4  A    between atoms: C_13  and  C_14
REMARK    5  A    between atoms: C_14  and  N_15
REMARK    6  A    between atoms: N_15  and  C_16
REMARK    7  A    between atoms: C_16  and  C_17
REMARK    8  A    between atoms: C_22  and  O_23
REMARK    9  A    between atoms: O_23  and  C_24
REMARK   10  A    between atoms: C_24  and  C_25
REMARK                            x       y       z     vdW  Elec       q    Type
REMARK                         _______ _______ _______ _____ _____    ______ ____
ROOT
ATOM      1  N   UNL     1       2.981   3.999  -1.370  0.00  0.00    +0.382 N 
ATOM      2  H   UNL     1       2.240   4.490  -2.017  0.00  0.00    -0.085 HD
ATOM      3  H   UNL     1       3.151   2.971  -1.722  0.00  0.00    -0.085 HD
ENDROOT
BRANCH   1   4
ATOM      4  C   UNL     1       4.244   4.748  -1.417  0.00  0.00    -0.071 C 
BRANCH   4   5
ATOM      5  C   UNL     1       4.764   4.780  -2.856  0.00  0.00    +0.058 C 
BRANCH   5   6
ATOM      6  S   UNL     1       6.321   5.703  -2.914  0.00  0.00    -0.086 S 
BRANCH   6   8
ATOM      7  N   UNL     1       7.758   6.113  -5.271  0.00  0.00    -0.187 N 
ATOM      8  C   UNL     1       6.682   5.585  -4.634  0.00  0.00    +0.214 A 
ATOM      9  N   UNL     1       5.957   4.973  -5.546  0.00  0.00    -0.101 NA
ATOM     10  N   UNL     1       6.506   5.078  -6.702  0.00  0.00    -0.022 NA
ATOM     11  N   UNL     1       7.601   5.752  -6.620  0.00  0.00    -0.038 NA
BRANCH   7  15
ATOM     12  C   UNL     1      10.862   8.328  -3.585  0.00  0.00    +0.000 A 
ATOM     13  C   UNL     1      11.121   7.464  -4.633  0.00  0.00    +0.002 A 
ATOM     14  C   UNL     1      10.094   6.729  -5.194  0.00  0.00    +0.028 A 
ATOM     15  C   UNL     1       8.802   6.858  -4.704  0.00  0.00    +0.070 A 
ATOM     16  C   UNL     1       8.544   7.730  -3.655  0.00  0.00    +0.028 A 
ATOM     17  C   UNL     1       9.576   8.458  -3.094  0.00  0.00    +0.002 A 
ENDBRANCH   7  15
ENDBRANCH   6   8
ENDBRANCH   5   6
ENDBRANCH   4   5
ENDBRANCH   1   4
BRANCH   1  18
ATOM     18  C   UNL     1       2.451   3.947  -0.001  0.00  0.00    -0.043 C 
BRANCH  18  19
ATOM     19  C   UNL     1       1.158   3.173   0.008  0.00  0.00    -0.021 A 
ATOM     20  C   UNL     1      -0.050   3.844   0.022  0.00  0.00    +0.025 A 
ATOM     21  C   UNL     1      -1.237   3.134   0.030  0.00  0.00    +0.041 A 
ATOM     22  C   UNL     1      -1.218   1.751   0.017  0.00  0.00    +0.023 A 
ATOM     23  C   UNL     1      -0.013   1.076   0.008  0.00  0.00    +0.047 A 
ATOM     24  C   UNL     1       1.179   1.786   0.000  0.00  0.00    +0.123 A 
ATOM     25 CL   UNL     1      -2.753   3.980   0.048  0.00  0.00    -0.084 Cl
BRANCH  24  26
ATOM     26  O   UNL     1       2.366   1.124  -0.015  0.00  0.00    -0.483 OA
BRANCH  26  27
ATOM     27  C   UNL     1       2.312  -0.304  -0.022  0.00  0.00    +0.324 C 
BRANCH  27  28
ATOM     28  C   UNL     1       3.713  -0.859  -0.038  0.00  0.00    +0.248 C 
ATOM     29  O   UNL     1       4.664  -0.106  -0.043  0.00  0.00    -0.272 OA
ATOM     30  N   UNL     1       3.909  -2.193  -0.047  0.00  0.00    -0.327 N 
ATOM     31  H   UNL     1       4.932  -2.598  -0.059  0.00  0.00    +0.145 HD
ATOM     32  H   UNL     1       3.047  -2.876  -0.043  0.00  0.00    +0.145 HD
ENDBRANCH  27  28
ENDBRANCH  26  27
ENDBRANCH  24  26
ENDBRANCH  18  19
ENDBRANCH   1  18
TORSDOF 10
