REMARK  Name = ZINC59891205
REMARK  11 active torsions:
REMARK  status: ('A' for Active; 'I' for Inactive)
REMARK    1  A    between atoms: C_1  and  C_2
REMARK    2  A    between atoms: C_2  and  C_3
REMARK    3  A    between atoms: C_3  and  C_4
REMARK    4  A    between atoms: C_4  and  C_5
REMARK    5  A    between atoms: C_5  and  C_26
REMARK    6  A    between atoms: N_6  and  N_7
REMARK    7  A    between atoms: C_10  and  S_13
REMARK    8  A    between atoms: S_13  and  C_14
REMARK    9  A    between atoms: C_14  and  C_15
REMARK   10  A    between atoms: C_15  and  C_16
REMARK   11  A    between atoms: N_18  and  C_19
REMARK                            x       y       z     vdW  Elec       q    Type
REMARK                         _______ _______ _______ _____ _____    ______ ____
ROOT
ATOM      1  N   UNL     1       1.538  -3.666   4.484  0.00  0.00    -0.205 N 
ATOM      2  C   UNL     1       0.859  -4.390   5.448  0.00  0.00    +0.232 A 
ATOM      3  N   UNL     1      -0.419  -4.708   5.420  0.00  0.00    -0.186 NA
ATOM      4  C   UNL     1      -0.732  -5.411   6.514  0.00  0.00    +0.210 A 
ATOM      5  N   UNL     1       0.343  -5.550   7.252  0.00  0.00    -0.144 NA
ATOM      6  N   UNL     1       1.390  -4.901   6.578  0.00  0.00    -0.245 N 
ATOM      7  H   UNL     1       2.485  -3.485   4.591  0.00  0.00    +0.177 HD
ATOM      8  H   UNL     1       2.313  -4.831   6.869  0.00  0.00    +0.192 HD
ENDROOT
BRANCH   1  10
ATOM      9  C   UNL     1       1.486  -2.523   2.463  0.00  0.00    +0.034 C 
ATOM     10  N   UNL     1       0.858  -3.193   3.354  0.00  0.00    -0.189 NA
ATOM     11  C   UNL     1       2.957  -2.242   2.629  0.00  0.00    +0.062 C 
BRANCH   9  12
ATOM     12  C   UNL     1       0.755  -2.015   1.247  0.00  0.00    +0.052 C 
BRANCH  12  13
ATOM     13  C   UNL     1       0.741  -0.485   1.263  0.00  0.00    +0.006 C 
BRANCH  13  15
ATOM     14  C   UNL     1      -0.016   1.561   0.045  0.00  0.00    +0.004 C 
ATOM     15  C   UNL     1      -0.002   0.031   0.029  0.00  0.00    -0.003 C 
ENDBRANCH  13  15
ENDBRANCH  12  13
ENDBRANCH   9  12
ENDBRANCH   1  10
BRANCH   4  16
ATOM     16  S   UNL     1      -2.329  -6.046   6.900  0.00  0.00    -0.084 S 
BRANCH  16  17
ATOM     17  C   UNL     1      -2.093  -6.888   8.490  0.00  0.00    +0.086 C 
BRANCH  17  18
ATOM     18  C   UNL     1      -3.421  -7.494   8.948  0.00  0.00    +0.107 C 
BRANCH  18  19
ATOM     19  C   UNL     1      -3.226  -8.194  10.268  0.00  0.00    +0.218 C 
ATOM     20  O   UNL     1      -2.132  -8.206  10.791  0.00  0.00    -0.275 OA
ATOM     21  N   UNL     1      -4.266  -8.805  10.867  0.00  0.00    -0.285 N 
ATOM     22  H   UNL     1      -5.155  -8.739  10.484  0.00  0.00    +0.155 HD
BRANCH  21  23
ATOM     23  C   UNL     1      -4.066  -9.536  12.044  0.00  0.00    +0.033 A 
ATOM     24  C   UNL     1      -4.801 -10.690  12.280  0.00  0.00    +0.024 A 
ATOM     25  C   UNL     1      -4.600 -11.410  13.441  0.00  0.00    +0.016 A 
ATOM     26  C   UNL     1      -3.668 -10.982  14.369  0.00  0.00    +0.013 A 
ATOM     27  C   UNL     1      -2.934  -9.833  14.137  0.00  0.00    +0.016 A 
ATOM     28  C   UNL     1      -3.126  -9.113  12.974  0.00  0.00    +0.024 A 
ATOM     29  I   UNL     1      -3.368 -12.077  16.130  0.00  0.00    -0.044 I 
ENDBRANCH  21  23
ENDBRANCH  18  19
ENDBRANCH  17  18
ENDBRANCH  16  17
ENDBRANCH   4  16
TORSDOF 9
