REMARK  Name = ZINC41779643
REMARK  10 active torsions:
REMARK  status: ('A' for Active; 'I' for Inactive)
REMARK    1  A    between atoms: C_1  and  C_2
REMARK    2  A    between atoms: C_6  and  N_9
REMARK    3  A    between atoms: C_7  and  C_8
REMARK    4  A    between atoms: C_10  and  C_12
REMARK    5  A    between atoms: C_12  and  C_14
REMARK    6  A    between atoms: C_12  and  N_15
REMARK    7  A    between atoms: N_15  and  S_16
REMARK    8  A    between atoms: S_16  and  C_19
REMARK    9  A    between atoms: C_22  and  N_25
REMARK   10  A    between atoms: C_26  and  C_28
REMARK                            x       y       z     vdW  Elec       q    Type
REMARK                         _______ _______ _______ _____ _____    ______ ____
ROOT
ATOM      1  N   UNL     1      -0.207  -6.338   3.436  0.00  0.00    -0.178 NA
ATOM      2  H   UNL     1       0.284  -6.715   2.690  0.00  0.00    +0.149 HD
ENDROOT
BRANCH   1   3
ATOM      3  S   UNL     1      -1.134  -7.318   4.396  0.00  0.00    +0.059 S 
ATOM      4  O   UNL     1      -1.027  -8.630   3.861  0.00  0.00    -0.153 OA
ATOM      5  O   UNL     1      -0.790  -7.013   5.741  0.00  0.00    -0.153 OA
BRANCH   3   6
ATOM      6  C   UNL     1      -2.811  -6.822   4.181  0.00  0.00    +0.105 A 
ATOM      7  C   UNL     1      -3.352  -5.846   4.997  0.00  0.00    +0.030 A 
ATOM      8  C   UNL     1      -4.666  -5.455   4.831  0.00  0.00    +0.025 A 
ATOM      9  C   UNL     1      -5.444  -6.043   3.843  0.00  0.00    +0.033 A 
ATOM     10  C   UNL     1      -4.898  -7.023   3.024  0.00  0.00    +0.025 A 
ATOM     11  C   UNL     1      -3.582  -7.406   3.192  0.00  0.00    +0.030 A 
BRANCH   9  12
ATOM     12  N   UNL     1      -6.776  -5.649   3.672  0.00  0.00    -0.286 N 
ATOM     13  C   UNL     1      -7.131  -4.365   3.874  0.00  0.00    +0.214 C 
ATOM     14  O   UNL     1      -6.314  -3.568   4.287  0.00  0.00    -0.276 OA
ATOM     15  C   UNL     1      -8.541  -3.918   3.587  0.00  0.00    +0.109 C 
ATOM     16  H   UNL     1      -7.445  -6.301   3.409  0.00  0.00    +0.155 HD
ENDBRANCH   9  12
ENDBRANCH   3   6
ENDBRANCH   1   3
BRANCH   1  17
ATOM     17  C   UNL     1      -0.128  -4.902   3.715  0.00  0.00    +0.159 C 
ATOM     18  C   UNL     1       1.106  -4.615   4.572  0.00  0.00    +0.035 C 
BRANCH  17  20
ATOM     19  N   UNL     1       0.059  -2.798   2.426  0.00  0.00    -0.284 N 
ATOM     20  C   UNL     1      -0.025  -4.143   2.416  0.00  0.00    +0.236 C 
ATOM     21  O   UNL     1      -0.018  -4.744   1.362  0.00  0.00    -0.274 OA
ATOM     22  H   UNL     1       0.134  -2.323   3.269  0.00  0.00    +0.155 HD
BRANCH  19  28
ATOM     23  C   UNL     1       1.224   1.239  -0.125  0.00  0.00    +0.044 C 
ATOM     24  C   UNL     1       0.595  -0.127  -0.043  0.00  0.00    -0.046 A 
ATOM     25  C   UNL     1      -0.005  -0.680  -1.160  0.00  0.00    +0.004 A 
ATOM     26  C   UNL     1      -0.584  -1.933  -1.089  0.00  0.00    +0.002 A 
ATOM     27  C   UNL     1      -0.564  -2.639   0.099  0.00  0.00    +0.023 A 
ATOM     28  C   UNL     1       0.037  -2.087   1.222  0.00  0.00    +0.037 A 
ATOM     29  C   UNL     1       0.622  -0.829   1.146  0.00  0.00    -0.026 A 
ATOM     30  C   UNL     1       1.282  -0.229   2.361  0.00  0.00    +0.046 C 
ENDBRANCH  19  28
ENDBRANCH  17  20
ENDBRANCH   1  17
TORSDOF 6
