REMARK  Name = ZINC33292195
REMARK  5 active torsions:
REMARK  status: ('A' for Active; 'I' for Inactive)
REMARK    1  A    between atoms: C_4  and  N_7
REMARK    2  A    between atoms: C_17  and  S_18
REMARK    3  A    between atoms: S_18  and  C_19
REMARK    4  A    between atoms: C_19  and  C_20
REMARK    5  A    between atoms: C_22  and  C_25
REMARK                            x       y       z     vdW  Elec       q    Type
REMARK                         _______ _______ _______ _____ _____    ______ ____
ROOT
ATOM      1  N   UNL     1      -1.184   1.892   0.018  0.00  0.00    -0.255 N 
ATOM      2  C   UNL     1      -0.123   1.401  -0.661  0.00  0.00    +0.270 A 
ATOM      3  O   UNL     1      -0.206   0.352  -1.276  0.00  0.00    -0.266 OA
ATOM      4  C   UNL     1       1.085   2.141  -0.646  0.00  0.00    +0.103 A 
ATOM      5  C   UNL     1       2.358   1.955  -1.222  0.00  0.00    +0.149 A 
ATOM      6  N   UNL     1       3.115   2.959  -0.880  0.00  0.00    -0.180 NA
ATOM      7  N   UNL     1       2.387   3.842  -0.073  0.00  0.00    -0.260 N 
ATOM      8  H   UNL     1       2.864   4.755   0.314  0.00  0.00    +0.191 HD
ATOM      9  C   UNL     1       1.130   3.345   0.077  0.00  0.00    +0.164 A 
ATOM     10  N   UNL     1       0.038   3.763   0.731  0.00  0.00    -0.204 NA
ATOM     11  C   UNL     1      -1.077   3.067   0.708  0.00  0.00    +0.179 A 
ENDROOT
BRANCH   1  15
ATOM     12  C   UNL     1      -4.792  -0.196   0.024  0.00  0.00    +0.000 A 
ATOM     13  C   UNL     1      -3.845  -0.451   0.999  0.00  0.00    +0.002 A 
ATOM     14  C   UNL     1      -2.649   0.239   1.000  0.00  0.00    +0.026 A 
ATOM     15  C   UNL     1      -2.397   1.190   0.020  0.00  0.00    +0.052 A 
ATOM     16  C   UNL     1      -3.351   1.447  -0.956  0.00  0.00    +0.026 A 
ATOM     17  C   UNL     1      -4.543   0.750  -0.954  0.00  0.00    +0.002 A 
ENDBRANCH   1  15
BRANCH  11  18
ATOM     18  S   UNL     1      -2.479   3.671   1.588  0.00  0.00    -0.078 S 
BRANCH  18  19
ATOM     19  C   UNL     1      -1.786   5.197   2.273  0.00  0.00    +0.176 C 
BRANCH  19  20
ATOM     20  C   UNL     1      -2.838   5.904   3.089  0.00  0.00    +0.238 A 
ATOM     21  N   UNL     1      -3.073   5.738   4.367  0.00  0.00    -0.191 NA
ATOM     22  C   UNL     1      -4.094   6.574   4.660  0.00  0.00    +0.202 A 
ATOM     23  N   UNL     1      -4.421   7.187   3.552  0.00  0.00    -0.056 NA
ATOM     24  O   UNL     1      -3.710   6.813   2.643  0.00  0.00    -0.337 OA
BRANCH  22  25
ATOM     25  C   UNL     1      -4.729   6.758   5.989  0.00  0.00    +0.023 A 
ATOM     26  C   UNL     1      -4.276   6.028   7.086  0.00  0.00    +0.014 A 
ATOM     27  C   UNL     1      -4.866   6.205   8.320  0.00  0.00    +0.039 A 
ATOM     28  C   UNL     1      -5.913   7.101   8.468  0.00  0.00    +0.123 A 
ATOM     29  C   UNL     1      -6.369   7.825   7.378  0.00  0.00    +0.039 A 
ATOM     30  C   UNL     1      -5.782   7.657   6.141  0.00  0.00    +0.014 A 
ATOM     31  F   UNL     1      -6.491   7.268   9.678  0.00  0.00    -0.205 F 
ENDBRANCH  22  25
ENDBRANCH  19  20
ENDBRANCH  18  19
ENDBRANCH  11  18
TORSDOF 5
