REMARK  Name = ZINC16115604
REMARK  8 active torsions:
REMARK  status: ('A' for Active; 'I' for Inactive)
REMARK    1  A    between atoms: C_1  and  C_2
REMARK    2  A    between atoms: C_5  and  S_8
REMARK    3  A    between atoms: S_8  and  O_11
REMARK    4  A    between atoms: O_11  and  C_12
REMARK    5  A    between atoms: C_17  and  C_18
REMARK    6  A    between atoms: N_19  and  N_20
REMARK    7  A    between atoms: C_25  and  C_28
REMARK    8  A    between atoms: C_28  and  C_29
REMARK                            x       y       z     vdW  Elec       q    Type
REMARK                         _______ _______ _______ _____ _____    ______ ____
ROOT
ATOM      1  C   UNL     1       2.150  -4.816   1.162  0.00  0.00    +0.165 A 
ATOM      2  C   UNL     1       2.792  -3.629   1.471  0.00  0.00    +0.049 A 
ATOM      3  C   UNL     1       3.430  -3.482   2.688  0.00  0.00    +0.004 A 
ATOM      4  C   UNL     1       3.433  -4.518   3.607  0.00  0.00    +0.001 A 
ATOM      5  C   UNL     1       2.798  -5.707   3.316  0.00  0.00    +0.013 A 
ATOM      6  C   UNL     1       2.145  -5.866   2.091  0.00  0.00    +0.039 A 
ENDROOT
BRANCH   6   7
ATOM      7  C   UNL     1       1.460  -7.132   1.776  0.00  0.00    +0.142 C 
ATOM      8  N   UNL     1       0.858  -7.277   0.635  0.00  0.00    -0.188 NA
BRANCH   8   9
ATOM      9  N   UNL     1       0.207  -8.481   0.335  0.00  0.00    -0.217 N 
ATOM     10  C   UNL     1      -0.425  -8.634  -0.865  0.00  0.00    +0.166 C 
ATOM     11  N   UNL     1      -0.519  -7.761  -1.860  0.00  0.00    -0.157 NA
ATOM     12  C   UNL     1      -1.145  -7.984  -2.982  0.00  0.00    +0.252 C 
ATOM     13  O   UNL     1      -1.206  -7.155  -3.869  0.00  0.00    -0.272 OA
ATOM     14  C   UNL     1      -1.794  -9.358  -3.105  0.00  0.00    +0.152 C 
ATOM     15  S   UNL     1      -1.315 -10.061  -1.470  0.00  0.00    -0.078 S 
ATOM     16  H   UNL     1       0.205  -9.206   0.980  0.00  0.00    +0.176 HD
BRANCH  14  17
ATOM     17  C   UNL     1      -1.185 -10.163  -4.255  0.00  0.00    +0.149 C 
BRANCH  17  18
ATOM     18  C   UNL     1      -1.938 -11.459  -4.414  0.00  0.00    +0.358 C 
ATOM     19  O   UNL     1      -2.874 -11.715  -3.677  0.00  0.00    -0.246 OA
ATOM     20  O   UNL     1      -1.610 -12.251  -5.281  0.00  0.00    -0.246 OA
ENDBRANCH  17  18
ENDBRANCH  14  17
ENDBRANCH   8   9
ENDBRANCH   6   7
BRANCH   1  21
ATOM     21  O   UNL     1       1.522  -4.962  -0.033  0.00  0.00    -0.342 OA
BRANCH  21  22
ATOM     22  S   UNL     1       0.063  -4.530  -0.023  0.00  0.00    +0.151 S 
ATOM     23  O   UNL     1      -0.476  -4.950   1.223  0.00  0.00    -0.131 OA
ATOM     24  O   UNL     1      -0.490  -4.937  -1.267  0.00  0.00    -0.131 OA
BRANCH  22  29
ATOM     25  C   UNL     1      -0.018   1.503   0.010  0.00  0.00    +0.044 C 
ATOM     26  C   UNL     1       0.002  -0.004   0.002  0.00  0.00    -0.050 A 
ATOM     27  C   UNL     1       0.006  -0.689  -1.199  0.00  0.00    +0.005 A 
ATOM     28  C   UNL     1       0.025  -2.071  -1.206  0.00  0.00    +0.031 A 
ATOM     29  C   UNL     1       0.040  -2.768  -0.013  0.00  0.00    +0.128 A 
ATOM     30  C   UNL     1       0.037  -2.084   1.188  0.00  0.00    +0.031 A 
ATOM     31  C   UNL     1       0.023  -0.702   1.195  0.00  0.00    +0.005 A 
ENDBRANCH  22  29
ENDBRANCH  21  22
ENDBRANCH   1  21
TORSDOF 7
