REMARK  Name = ZINC06551456
REMARK  11 active torsions:
REMARK  status: ('A' for Active; 'I' for Inactive)
REMARK    1  A    between atoms: C_1  and  C_2
REMARK    2  A    between atoms: C_3  and  C_29
REMARK    3  A    between atoms: C_5  and  N_22
REMARK    4  A    between atoms: C_6  and  C_7
REMARK    5  A    between atoms: C_7  and  O_9
REMARK    6  A    between atoms: O_9  and  C_10
REMARK    7  A    between atoms: C_10  and  N_11
REMARK    8  A    between atoms: C_23  and  C_25
REMARK    9  A    between atoms: C_25  and  C_26
REMARK   10  A    between atoms: C_25  and  C_27
REMARK   11  A    between atoms: C_25  and  C_28
REMARK                            x       y       z     vdW  Elec       q    Type
REMARK                         _______ _______ _______ _____ _____    ______ ____
ROOT
ATOM      1  C   UNL     1       1.943  -3.286  -0.034  0.00  0.00    +0.045 C 
ATOM      2  C   UNL     1       0.830  -2.271  -0.018  0.00  0.00    -0.025 A 
ATOM      3  C   UNL     1      -0.462  -2.647  -0.007  0.00  0.00    -0.008 A 
ATOM      4  S   UNL     1      -1.340  -1.098   0.017  0.00  0.00    -0.078 S 
ATOM      5  C   UNL     1       0.002  -0.004   0.002  0.00  0.00    +0.086 A 
ATOM      6  C   UNL     1       1.104  -0.853  -0.013  0.00  0.00    +0.091 A 
ATOM      7  C   UNL     1      -1.028  -4.043  -0.008  0.00  0.00    +0.052 C 
ENDROOT
BRANCH   5   8
ATOM      8  N   UNL     1      -0.017   1.382   0.010  0.00  0.00    -0.279 N 
ATOM      9  C   UNL     1      -1.193   2.040   0.019  0.00  0.00    +0.223 C 
ATOM     10  O   UNL     1      -2.235   1.419   0.020  0.00  0.00    -0.275 OA
ATOM     11  H   UNL     1       0.817   1.878   0.004  0.00  0.00    +0.155 HD
BRANCH   9  12
ATOM     12  C   UNL     1      -1.213   3.547   0.027  0.00  0.00    +0.039 C 
ATOM     13  C   UNL     1      -2.663   4.037   0.037  0.00  0.00    +0.020 C 
ATOM     14  C   UNL     1      -0.493   4.060   1.276  0.00  0.00    +0.020 C 
ATOM     15  C   UNL     1      -0.505   4.073  -1.223  0.00  0.00    +0.020 C 
ENDBRANCH   9  12
ENDBRANCH   5   8
BRANCH   6  16
ATOM     16  C   UNL     1       2.473  -0.335  -0.024  0.00  0.00    +0.343 C 
ATOM     17  O   UNL     1       3.053  -0.125   1.024  0.00  0.00    -0.245 OA
BRANCH  16  18
ATOM     18  O   UNL     1       3.092  -0.090  -1.198  0.00  0.00    -0.441 OA
BRANCH  18  19
ATOM     19  C   UNL     1       4.449   0.422  -1.133  0.00  0.00    +0.353 C 
BRANCH  19  20
ATOM     20  N   UNL     1       5.377  -0.683  -0.883  0.00  0.00    -0.199 N 
ATOM     21  C   UNL     1       5.537  -1.289   0.308  0.00  0.00    +0.256 C 
ATOM     22  O   UNL     1       4.943  -1.011   1.330  0.00  0.00    -0.269 OA
ATOM     23  C   UNL     1       6.554  -2.352   0.163  0.00  0.00    +0.049 A 
ATOM     24  C   UNL     1       7.113  -3.280   1.026  0.00  0.00    +0.014 A 
ATOM     25  C   UNL     1       8.077  -4.160   0.559  0.00  0.00    +0.001 A 
ATOM     26  C   UNL     1       8.484  -4.116  -0.761  0.00  0.00    +0.001 A 
ATOM     27  C   UNL     1       7.934  -3.193  -1.636  0.00  0.00    +0.014 A 
ATOM     28  C   UNL     1       6.969  -2.308  -1.183  0.00  0.00    +0.049 A 
ATOM     29  C   UNL     1       6.187  -1.223  -1.812  0.00  0.00    +0.256 C 
ATOM     30  O   UNL     1       6.262  -0.876  -2.974  0.00  0.00    -0.269 OA
ENDBRANCH  19  20
ENDBRANCH  18  19
ENDBRANCH  16  18
ENDBRANCH   6  16
TORSDOF 6
