REMARK  Name = ZINC21056927
REMARK  13 active torsions:
REMARK  status: ('A' for Active; 'I' for Inactive)
REMARK    1  A    between atoms: C_1  and  C_2
REMARK    2  A    between atoms: C_2  and  C_3
REMARK    3  A    between atoms: C_2  and  C_4
REMARK    4  A    between atoms: C_4  and  N_5
REMARK    5  A    between atoms: C_6  and  N_34
REMARK    6  A    between atoms: C_7  and  N_14
REMARK    7  A    between atoms: N_14  and  C_15
REMARK    8  A    between atoms: C_15  and  C_16
REMARK    9  A    between atoms: C_16  and  C_17
REMARK   10  A    between atoms: C_16  and  C_18
REMARK   11  A    between atoms: C_19  and  C_21
REMARK   12  A    between atoms: C_21  and  S_22
REMARK   13  A    between atoms: S_22  and  C_23
REMARK                            x       y       z     vdW  Elec       q    Type
REMARK                         _______ _______ _______ _____ _____    ______ ____
ROOT
ATOM      1  N   UNL     1      -0.362   0.627   2.585  0.00  0.00    -0.263 N 
ATOM      2  C   UNL     1      -1.010   0.747   1.407  0.00  0.00    +0.230 C 
ATOM      3  O   UNL     1      -2.162   1.128   1.385  0.00  0.00    -0.274 OA
ENDROOT
BRANCH   1   6
ATOM      4  N   UNL     1      -2.006   2.707   5.130  0.00  0.00    -0.280 N 
ATOM      5  C   UNL     1      -1.394   2.341   3.953  0.00  0.00    +0.127 A 
ATOM      6  C   UNL     1      -0.992   1.033   3.781  0.00  0.00    +0.140 A 
ATOM      7  C   UNL     1      -1.224   0.109   4.817  0.00  0.00    +0.277 A 
ATOM      8  O   UNL     1      -0.882  -1.055   4.689  0.00  0.00    -0.266 OA
ATOM      9  N   UNL     1      -1.822   0.520   5.952  0.00  0.00    -0.273 N 
ATOM     10  H   UNL     1      -2.000  -0.194   6.770  0.00  0.00    +0.173 HD
ATOM     11  C   UNL     1      -2.208   1.799   6.102  0.00  0.00    +0.331 A 
ATOM     12  O   UNL     1      -2.750   2.142   7.135  0.00  0.00    -0.246 OA
BRANCH   5  13
ATOM     13  N   UNL     1      -1.187   3.269   2.960  0.00  0.00    -0.343 N 
ATOM     14  H   UNL     1      -0.698   2.970   2.022  0.00  0.00    +0.144 HD
ATOM     15  H   UNL     1      -1.510   4.310   3.104  0.00  0.00    +0.144 HD
ENDBRANCH   5  13
BRANCH   4  16
ATOM     16  C   UNL     1      -2.439   4.093   5.326  0.00  0.00    +0.131 C 
BRANCH  16  18
ATOM     17  C   UNL     1      -4.814   3.409   5.691  0.00  0.00    +0.009 C 
ATOM     18  C   UNL     1      -3.876   4.253   4.826  0.00  0.00    +0.003 C 
ATOM     19  C   UNL     1      -4.285   5.724   4.914  0.00  0.00    +0.009 C 
ENDBRANCH  16  18
ENDBRANCH   4  16
ENDBRANCH   1   6
BRANCH   1  20
ATOM     20  C   UNL     1       0.994   0.075   2.622  0.00  0.00    +0.117 C 
BRANCH  20  21
ATOM     21  C   UNL     1       2.007   1.195   2.377  0.00  0.00    +0.001 C 
ATOM     22  C   UNL     1       1.953   2.194   3.534  0.00  0.00    +0.009 C 
ATOM     23  C   UNL     1       3.413   0.599   2.282  0.00  0.00    +0.009 C 
ENDBRANCH  20  21
ENDBRANCH   1  20
BRANCH   2  24
ATOM     24  C   UNL     1      -0.303   0.409   0.121  0.00  0.00    +0.170 C 
BRANCH  24  25
ATOM     25  S   UNL     1      -1.431   0.671  -1.276  0.00  0.00    -0.115 S 
BRANCH  25  26
ATOM     26  C   UNL     1      -0.469   0.238  -2.688  0.00  0.00    +0.017 A 
ATOM     27  C   UNL     1       0.837  -0.184  -2.538  0.00  0.00    +0.015 A 
ATOM     28  C   UNL     1       1.604  -0.528  -3.646  0.00  0.00    +0.002 A 
ATOM     29  C   UNL     1       1.091  -0.459  -4.906  0.00  0.00    +0.008 A 
ATOM     30  C   UNL     1      -0.234  -0.034  -5.102  0.00  0.00    -0.015 A 
ATOM     31  C   UNL     1      -1.028   0.313  -3.981  0.00  0.00    +0.014 A 
ATOM     32  C   UNL     1      -2.350   0.743  -4.179  0.00  0.00    +0.050 A 
ATOM     33  C   UNL     1      -2.856   0.809  -5.444  0.00  0.00    +0.020 A 
ATOM     34  C   UNL     1      -2.077   0.462  -6.545  0.00  0.00    +0.002 A 
ATOM     35  C   UNL     1      -0.790   0.047  -6.391  0.00  0.00    +0.008 A 
ATOM     36 CL   UNL     1      -3.339   1.180  -2.821  0.00  0.00    -0.083 Cl
ENDBRANCH  25  26
ENDBRANCH  24  25
ENDBRANCH   2  24
TORSDOF 9
