REMARK  Name = ZINC14025782
REMARK  6 active torsions:
REMARK  status: ('A' for Active; 'I' for Inactive)
REMARK    1  A    between atoms: C_8  and  C_10
REMARK    2  A    between atoms: N_12  and  N_13
REMARK    3  A    between atoms: C_14  and  C_16
REMARK    4  A    between atoms: C_16  and  O_17
REMARK    5  A    between atoms: O_17  and  C_18
REMARK    6  A    between atoms: C_23  and  N_24
REMARK                            x       y       z     vdW  Elec       q    Type
REMARK                         _______ _______ _______ _____ _____    ______ ____
ROOT
ATOM      1  N   UNL     1       1.121   3.555   0.010  0.00  0.00    -0.231 N 
ATOM      2  C   UNL     1       2.279   4.244   0.003  0.00  0.00    +0.267 C 
ATOM      3  O   UNL     1       3.337   3.652  -0.010  0.00  0.00    -0.271 OA
ATOM      4  H   UNL     1       0.275   4.028   0.021  0.00  0.00    +0.173 HD
ENDROOT
BRANCH   1   7
ATOM      5  C   UNL     1      -0.018   1.464   0.010  0.00  0.00    +0.268 C 
ATOM      6  O   UNL     1      -1.080   2.058   0.018  0.00  0.00    -0.268 OA
ATOM      7  N   UNL     1       1.140   2.154   0.003  0.00  0.00    -0.230 N 
ATOM      8  H   UNL     1       1.987   1.680  -0.008  0.00  0.00    +0.173 HD
BRANCH   5  16
ATOM      9  C   UNL     1      -1.380  -4.603  -0.009  0.00  0.00    +0.001 A 
ATOM     10  C   UNL     1      -0.035  -4.956  -0.024  0.00  0.00    +0.001 A 
ATOM     11  C   UNL     1       0.927  -3.967  -0.028  0.00  0.00    +0.016 A 
ATOM     12  C   UNL     1       0.541  -2.643  -0.017  0.00  0.00    +0.021 A 
ATOM     13  C   UNL     1      -0.820  -2.255  -0.003  0.00  0.00    +0.008 A 
ATOM     14  C   UNL     1      -1.775  -3.304   0.001  0.00  0.00    +0.010 A 
ATOM     15  C   UNL     1      -1.051  -0.866   0.013  0.00  0.00    +0.068 A 
ATOM     16  C   UNL     1       0.002  -0.004   0.002  0.00  0.00    +0.095 A 
ATOM     17  S   UNL     1       1.413  -1.097  -0.017  0.00  0.00    -0.082 S 
ATOM     18 CL   UNL     1      -2.675  -0.255   0.041  0.00  0.00    -0.082 Cl
ENDBRANCH   5  16
ENDBRANCH   1   7
BRANCH   2  19
ATOM     19  C   UNL     1       2.259   5.751   0.011  0.00  0.00    +0.326 C 
BRANCH  19  20
ATOM     20  O   UNL     1       3.599   6.246   0.001  0.00  0.00    -0.480 OA
BRANCH  20  21
ATOM     21  C   UNL     1       3.759   7.595   0.007  0.00  0.00    +0.151 A 
ATOM     22  C   UNL     1       2.648   8.427   0.016  0.00  0.00    +0.048 A 
ATOM     23  C   UNL     1       2.813   9.798   0.026  0.00  0.00    +0.004 A 
ATOM     24  C   UNL     1       4.084  10.343   0.017  0.00  0.00    +0.002 A 
ATOM     25  C   UNL     1       5.193   9.517   0.003  0.00  0.00    +0.036 A 
ATOM     26  C   UNL     1       5.033   8.144  -0.002  0.00  0.00    +0.168 A 
BRANCH  26  27
ATOM     27  N   UNL     1       6.220   7.260  -0.018  0.00  0.00    +0.060 N 
ATOM     28  O   UNL     1       7.338   7.743  -0.026  0.00  0.00    -0.126 OA
ATOM     29  O   UNL     1       6.079   6.051  -0.023  0.00  0.00    -0.126 OA
ENDBRANCH  26  27
ENDBRANCH  20  21
ENDBRANCH  19  20
ENDBRANCH   2  19
TORSDOF 6
