REMARK  Name = ZINC30972508
REMARK  9 active torsions:
REMARK  status: ('A' for Active; 'I' for Inactive)
REMARK    1  A    between atoms: C_1  and  C_2
REMARK    2  A    between atoms: C_2  and  O_3
REMARK    3  A    between atoms: O_3  and  C_4
REMARK    4  A    between atoms: C_4  and  C_6
REMARK    5  A    between atoms: C_7  and  C_19
REMARK    6  A    between atoms: C_12  and  C_14
REMARK    7  A    between atoms: C_19  and  N_20
REMARK    8  A    between atoms: C_23  and  C_27
REMARK    9  A    between atoms: C_23  and  C_28
REMARK                            x       y       z     vdW  Elec       q    Type
REMARK                         _______ _______ _______ _____ _____    ______ ____
ROOT
ATOM      1  C   UNL     1      -1.487  -2.371  -1.911  0.00  0.00    +0.083 C 
ATOM      2  C   UNL     1      -1.592  -1.116  -1.422  0.00  0.00    +0.042 C 
ATOM      3  N   UNL     1      -2.114  -0.106  -2.179  0.00  0.00    -0.271 N 
ATOM      4  C   UNL     1      -2.542  -0.267  -3.437  0.00  0.00    +0.304 C 
ATOM      5  O   UNL     1      -2.986   0.695  -4.034  0.00  0.00    -0.252 OA
ATOM      6  N   UNL     1      -2.502  -1.460  -4.062  0.00  0.00    -0.285 N 
ATOM      7  C   UNL     1      -1.961  -2.617  -3.329  0.00  0.00    +0.179 C 
ATOM      8  H   UNL     1      -2.200   0.907  -1.759  0.00  0.00    +0.156 HD
ATOM      9  H   UNL     1      -2.860  -1.582  -5.094  0.00  0.00    +0.151 HD
ENDROOT
BRANCH   7  10
ATOM     10  C   UNL     1      -0.800  -3.165  -4.118  0.00  0.00    +0.130 A 
ATOM     11  C   UNL     1      -0.592  -4.461  -4.414  0.00  0.00    +0.047 A 
ATOM     12  C   UNL     1       0.606  -4.522  -5.163  0.00  0.00    +0.041 A 
ATOM     13  C   UNL     1       1.058  -3.261  -5.280  0.00  0.00    +0.195 A 
ATOM     14  O   UNL     1       0.199  -2.442  -4.650  0.00  0.00    -0.466 OA
ENDBRANCH   7  10
BRANCH   1  15
ATOM     15  C   UNL     1      -0.951  -3.419  -1.126  0.00  0.00    +0.339 C 
ATOM     16  O   UNL     1      -0.689  -3.228   0.047  0.00  0.00    -0.245 OA
BRANCH  15  17
ATOM     17  O   UNL     1      -0.731  -4.630  -1.678  0.00  0.00    -0.462 OA
BRANCH  17  19
ATOM     18  C   UNL     1      -0.010  -6.936  -1.624  0.00  0.00    +0.048 C 
ATOM     19  C   UNL     1      -0.189  -5.642  -0.827  0.00  0.00    +0.229 C 
ENDBRANCH  17  19
ENDBRANCH  15  17
ENDBRANCH   1  15
BRANCH   2  20
ATOM     20  C   UNL     1      -1.133  -0.828  -0.016  0.00  0.00    +0.169 C 
BRANCH  20  21
ATOM     21  N   UNL     1      -0.821   0.598   0.113  0.00  0.00    -0.218 N 
ATOM     22  C   UNL     1      -1.713   1.538   0.482  0.00  0.00    +0.251 C 
ATOM     23  O   UNL     1      -2.882   1.370   0.756  0.00  0.00    -0.272 OA
ATOM     24  C   UNL     1      -0.953   2.849   0.477  0.00  0.00    +0.135 C 
ATOM     25  N   UNL     1       0.407   2.459   0.068  0.00  0.00    -0.281 N 
ATOM     26  C   UNL     1       0.385   1.128  -0.122  0.00  0.00    +0.310 C 
ATOM     27  O   UNL     1       1.353   0.478  -0.468  0.00  0.00    -0.252 OA
ATOM     28  C   UNL     1      -1.562   3.821  -0.535  0.00  0.00    +0.047 C 
ATOM     29  H   UNL     1       1.194   3.223  -0.025  0.00  0.00    +0.152 HD
BRANCH  24  30
ATOM     30  C   UNL     1      -0.937   3.458   1.856  0.00  0.00    -0.013 A 
ATOM     31  C   UNL     1       0.129   4.245   2.251  0.00  0.00    +0.009 A 
ATOM     32  C   UNL     1       0.145   4.804   3.515  0.00  0.00    +0.041 A 
ATOM     33  C   UNL     1      -0.906   4.578   4.386  0.00  0.00    +0.158 A 
ATOM     34  C   UNL     1      -1.975   3.789   3.990  0.00  0.00    +0.159 A 
ATOM     35  C   UNL     1      -1.991   3.234   2.721  0.00  0.00    +0.047 A 
ATOM     36  F   UNL     1      -3.002   3.566   4.838  0.00  0.00    -0.202 F 
ATOM     37  F   UNL     1      -0.890   5.125   5.621  0.00  0.00    -0.202 F 
ENDBRANCH  24  30
ENDBRANCH  20  21
ENDBRANCH   2  20
TORSDOF 7
