REMARK  Name = ZINC36601367
REMARK  13 active torsions:
REMARK  status: ('A' for Active; 'I' for Inactive)
REMARK    1  A    between atoms: C_1  and  C_2
REMARK    2  A    between atoms: C_5  and  C_7
REMARK    3  A    between atoms: C_7  and  N_8
REMARK    4  A    between atoms: N_8  and  C_9
REMARK    5  A    between atoms: C_9  and  C_11
REMARK    6  A    between atoms: C_9  and  C_18
REMARK    7  A    between atoms: C_16  and  O_17
REMARK    8  A    between atoms: N_20  and  C_21
REMARK    9  A    between atoms: C_21  and  C_22
REMARK   10  A    between atoms: C_21  and  C_23
REMARK   11  A    between atoms: C_21  and  C_24
REMARK   12  A    between atoms: C_25  and  C_27
REMARK   13  A    between atoms: C_31  and  N_33
REMARK                            x       y       z     vdW  Elec       q    Type
REMARK                         _______ _______ _______ _____ _____    ______ ____
ROOT
ATOM      1  N   UNL     1       1.970  -3.735  -2.318  0.00  0.00    -0.274 N 
ATOM      2  C   UNL     1       2.052  -4.738  -3.214  0.00  0.00    +0.248 C 
ATOM      3  O   UNL     1       2.999  -4.799  -3.973  0.00  0.00    -0.270 OA
ENDROOT
BRANCH   2   4
ATOM      4  C   UNL     1       0.989  -5.763  -3.275  0.00  0.00    +0.039 A 
ATOM      5  C   UNL     1       0.060  -5.872  -2.239  0.00  0.00    +0.013 A 
ATOM      6  C   UNL     1      -0.930  -6.831  -2.302  0.00  0.00    +0.003 A 
ATOM      7  C   UNL     1      -1.003  -7.684  -3.389  0.00  0.00    +0.033 A 
ATOM      8  C   UNL     1      -0.085  -7.582  -4.419  0.00  0.00    +0.127 A 
ATOM      9  C   UNL     1       0.906  -6.623  -4.371  0.00  0.00    +0.045 A 
BRANCH   8  10
ATOM     10  N   UNL     1      -0.170  -8.499  -5.578  0.00  0.00    +0.056 N 
ATOM     11  O   UNL     1      -1.041  -9.336  -5.623  0.00  0.00    -0.126 OA
ATOM     12  O   UNL     1       0.631  -8.411  -6.479  0.00  0.00    -0.126 OA
ENDBRANCH   8  10
ENDBRANCH   2   4
BRANCH   1  13
ATOM     13  C   UNL     1       0.675  -3.382  -1.730  0.00  0.00    +0.183 C 
BRANCH  13  18
ATOM     14  C   UNL     1       1.161  -6.169   2.446  0.00  0.00    +0.086 C 
ATOM     15  C   UNL     1       0.865  -5.005   1.536  0.00  0.00    +0.102 A 
ATOM     16  C   UNL     1       0.407  -3.801   1.922  0.00  0.00    +0.045 A 
ATOM     17  C   UNL     1       0.271  -3.019   0.752  0.00  0.00    +0.046 A 
ATOM     18  C   UNL     1       0.654  -3.793  -0.280  0.00  0.00    +0.122 A 
ATOM     19  O   UNL     1       1.018  -4.993   0.202  0.00  0.00    -0.463 OA
ENDBRANCH  13  18
ENDBRANCH   1  13
BRANCH   1  20
ATOM     20  C   UNL     1       3.175  -2.997  -1.932  0.00  0.00    +0.196 C 
BRANCH  20  21
ATOM     21  C   UNL     1       3.477  -3.254  -0.478  0.00  0.00    +0.023 A 
ATOM     22  C   UNL     1       3.447  -2.211   0.429  0.00  0.00    +0.009 A 
ATOM     23  C   UNL     1       3.725  -2.446   1.763  0.00  0.00    +0.001 A 
ATOM     24  C   UNL     1       4.032  -3.724   2.193  0.00  0.00    +0.004 A 
ATOM     25  C   UNL     1       4.062  -4.769   1.291  0.00  0.00    +0.046 A 
ATOM     26  C   UNL     1       3.779  -4.537  -0.048  0.00  0.00    +0.122 A 
BRANCH  26  27
ATOM     27  O   UNL     1       3.803  -5.565  -0.936  0.00  0.00    -0.506 OA
ATOM     28  H   UNL     1       4.683  -5.762  -1.286  0.00  0.00    +0.292 HD
ENDBRANCH  26  27
ENDBRANCH  20  21
BRANCH  20  29
ATOM     29  C   UNL     1       2.952  -1.522  -2.146  0.00  0.00    +0.239 C 
ATOM     30  O   UNL     1       1.833  -1.061  -2.069  0.00  0.00    -0.273 OA
ATOM     31  N   UNL     1       3.996  -0.716  -2.424  0.00  0.00    -0.309 N 
ATOM     32  H   UNL     1       4.889  -1.087  -2.496  0.00  0.00    +0.149 HD
BRANCH  31  33
ATOM     33  C   UNL     1       3.781   0.720  -2.618  0.00  0.00    +0.026 C 
ATOM     34  C   UNL     1       3.177   1.321  -1.347  0.00  0.00    +0.031 C 
ATOM     35  C   UNL     1       5.118   1.400  -2.918  0.00  0.00    +0.031 C 
ATOM     36  C   UNL     1       2.823   0.939  -3.790  0.00  0.00    +0.031 C 
ENDBRANCH  31  33
ENDBRANCH  20  29
ENDBRANCH   1  20
TORSDOF 9
