REMARK  Name = ZINC64980401
REMARK  4 active torsions:
REMARK  status: ('A' for Active; 'I' for Inactive)
REMARK    1  A    between atoms: C_4  and  C_7
REMARK    2  A    between atoms: C_16  and  C_18
REMARK    3  A    between atoms: C_18  and  C_19
REMARK    4  A    between atoms: C_19  and  C_20
REMARK                            x       y       z     vdW  Elec       q    Type
REMARK                         _______ _______ _______ _____ _____    ______ ____
ROOT
ATOM      1  C   UNL     1       3.695  -0.684  -0.038  0.00  0.00    +0.186 A 
ATOM      2  N   UNL     1       4.868  -0.162  -0.317  0.00  0.00    -0.126 NA
ATOM      3  N   UNL     1       5.780  -1.067  -0.239  0.00  0.00    -0.120 NA
ATOM      4  C   UNL     1       5.238  -2.204   0.089  0.00  0.00    +0.220 A 
ATOM      5  N   UNL     1       3.887  -2.029   0.243  0.00  0.00    -0.184 N 
ATOM      6  N   UNL     1       3.152  -3.151   0.602  0.00  0.00    -0.140 NA
ATOM      7  C   UNL     1       3.729  -4.308   0.786  0.00  0.00    +0.188 A 
ATOM      8  S   UNL     1       5.442  -3.931   0.448  0.00  0.00    -0.011 S 
ATOM      9  N   UNL     1       3.157  -5.522   1.144  0.00  0.00    -0.263 N 
ATOM     10  C   UNL     1       3.932  -6.617   1.286  0.00  0.00    +0.219 C 
ATOM     11  O   UNL     1       5.128  -6.541   1.100  0.00  0.00    -0.275 OA
ATOM     12  H   UNL     1       2.201  -5.583   1.293  0.00  0.00    +0.157 HD
ENDROOT
BRANCH   1  16
ATOM     13  C   UNL     1      -0.017   1.379   0.010  0.00  0.00    +0.000 A 
ATOM     14  C   UNL     1       1.168   2.094   0.002  0.00  0.00    +0.001 A 
ATOM     15  C   UNL     1       2.377   1.430  -0.013  0.00  0.00    +0.011 A 
ATOM     16  C   UNL     1       2.404   0.034  -0.021  0.00  0.00    +0.021 A 
ATOM     17  C   UNL     1       1.204  -0.681  -0.013  0.00  0.00    +0.011 A 
ATOM     18  C   UNL     1       0.002  -0.004   0.002  0.00  0.00    +0.001 A 
ENDBRANCH   1  16
BRANCH  10  19
ATOM     19  C   UNL     1       3.311  -7.934   1.675  0.00  0.00    +0.096 C 
BRANCH  19  20
ATOM     20  C   UNL     1       4.401  -9.004   1.766  0.00  0.00    +0.013 C 
BRANCH  20  21
ATOM     21  C   UNL     1       3.771 -10.341   2.160  0.00  0.00    -0.011 C 
ATOM     22  C   UNL     1       2.919 -10.904   0.996  0.00  0.00    +0.003 C 
ATOM     23  C   UNL     1       2.887 -12.423   1.299  0.00  0.00    +0.000 C 
ATOM     24  C   UNL     1       4.301 -12.732   1.833  0.00  0.00    +0.000 C 
ATOM     25  C   UNL     1       4.863 -11.408   2.381  0.00  0.00    +0.003 C 
ENDBRANCH  20  21
ENDBRANCH  19  20
ENDBRANCH  10  19
TORSDOF 4
