REMARK  Name = ZINC16843888
REMARK  5 active torsions:
REMARK  status: ('A' for Active; 'I' for Inactive)
REMARK    1  A    between atoms: C_4  and  C_7
REMARK    2  A    between atoms: C_7  and  O_8
REMARK    3  A    between atoms: O_8  and  C_9
REMARK    4  A    between atoms: C_9  and  C_11
REMARK    5  A    between atoms: C_14  and  C_17
REMARK                            x       y       z     vdW  Elec       q    Type
REMARK                         _______ _______ _______ _____ _____    ______ ____
ROOT
ATOM      1  C   UNL     1       1.186   1.792   0.000  0.00  0.00    +0.059 A 
ATOM      2  C   UNL     1      -0.013   1.076   0.008  0.00  0.00    +0.015 A 
ATOM      3  C   UNL     1      -1.216   1.751   0.017  0.00  0.00    +0.007 A 
ATOM      4  C   UNL     1      -1.236   3.134   0.029  0.00  0.00    -0.011 A 
ATOM      5  C   UNL     1      -0.052   3.850   0.022  0.00  0.00    +0.007 A 
ATOM      6  C   UNL     1       1.158   3.188   0.008  0.00  0.00    +0.015 A 
ENDROOT
BRANCH   4   7
ATOM      7  C   UNL     1      -2.554   3.865   0.045  0.00  0.00    +0.191 C 
ATOM      8  N   UNL     1      -2.403   5.133   0.754  0.00  0.00    -0.322 N 
ATOM      9  C   UNL     1      -2.199   5.221   2.129  0.00  0.00    +0.055 A 
ATOM     10  C   UNL     1      -1.641   6.387   2.651  0.00  0.00    +0.025 A 
ATOM     11  C   UNL     1      -1.457   6.519   4.012  0.00  0.00    +0.002 A 
ATOM     12  C   UNL     1      -1.825   5.497   4.868  0.00  0.00    +0.002 A 
ATOM     13  C   UNL     1      -2.373   4.334   4.356  0.00  0.00    +0.030 A 
ATOM     14  C   UNL     1      -2.554   4.197   2.996  0.00  0.00    +0.126 A 
ATOM     15  S   UNL     1      -3.243   2.704   2.346  0.00  0.00    +0.062 S 
ATOM     16  O   UNL     1      -4.495   2.510   2.989  0.00  0.00    -0.153 OA
ATOM     17  O   UNL     1      -2.210   1.729   2.361  0.00  0.00    -0.153 OA
ATOM     18  N   UNL     1      -3.565   3.047   0.745  0.00  0.00    -0.166 NA
ATOM     19  H   UNL     1      -2.448   5.955   0.242  0.00  0.00    +0.148 HD
ATOM     20  H   UNL     1      -4.368   2.730   0.302  0.00  0.00    +0.150 HD
ENDBRANCH   4   7
BRANCH   1  21
ATOM     21  C   UNL     1       2.478   1.076  -0.016  0.00  0.00    +0.339 C 
ATOM     22  O   UNL     1       2.499  -0.139  -0.022  0.00  0.00    -0.245 OA
BRANCH  21  23
ATOM     23  O   UNL     1       3.633   1.770  -0.023  0.00  0.00    -0.456 OA
BRANCH  23  24
ATOM     24  C   UNL     1       4.864   1.000  -0.039  0.00  0.00    +0.268 C 
BRANCH  24  28
ATOM     25  C   UNL     1       8.206   3.661  -0.057  0.00  0.00    +0.000 A 
ATOM     26  C   UNL     1       7.676   3.225   1.143  0.00  0.00    +0.000 A 
ATOM     27  C   UNL     1       6.595   2.364   1.149  0.00  0.00    +0.007 A 
ATOM     28  C   UNL     1       6.043   1.939  -0.045  0.00  0.00    -0.010 A 
ATOM     29  C   UNL     1       6.576   2.372  -1.245  0.00  0.00    +0.007 A 
ATOM     30  C   UNL     1       7.654   3.236  -1.251  0.00  0.00    +0.000 A 
ENDBRANCH  24  28
ENDBRANCH  23  24
ENDBRANCH  21  23
ENDBRANCH   1  21
TORSDOF 5
