REMARK  Name = ZINC21598330
REMARK  11 active torsions:
REMARK  status: ('A' for Active; 'I' for Inactive)
REMARK    1  A    between atoms: C_1  and  C_2
REMARK    2  A    between atoms: C_2  and  N_3
REMARK    3  A    between atoms: N_6  and  C_9
REMARK    4  A    between atoms: C_12  and  S_28
REMARK    5  A    between atoms: C_14  and  N_15
REMARK    6  A    between atoms: C_16  and  C_18
REMARK    7  A    between atoms: S_28  and  N_31
REMARK    8  A    between atoms: N_31  and  C_32
REMARK    9  A    between atoms: N_31  and  C_34
REMARK   10  A    between atoms: C_32  and  C_33
REMARK   11  A    between atoms: C_34  and  C_35
REMARK                            x       y       z     vdW  Elec       q    Type
REMARK                         _______ _______ _______ _____ _____    ______ ____
ROOT
ATOM      1  C   UNL     1      -4.902   4.468   4.153  0.00  0.00    +0.051 A 
ATOM      2  C   UNL     1      -3.922   5.408   3.873  0.00  0.00    +0.027 A 
ATOM      3  C   UNL     1      -3.055   5.208   2.815  0.00  0.00    +0.030 A 
ATOM      4  C   UNL     1      -3.161   4.072   2.034  0.00  0.00    +0.107 A 
ATOM      5  C   UNL     1      -4.139   3.132   2.303  0.00  0.00    +0.053 A 
ATOM      6  C   UNL     1      -5.009   3.322   3.365  0.00  0.00    +0.057 A 
ENDROOT
BRANCH   1  10
ATOM      7  N   UNL     1      -6.885   6.097   7.424  0.00  0.00    +0.382 N 
ATOM      8  C   UNL     1      -6.049   4.909   7.645  0.00  0.00    -0.060 C 
ATOM      9  C   UNL     1      -5.050   4.770   6.494  0.00  0.00    +0.086 C 
ATOM     10  N   UNL     1      -5.781   4.668   5.223  0.00  0.00    -0.332 N 
ATOM     11  C   UNL     1      -6.617   5.856   5.003  0.00  0.00    +0.086 C 
ATOM     12  C   UNL     1      -7.616   5.995   6.154  0.00  0.00    -0.060 C 
ATOM     13  H   UNL     1      -6.221   6.973   7.365  0.00  0.00    -0.082 HD
BRANCH   7  15
ATOM     14  C   UNL     1      -8.479   7.675   8.407  0.00  0.00    -0.017 C 
ATOM     15  C   UNL     1      -7.808   6.308   8.548  0.00  0.00    -0.082 C 
ENDBRANCH   7  15
ENDBRANCH   1  10
BRANCH   6  16
ATOM     16  N   UNL     1      -5.997   2.368   3.643  0.00  0.00    -0.281 N 
ATOM     17  C   UNL     1      -6.589   1.697   2.635  0.00  0.00    +0.258 C 
ATOM     18  O   UNL     1      -6.210   1.859   1.494  0.00  0.00    -0.271 OA
ATOM     19  H   UNL     1      -6.290   2.166   4.684  0.00  0.00    +0.155 HD
BRANCH  17  20
ATOM     20  C   UNL     1      -7.720   0.744   2.925  0.00  0.00    +0.263 C 
ATOM     21  C   UNL     1      -8.989   1.516   3.357  0.00  0.00    +0.093 C 
ATOM     22  C   UNL     1      -9.717   1.687   2.038  0.00  0.00    -0.002 A 
ATOM     23  C   UNL     1     -10.752   2.510   1.652  0.00  0.00    +0.007 A 
ATOM     24  C   UNL     1     -11.218   2.471   0.351  0.00  0.00    +0.000 A 
ATOM     25  C   UNL     1     -10.643   1.603  -0.559  0.00  0.00    +0.004 A 
ATOM     26  C   UNL     1      -9.609   0.774  -0.174  0.00  0.00    +0.046 A 
ATOM     27  C   UNL     1      -9.136   0.805   1.136  0.00  0.00    +0.125 A 
ATOM     28  O   UNL     1      -8.146   0.079   1.724  0.00  0.00    -0.479 OA
ENDBRANCH  17  20
ENDBRANCH   6  16
BRANCH   4  29
ATOM     29  S   UNL     1      -2.052   3.825   0.688  0.00  0.00    +0.061 S 
ATOM     30  O   UNL     1      -1.584   5.112   0.306  0.00  0.00    -0.153 OA
ATOM     31  O   UNL     1      -2.706   2.952  -0.223  0.00  0.00    -0.153 OA
BRANCH  29  32
ATOM     32  N   UNL     1      -0.742   3.001   1.277  0.00  0.00    -0.177 NA
BRANCH  32  33
ATOM     33  C   UNL     1      -0.735   1.536   1.268  0.00  0.00    +0.106 C 
ATOM     34  C   UNL     1      -0.022   1.037   0.009  0.00  0.00    +0.022 C 
ENDBRANCH  32  33
BRANCH  32  35
ATOM     35  C   UNL     1       0.408   3.736   1.807  0.00  0.00    +0.106 C 
ATOM     36  C   UNL     1       1.462   3.894   0.709  0.00  0.00    +0.022 C 
ENDBRANCH  32  35
ENDBRANCH  29  32
ENDBRANCH   4  29
TORSDOF 8
