REMARK  Name = ZINC13500161
REMARK  11 active torsions:
REMARK  status: ('A' for Active; 'I' for Inactive)
REMARK    1  A    between atoms: C_1  and  C_2
REMARK    2  A    between atoms: C_2  and  C_3
REMARK    3  A    between atoms: C_3  and  C_4
REMARK    4  A    between atoms: C_4  and  C_6
REMARK    5  A    between atoms: C_4  and  N_73
REMARK    6  A    between atoms: N_10  and  C_11
REMARK    7  A    between atoms: C_11  and  C_12
REMARK    8  A    between atoms: C_18  and  C_19
REMARK    9  A    between atoms: C_18  and  N_73
REMARK   10  A    between atoms: C_23  and  C_31
REMARK   11  A    between atoms: C_32  and  N_73
REMARK                            x       y       z     vdW  Elec       q    Type
REMARK                         _______ _______ _______ _____ _____    ______ ____
ROOT
ATOM      1  N   UNL     1      -2.634   1.834   2.198  0.00  0.00    +0.391 N 
ATOM      2  H   UNL     1      -3.608   1.611   1.959  0.00  0.00    -0.080 HD
ENDROOT
BRANCH   1   3
ATOM      3  C   UNL     1      -1.745   1.281   1.155  0.00  0.00    -0.067 C 
ATOM      4  C   UNL     1      -2.035  -0.213   0.999  0.00  0.00    -0.015 C 
ATOM      5  C   UNL     1      -1.138  -0.796  -0.095  0.00  0.00    -0.002 C 
ATOM      6  C   UNL     1       0.330  -0.599   0.292  0.00  0.00    -0.000 C 
ATOM      7  C   UNL     1       0.620   0.895   0.448  0.00  0.00    -0.002 C 
ATOM      8  C   UNL     1      -0.278   1.478   1.541  0.00  0.00    -0.015 C 
ENDBRANCH   1   3
BRANCH   1   9
ATOM      9  C   UNL     1      -2.312   1.231   3.509  0.00  0.00    +0.003 C 
BRANCH   9  10
ATOM     10  C   UNL     1      -1.040   1.821   4.062  0.00  0.00    +0.138 A 
ATOM     11  N   UNL     1      -0.660   3.073   3.985  0.00  0.00    -0.115 NA
ATOM     12  N   UNL     1       0.480   3.179   4.577  0.00  0.00    -0.023 NA
ATOM     13  N   UNL     1       0.836   2.028   5.029  0.00  0.00    -0.044 NA
ATOM     14  N   UNL     1      -0.077   1.165   4.736  0.00  0.00    -0.228 N 
BRANCH  14  15
ATOM     15  C   UNL     1      -0.066  -0.261   5.071  0.00  0.00    +0.178 C 
BRANCH  15  16
ATOM     16  C   UNL     1       0.729  -1.028   4.012  0.00  0.00    +0.140 C 
ATOM     17  C   UNL     1       0.670  -2.542   4.308  0.00  0.00    +0.035 C 
ATOM     18  C   UNL     1       2.112  -3.002   3.962  0.00  0.00    +0.031 C 
ATOM     19  C   UNL     1       2.929  -1.758   4.394  0.00  0.00    +0.160 C 
ATOM     20  O   UNL     1       2.105  -0.632   4.056  0.00  0.00    -0.375 OA
ENDBRANCH  15  16
ENDBRANCH  14  15
ENDBRANCH   9  10
BRANCH   9  21
ATOM     21  C   UNL     1      -3.465   1.508   4.474  0.00  0.00    -0.008 C 
BRANCH  21  23
ATOM     22  C   UNL     1      -5.907   1.169   4.878  0.00  0.00    +0.004 C 
ATOM     23  C   UNL     1      -4.725   0.793   3.983  0.00  0.00    -0.005 C 
ENDBRANCH  21  23
ENDBRANCH   9  21
ENDBRANCH   1   9
BRANCH   1  24
ATOM     24  C   UNL     1      -2.481   3.302   2.266  0.00  0.00    -0.036 C 
BRANCH  24  25
ATOM     25  C   UNL     1      -3.249   3.921   1.127  0.00  0.00    +0.001 A 
ATOM     26  C   UNL     1      -4.529   4.328   1.318  0.00  0.00    +0.017 A 
ATOM     27  C   UNL     1      -5.246   4.929   0.192  0.00  0.00    -0.001 A 
ATOM     28  C   UNL     1      -6.566   5.373   0.329  0.00  0.00    +0.013 A 
ATOM     29  C   UNL     1      -7.209   5.926  -0.742  0.00  0.00    -0.050 A 
ATOM     30  C   UNL     1      -6.564   6.052  -1.965  0.00  0.00    +0.005 A 
ATOM     31  C   UNL     1      -5.265   5.622  -2.123  0.00  0.00    +0.026 A 
ATOM     32  C   UNL     1      -4.590   5.055  -1.046  0.00  0.00    +0.049 A 
ATOM     33  N   UNL     1      -3.289   4.617  -1.176  0.00  0.00    -0.322 N 
ATOM     34  H   UNL     1      -2.838   4.705  -2.030  0.00  0.00    +0.169 HD
ATOM     35  C   UNL     1      -2.636   4.070  -0.135  0.00  0.00    +0.251 A 
ATOM     36  O   UNL     1      -1.487   3.693  -0.286  0.00  0.00    -0.268 OA
ATOM     37  C   UNL     1      -8.630   6.404  -0.594  0.00  0.00    +0.044 C 
ENDBRANCH  24  25
ENDBRANCH   1  24
TORSDOF 9
