REMARK  Name = ZINC59830394
REMARK  9 active torsions:
REMARK  status: ('A' for Active; 'I' for Inactive)
REMARK    1  A    between atoms: C_1  and  C_2
REMARK    2  A    between atoms: C_2  and  C_26
REMARK    3  A    between atoms: N_3  and  N_4
REMARK    4  A    between atoms: C_7  and  S_10
REMARK    5  A    between atoms: S_10  and  C_11
REMARK    6  A    between atoms: C_11  and  C_12
REMARK    7  A    between atoms: N_14  and  C_15
REMARK    8  A    between atoms: C_16  and  C_24
REMARK    9  A    between atoms: C_31  and  O_32
REMARK                            x       y       z     vdW  Elec       q    Type
REMARK                         _______ _______ _______ _____ _____    ______ ____
ROOT
ATOM      1  N   UNL     1       0.024   0.035   2.340  0.00  0.00    -0.205 N 
ATOM      2  C   UNL     1       0.044  -0.663   3.533  0.00  0.00    +0.232 A 
ATOM      3  N   UNL     1       0.069  -1.973   3.664  0.00  0.00    -0.186 NA
ATOM      4  C   UNL     1       0.085  -2.295   4.962  0.00  0.00    +0.211 A 
ATOM      5  N   UNL     1       0.070  -1.194   5.675  0.00  0.00    -0.144 NA
ATOM      6  N   UNL     1       0.049  -0.121   4.770  0.00  0.00    -0.245 N 
ATOM      7  H   UNL     1       0.011   1.005   2.345  0.00  0.00    +0.177 HD
ATOM      8  H   UNL     1       0.038   0.824   4.990  0.00  0.00    +0.192 HD
ENDROOT
BRANCH   1  11
ATOM      9  C   UNL     1      -0.018   1.503   0.010  0.00  0.00    +0.068 C 
ATOM     10  C   UNL     1       0.002  -0.004   0.002  0.00  0.00    +0.067 C 
ATOM     11  N   UNL     1       0.022  -0.659   1.123  0.00  0.00    -0.184 NA
BRANCH  10  12
ATOM     12  C   UNL     1      -0.000  -0.734  -1.278  0.00  0.00    +0.039 A 
ATOM     13  C   UNL     1      -0.015  -0.033  -2.486  0.00  0.00    +0.013 A 
ATOM     14  C   UNL     1      -0.017  -0.722  -3.681  0.00  0.00    +0.001 A 
ATOM     15  C   UNL     1      -0.005  -2.107  -3.688  0.00  0.00    +0.004 A 
ATOM     16  C   UNL     1       0.010  -2.812  -2.499  0.00  0.00    +0.046 A 
ATOM     17  C   UNL     1       0.019  -2.135  -1.291  0.00  0.00    +0.126 A 
BRANCH  17  18
ATOM     18  O   UNL     1       0.040  -2.827  -0.122  0.00  0.00    -0.506 OA
ATOM     19  H   UNL     1      -0.837  -3.040   0.225  0.00  0.00    +0.292 HD
ENDBRANCH  17  18
ENDBRANCH  10  12
ENDBRANCH   1  11
BRANCH   4  20
ATOM     20  S   UNL     1       0.119  -3.934   5.609  0.00  0.00    -0.075 S 
BRANCH  20  21
ATOM     21  C   UNL     1       0.128  -3.695   7.407  0.00  0.00    +0.173 C 
BRANCH  21  22
ATOM     22  C   UNL     1       0.158  -5.037   8.092  0.00  0.00    +0.228 C 
ATOM     23  O   UNL     1       0.172  -6.054   7.432  0.00  0.00    -0.275 OA
ATOM     24  N   UNL     1       0.169  -5.107   9.438  0.00  0.00    -0.278 N 
ATOM     25  H   UNL     1       0.158  -4.293   9.966  0.00  0.00    +0.155 HD
BRANCH  24  26
ATOM     26  C   UNL     1       0.196  -6.343  10.069  0.00  0.00    +0.090 A 
ATOM     27  C   UNL     1       0.205  -6.605  11.429  0.00  0.00    +0.084 A 
ATOM     28  C   UNL     1       0.235  -7.998  11.837  0.00  0.00    -0.018 A 
ATOM     29  C   UNL     1       0.250  -8.875  10.809  0.00  0.00    -0.004 A 
ATOM     30  S   UNL     1       0.218  -7.864   9.358  0.00  0.00    -0.077 S 
ATOM     31  C   UNL     1       0.282 -10.369  10.902  0.00  0.00    +0.043 C 
ATOM     32  C   UNL     1       0.675 -10.754  12.336  0.00  0.00    +0.005 C 
ATOM     33  C   UNL     1      -0.175  -9.944  13.318  0.00  0.00    +0.005 C 
ATOM     34  C   UNL     1       0.247  -8.473  13.283  0.00  0.00    +0.037 C 
BRANCH  27  35
ATOM     35  C   UNL     1       0.187  -5.545  12.392  0.00  0.00    +0.102 C 
ATOM     36  N   UNL     1       0.173  -4.705  13.156  0.00  0.00    -0.191 NA
ENDBRANCH  27  35
ENDBRANCH  24  26
ENDBRANCH  21  22
ENDBRANCH  20  21
ENDBRANCH   4  20
TORSDOF 8
