REMARK  Name = ZINC66925278
REMARK  7 active torsions:
REMARK  status: ('A' for Active; 'I' for Inactive)
REMARK    1  A    between atoms: C_1  and  C_2
REMARK    2  A    between atoms: C_2  and  C_4
REMARK    3  A    between atoms: C_2  and  N_13
REMARK    4  A    between atoms: C_8  and  N_10
REMARK    5  A    between atoms: N_16  and  C_17
REMARK    6  A    between atoms: C_17  and  C_18
REMARK    7  A    between atoms: C_18  and  O_28
REMARK                            x       y       z     vdW  Elec       q    Type
REMARK                         _______ _______ _______ _____ _____    ______ ____
ROOT
ATOM      1  N   UNL     1      -1.603  -0.023   0.058  0.00  0.00    -0.293 N 
ATOM      2  C   UNL     1      -2.220  -0.285  -1.112  0.00  0.00    +0.300 C 
ATOM      3  O   UNL     1      -1.728   0.095  -2.157  0.00  0.00    -0.253 OA
ATOM      4  N   UNL     1      -3.382  -0.968  -1.122  0.00  0.00    -0.296 N 
ATOM      5  H   UNL     1      -1.994  -0.326   0.891  0.00  0.00    +0.151 HD
ATOM      6  H   UNL     1      -3.774  -1.270  -0.288  0.00  0.00    +0.150 HD
ENDROOT
BRANCH   1   8
ATOM      7  C   UNL     1      -0.630   2.221   0.054  0.00  0.00    +0.033 C 
ATOM      8  C   UNL     1      -0.339   0.719   0.069  0.00  0.00    +0.102 C 
BRANCH   8   9
ATOM      9  C   UNL     1       0.437   0.370   1.312  0.00  0.00    -0.025 A 
ATOM     10  C   UNL     1      -0.221   0.213   2.518  0.00  0.00    +0.005 A 
ATOM     11  C   UNL     1       0.491  -0.107   3.658  0.00  0.00    +0.003 A 
ATOM     12  C   UNL     1       1.862  -0.271   3.593  0.00  0.00    +0.033 A 
ATOM     13  C   UNL     1       2.521  -0.116   2.388  0.00  0.00    +0.127 A 
ATOM     14  C   UNL     1       1.808   0.200   1.246  0.00  0.00    +0.038 A 
BRANCH  13  15
ATOM     15  N   UNL     1       3.989  -0.292   2.318  0.00  0.00    +0.056 N 
ATOM     16  O   UNL     1       4.612  -0.571   3.316  0.00  0.00    -0.126 OA
ATOM     17  O   UNL     1       4.565  -0.156   1.264  0.00  0.00    -0.126 OA
ENDBRANCH  13  15
ENDBRANCH   8   9
ENDBRANCH   1   8
BRANCH   4  18
ATOM     18  C   UNL     1      -4.053  -1.252  -2.393  0.00  0.00    +0.145 C 
BRANCH  18  19
ATOM     19  C   UNL     1      -5.405  -1.913  -2.119  0.00  0.00    +0.107 C 
ATOM     20  C   UNL     1      -6.243  -0.995  -1.230  0.00  0.00    +0.041 C 
ATOM     21  C   UNL     1      -7.663  -1.567  -1.147  0.00  0.00    +0.008 C 
ATOM     22  C   UNL     1      -8.333  -1.394  -2.509  0.00  0.00    +0.035 C 
ATOM     23  C   UNL     1      -7.452  -1.935  -3.604  0.00  0.00    -0.041 A 
ATOM     24  C   UNL     1      -6.107  -2.169  -3.426  0.00  0.00    -0.011 A 
ATOM     25  C   UNL     1      -5.350  -2.663  -4.481  0.00  0.00    +0.007 A 
ATOM     26  C   UNL     1      -5.935  -2.923  -5.703  0.00  0.00    +0.000 A 
ATOM     27  C   UNL     1      -7.286  -2.691  -5.880  0.00  0.00    +0.000 A 
ATOM     28  C   UNL     1      -8.040  -2.199  -4.835  0.00  0.00    +0.004 A 
BRANCH  19  29
ATOM     29  O   UNL     1      -5.195  -3.155  -1.445  0.00  0.00    -0.382 OA
ATOM     30  H   UNL     1      -4.662  -3.789  -1.946  0.00  0.00    +0.211 HD
ENDBRANCH  19  29
ENDBRANCH  18  19
ENDBRANCH   4  18
TORSDOF 6
