REMARK  Name = ZINC20332085
REMARK  3 active torsions:
REMARK  status: ('A' for Active; 'I' for Inactive)
REMARK    1  A    between atoms: C_12  and  C_15
REMARK    2  A    between atoms: C_15  and  C_16
REMARK    3  A    between atoms: N_21  and  C_24
REMARK                            x       y       z     vdW  Elec       q    Type
REMARK                         _______ _______ _______ _____ _____    ______ ____
ROOT
ATOM      1  C   UNL     1      -0.017   1.379   0.010  0.00  0.00    +0.000 A 
ATOM      2  C   UNL     1       1.173   2.084   0.002  0.00  0.00    +0.002 A 
ATOM      3  C   UNL     1       2.379   1.414  -0.013  0.00  0.00    +0.023 A 
ATOM      4  C   UNL     1       2.407   0.021  -0.021  0.00  0.00    +0.039 A 
ATOM      5  C   UNL     1       1.203  -0.677  -0.012  0.00  0.00    +0.003 A 
ATOM      6  C   UNL     1       0.002  -0.004   0.002  0.00  0.00    +0.008 A 
ATOM      7  C   UNL     1       1.575  -2.132  -0.021  0.00  0.00    +0.136 C 
ATOM      8  C   UNL     1       0.962  -2.889  -1.181  0.00  0.00    +0.123 C 
ATOM      9  C   UNL     1       1.173  -4.340  -0.596  0.00  0.00    +0.108 C 
ATOM     10  C   UNL     1       0.690  -4.230   0.787  0.00  0.00    +0.076 C 
ATOM     11  N   UNL     1       1.048  -2.819   1.191  0.00  0.00    -0.295 NA
ATOM     12  C   UNL     1       0.996  -5.164  -1.767  0.00  0.00    +0.232 C 
ATOM     13  O   UNL     1       0.512  -6.274  -1.824  0.00  0.00    -0.274 OA
ATOM     14  N   UNL     1       1.496  -4.415  -2.804  0.00  0.00    -0.210 N 
ATOM     15  C   UNL     1       1.706  -3.095  -2.464  0.00  0.00    +0.233 C 
ATOM     16  O   UNL     1       2.358  -2.270  -3.068  0.00  0.00    -0.274 OA
ATOM     17  C   UNL     1       3.077  -2.155  -0.037  0.00  0.00    +0.243 C 
ATOM     18  O   UNL     1       3.787  -3.139  -0.050  0.00  0.00    -0.273 OA
ATOM     19  N   UNL     1       3.483  -0.870  -0.035  0.00  0.00    -0.283 N 
ATOM     20  H   UNL     1       1.727  -2.809   1.936  0.00  0.00    +0.124 HD
ATOM     21  H   UNL     1       4.413  -0.596  -0.043  0.00  0.00    +0.155 HD
ENDROOT
BRANCH  14  22
ATOM     22  C   UNL     1       1.757  -4.933  -4.080  0.00  0.00    +0.044 A 
ATOM     23  C   UNL     1       2.269  -4.109  -5.074  0.00  0.00    +0.025 A 
ATOM     24  C   UNL     1       2.525  -4.622  -6.330  0.00  0.00    +0.022 A 
ATOM     25  C   UNL     1       2.272  -5.955  -6.600  0.00  0.00    +0.041 A 
ATOM     26  C   UNL     1       1.760  -6.778  -5.612  0.00  0.00    +0.022 A 
ATOM     27  C   UNL     1       1.509  -6.272  -4.351  0.00  0.00    +0.025 A 
ATOM     28 CL   UNL     1       2.594  -6.597  -8.180  0.00  0.00    -0.084 Cl
ENDBRANCH  14  22
BRANCH  10  29
ATOM     29  C   UNL     1      -0.821  -4.463   0.846  0.00  0.00    +0.115 C 
BRANCH  29  30
ATOM     30  C   UNL     1      -1.273  -4.468   2.284  0.00  0.00    +0.212 C 
ATOM     31  O   UNL     1      -0.466  -4.302   3.174  0.00  0.00    -0.276 OA
ATOM     32  N   UNL     1      -2.574  -4.658   2.580  0.00  0.00    -0.329 N 
ATOM     33  H   UNL     1      -3.219  -4.791   1.869  0.00  0.00    +0.145 HD
ATOM     34  H   UNL     1      -2.865  -4.661   3.506  0.00  0.00    +0.145 HD
ENDBRANCH  29  30
ENDBRANCH  10  29
TORSDOF 3
