REMARK  Name = ZINC43260336
REMARK  8 active torsions:
REMARK  status: ('A' for Active; 'I' for Inactive)
REMARK    1  A    between atoms: C_1  and  C_2
REMARK    2  A    between atoms: C_2  and  O_3
REMARK    3  A    between atoms: O_3  and  C_4
REMARK    4  A    between atoms: C_7  and  N_10
REMARK    5  A    between atoms: C_17  and  C_20
REMARK    6  A    between atoms: N_22  and  C_23
REMARK    7  A    between atoms: C_23  and  C_24
REMARK    8  A    between atoms: C_30  and  C_32
REMARK                            x       y       z     vdW  Elec       q    Type
REMARK                         _______ _______ _______ _____ _____    ______ ____
ROOT
ATOM      1  N   UNL     1       3.689  -7.478  -1.241  0.00  0.00    -0.269 N 
ATOM      2  C   UNL     1       3.715  -7.798  -2.550  0.00  0.00    +0.307 C 
ATOM      3  O   UNL     1       4.355  -7.120  -3.329  0.00  0.00    -0.252 OA
ATOM      4  N   UNL     1       3.032  -8.872  -2.994  0.00  0.00    -0.282 N 
ATOM      5  C   UNL     1       2.164  -9.635  -2.086  0.00  0.00    +0.128 C 
ATOM      6  C   UNL     1       0.756  -9.697  -2.689  0.00  0.00    +0.128 C 
ATOM      7  N   UNL     1       0.864 -10.124  -4.091  0.00  0.00    -0.283 N 
ATOM      8  C   UNL     1       1.732  -9.361  -5.000  0.00  0.00    +0.179 C 
ATOM      9  C   UNL     1       3.136  -9.296  -4.397  0.00  0.00    +0.141 C 
ATOM     10  C   UNL     1       0.181 -11.197  -4.536  0.00  0.00    +0.247 C 
ATOM     11  O   UNL     1       0.272 -11.537  -5.699  0.00  0.00    -0.270 OA
ATOM     12  H   UNL     1       3.219  -8.046  -0.611  0.00  0.00    +0.156 HD
ENDROOT
BRANCH  10  13
ATOM     13  C   UNL     1      -0.679 -11.962  -3.608  0.00  0.00    +0.037 A 
ATOM     14  C   UNL     1      -1.320 -11.313  -2.551  0.00  0.00    +0.014 A 
ATOM     15  C   UNL     1      -2.122 -12.031  -1.689  0.00  0.00    +0.021 A 
ATOM     16  C   UNL     1      -2.291 -13.394  -1.870  0.00  0.00    +0.041 A 
ATOM     17  C   UNL     1      -1.658 -14.043  -2.917  0.00  0.00    +0.021 A 
ATOM     18  C   UNL     1      -0.859 -13.335  -3.789  0.00  0.00    +0.014 A 
ATOM     19 CL   UNL     1      -3.301 -14.292  -0.780  0.00  0.00    -0.084 Cl
ENDBRANCH  10  13
BRANCH   1  23
ATOM     20  C   UNL     1       5.634  -4.043   0.104  0.00  0.00    +0.121 A 
ATOM     21  C   UNL     1       4.412  -4.406   0.650  0.00  0.00    +0.047 A 
ATOM     22  C   UNL     1       3.768  -5.543   0.205  0.00  0.00    +0.027 A 
ATOM     23  C   UNL     1       4.343  -6.323  -0.789  0.00  0.00    +0.035 A 
ATOM     24  C   UNL     1       5.566  -5.958  -1.336  0.00  0.00    +0.027 A 
ATOM     25  C   UNL     1       6.207  -4.818  -0.894  0.00  0.00    +0.047 A 
BRANCH  20  26
ATOM     26  O   UNL     1       6.268  -2.922   0.542  0.00  0.00    -0.492 OA
BRANCH  26  28
ATOM     27  C   UNL     1       6.478  -0.956   1.931  0.00  0.00    +0.048 C 
ATOM     28  C   UNL     1       5.621  -2.171   1.571  0.00  0.00    +0.225 C 
ENDBRANCH  26  28
ENDBRANCH  20  26
ENDBRANCH   1  23
BRANCH   8  29
ATOM     29  C   UNL     1       1.782 -10.043  -6.343  0.00  0.00    +0.235 C 
ATOM     30  O   UNL     1       2.349 -11.109  -6.460  0.00  0.00    -0.274 OA
ATOM     31  N   UNL     1       1.198  -9.469  -7.413  0.00  0.00    -0.311 N 
ATOM     32  H   UNL     1       0.745  -8.617  -7.319  0.00  0.00    +0.149 HD
BRANCH  31  33
ATOM     33  C   UNL     1       1.248 -10.133  -8.718  0.00  0.00    +0.135 C 
BRANCH  33  34
ATOM     34  C   UNL     1       0.514  -9.277  -9.753  0.00  0.00    +0.135 C 
ATOM     35  C   UNL     1       0.456 -10.023 -11.103  0.00  0.00    +0.035 C 
ATOM     36  C   UNL     1       0.691  -8.876 -12.124  0.00  0.00    +0.031 C 
ATOM     37  C   UNL     1       1.667  -7.971 -11.330  0.00  0.00    +0.160 C 
ATOM     38  O   UNL     1       1.227  -8.052  -9.963  0.00  0.00    -0.375 OA
ENDBRANCH  33  34
ENDBRANCH  31  33
ENDBRANCH   8  29
TORSDOF 7
