REMARK  Name = ZINC64340241
REMARK  10 active torsions:
REMARK  status: ('A' for Active; 'I' for Inactive)
REMARK    1  A    between atoms: C_1  and  C_2
REMARK    2  A    between atoms: C_2  and  C_3
REMARK    3  A    between atoms: C_2  and  C_4
REMARK    4  A    between atoms: C_4  and  C_6
REMARK    5  A    between atoms: C_4  and  N_22
REMARK    6  A    between atoms: N_8  and  N_9
REMARK    7  A    between atoms: C_10  and  C_12
REMARK    8  A    between atoms: C_12  and  C_13
REMARK    9  A    between atoms: N_22  and  S_23
REMARK   10  A    between atoms: S_23  and  C_26
REMARK                            x       y       z     vdW  Elec       q    Type
REMARK                         _______ _______ _______ _____ _____    ______ ____
ROOT
ATOM      1  C   UNL     1      -2.095  -0.047   1.475  0.00  0.00    +0.248 C 
ATOM      2  O   UNL     1      -3.109   0.581   1.259  0.00  0.00    -0.273 OA
ATOM      3  N   UNL     1      -1.657  -0.206   2.740  0.00  0.00    -0.233 N 
ATOM      4  H   UNL     1      -0.806  -0.639   2.908  0.00  0.00    +0.173 HD
ENDROOT
BRANCH   3   5
ATOM      5  N   UNL     1      -2.432   0.255   3.812  0.00  0.00    -0.234 N 
ATOM      6  C   UNL     1      -1.994   0.096   5.077  0.00  0.00    +0.233 C 
ATOM      7  O   UNL     1      -0.930  -0.446   5.287  0.00  0.00    -0.274 OA
ATOM      8  H   UNL     1      -3.283   0.688   3.644  0.00  0.00    +0.173 HD
BRANCH   6   9
ATOM      9  C   UNL     1      -2.828   0.592   6.231  0.00  0.00    +0.130 C 
BRANCH   9  10
ATOM     10  C   UNL     1      -2.119   0.294   7.527  0.00  0.00    -0.033 C 
ATOM     11  C   UNL     1      -1.316   1.129   8.225  0.00  0.00    -0.001 A 
ATOM     12  C   UNL     1      -0.878   2.511   7.995  0.00  0.00    +0.010 A 
ATOM     13  C   UNL     1      -0.052   3.095   8.893  0.00  0.00    +0.001 A 
ATOM     14  C   UNL     1       0.395   2.415  10.034  0.00  0.00    +0.002 A 
ATOM     15  C   UNL     1       0.036   1.145  10.314  0.00  0.00    +0.026 A 
ATOM     16  C   UNL     1      -0.830   0.433   9.438  0.00  0.00    +0.043 A 
ATOM     17  N   UNL     1      -1.314  -0.784   9.488  0.00  0.00    -0.380 N 
ATOM     18  C   UNL     1      -2.167  -0.997   8.314  0.00  0.00    +0.145 C 
ATOM     19  H   UNL     1      -1.140  -1.434  10.187  0.00  0.00    +0.160 HD
ENDBRANCH   9  10
ENDBRANCH   6   9
ENDBRANCH   3   5
BRANCH   1  20
ATOM     20  C   UNL     1      -1.323  -0.650   0.330  0.00  0.00    +0.166 C 
BRANCH  20  22
ATOM     21  C   UNL     1      -0.517   1.641  -0.256  0.00  0.00    +0.009 C 
ATOM     22  C   UNL     1      -0.087   0.203   0.042  0.00  0.00    +0.010 C 
ATOM     23  C   UNL     1       0.837   0.190   1.262  0.00  0.00    +0.009 C 
ENDBRANCH  20  22
BRANCH  20  24
ATOM     24  N   UNL     1      -2.174  -0.695  -0.862  0.00  0.00    -0.178 NA
ATOM     25  H   UNL     1      -2.807   0.020  -1.033  0.00  0.00    +0.149 HD
BRANCH  24  26
ATOM     26  S   UNL     1      -2.055  -1.966  -1.918  0.00  0.00    +0.062 S 
ATOM     27  O   UNL     1      -2.102  -3.150  -1.134  0.00  0.00    -0.153 OA
ATOM     28  O   UNL     1      -2.977  -1.709  -2.968  0.00  0.00    -0.153 OA
BRANCH  26  29
ATOM     29  C   UNL     1      -0.446  -1.899  -2.633  0.00  0.00    +0.140 A 
ATOM     30  C   UNL     1       0.458  -2.919  -2.398  0.00  0.00    +0.031 A 
ATOM     31  C   UNL     1       1.720  -2.867  -2.959  0.00  0.00    +0.002 A 
ATOM     32  C   UNL     1       2.080  -1.796  -3.756  0.00  0.00    +0.003 A 
ATOM     33  C   UNL     1       1.179  -0.776  -3.992  0.00  0.00    +0.040 A 
ATOM     34  C   UNL     1      -0.088  -0.829  -3.435  0.00  0.00    +0.150 A 
ATOM     35  F   UNL     1      -0.972   0.166  -3.669  0.00  0.00    -0.203 F 
ENDBRANCH  26  29
ENDBRANCH  24  26
ENDBRANCH  20  24
ENDBRANCH   1  20
TORSDOF 8
