REMARK  Name = ZINC64435534
REMARK  6 active torsions:
REMARK  status: ('A' for Active; 'I' for Inactive)
REMARK    1  A    between atoms: C_1  and  C_2
REMARK    2  A    between atoms: C_2  and  C_3
REMARK    3  A    between atoms: C_2  and  C_4
REMARK    4  A    between atoms: C_6  and  C_10
REMARK    5  A    between atoms: C_14  and  C_19
REMARK    6  A    between atoms: C_19  and  N_20
REMARK                            x       y       z     vdW  Elec       q    Type
REMARK                         _______ _______ _______ _____ _____    ______ ____
ROOT
ATOM      1  C   UNL     1      -3.607  -3.034  -0.220  0.00  0.00    +0.182 C 
ATOM      2  N   UNL     1      -5.025  -3.305   0.137  0.00  0.00    -0.265 N 
ATOM      3  N   UNL     1      -5.842  -3.584  -0.918  0.00  0.00    -0.226 N 
ATOM      4  C   UNL     1      -7.199  -3.562  -1.187  0.00  0.00    +0.135 A 
ATOM      5  N   UNL     1      -7.375  -3.996  -2.400  0.00  0.00    -0.134 NA
ATOM      6  N   UNL     1      -6.241  -4.279  -2.937  0.00  0.00    -0.121 NA
ATOM      7  C   UNL     1      -5.289  -4.030  -2.092  0.00  0.00    +0.210 A 
ATOM      8  S   UNL     1      -3.533  -3.997  -1.793  0.00  0.00    -0.058 S 
ATOM      9  H   UNL     1      -5.090  -4.023   0.843  0.00  0.00    +0.168 HD
ENDROOT
BRANCH   1  12
ATOM     10  C   UNL     1      -1.412  -0.526   0.013  0.00  0.00    +0.064 C 
ATOM     11  C   UNL     1      -1.940  -1.303  -0.935  0.00  0.00    +0.029 C 
ATOM     12  C   UNL     1      -3.362  -1.543  -0.460  0.00  0.00    +0.185 C 
ATOM     13  N   UNL     1      -3.420  -0.792   0.805  0.00  0.00    -0.177 NA
ATOM     14  N   UNL     1      -2.315  -0.275   0.986  0.00  0.00    -0.158 NA
BRANCH  10  16
ATOM     15  C   UNL     1      -0.019   1.526   0.010  0.00  0.00    +0.014 C 
ATOM     16  C   UNL     1       0.002  -0.004   0.002  0.00  0.00    +0.033 C 
ATOM     17  C   UNL     1       0.742  -0.511   1.242  0.00  0.00    +0.014 C 
ENDBRANCH  10  16
ENDBRANCH   1  12
BRANCH   4  18
ATOM     18  C   UNL     1      -8.282  -3.115  -0.240  0.00  0.00    +0.000 C 
BRANCH  18  19
ATOM     19  N   UNL     1      -8.518  -1.675  -0.411  0.00  0.00    +0.384 N 
ATOM     20  C   UNL     1      -7.274  -0.950  -0.089  0.00  0.00    -0.078 C 
ATOM     21  C   UNL     1      -7.298   0.375  -0.810  0.00  0.00    -0.019 C 
ATOM     22  C   UNL     1      -7.814   1.503   0.102  0.00  0.00    -0.002 C 
ATOM     23  C   UNL     1      -9.005   1.041   0.967  0.00  0.00    -0.002 C 
ATOM     24  C   UNL     1      -9.976   0.183   0.196  0.00  0.00    -0.019 C 
ATOM     25  C   UNL     1      -9.600  -1.301   0.389  0.00  0.00    -0.078 C 
ATOM     26  H   UNL     1      -8.754  -1.499  -1.376  0.00  0.00    -0.081 HD
ENDBRANCH  18  19
ENDBRANCH   4  18
TORSDOF 4
