REMARK  Name = ZINC59599432
REMARK  8 active torsions:
REMARK  status: ('A' for Active; 'I' for Inactive)
REMARK    1  A    between atoms: C_1  and  N_2
REMARK    2  A    between atoms: C_3  and  N_29
REMARK    3  A    between atoms: C_4  and  O_11
REMARK    4  A    between atoms: N_7  and  C_10
REMARK    5  A    between atoms: O_11  and  C_12
REMARK    6  A    between atoms: C_15  and  C_18
REMARK    7  A    between atoms: C_19  and  C_20
REMARK    8  A    between atoms: C_19  and  C_22
REMARK                            x       y       z     vdW  Elec       q    Type
REMARK                         _______ _______ _______ _____ _____    ______ ____
ROOT
ATOM      1  C   UNL     1      -3.523  -2.178  -0.223  0.00  0.00    +0.129 A 
ATOM      2  C   UNL     1      -3.487  -0.791  -0.312  0.00  0.00    +0.047 A 
ATOM      3  C   UNL     1      -4.660  -0.072  -0.370  0.00  0.00    +0.011 A 
ATOM      4  C   UNL     1      -5.890  -0.741  -0.339  0.00  0.00    -0.024 A 
ATOM      5  C   UNL     1      -5.920  -2.139  -0.250  0.00  0.00    +0.011 A 
ATOM      6  C   UNL     1      -4.742  -2.848  -0.199  0.00  0.00    +0.047 A 
ENDROOT
BRANCH   4   7
ATOM      7  C   UNL     1      -7.144   0.020  -0.400  0.00  0.00    +0.027 C 
ATOM      8  C   UNL     1      -8.268  -0.473   0.188  0.00  0.00    +0.059 C 
BRANCH   8   9
ATOM      9  C   UNL     1      -9.568   0.210  -0.011  0.00  0.00    -0.007 A 
ATOM     10  C   UNL     1      -9.761   1.501   0.479  0.00  0.00    +0.012 A 
ATOM     11  C   UNL     1     -10.973   2.133   0.292  0.00  0.00    +0.039 A 
ATOM     12  C   UNL     1     -11.998   1.486  -0.381  0.00  0.00    +0.123 A 
ATOM     13  C   UNL     1     -11.810   0.203  -0.870  0.00  0.00    +0.039 A 
ATOM     14  C   UNL     1     -10.600  -0.434  -0.693  0.00  0.00    +0.012 A 
ATOM     15  F   UNL     1     -13.183   2.109  -0.561  0.00  0.00    -0.205 F 
ENDBRANCH   8   9
BRANCH   8  16
ATOM     16  C   UNL     1      -8.195  -1.652   0.997  0.00  0.00    +0.100 C 
ATOM     17  N   UNL     1      -8.138  -2.587   1.639  0.00  0.00    -0.191 NA
ENDBRANCH   8  16
ENDBRANCH   4   7
BRANCH   1  18
ATOM     18  O   UNL     1      -2.364  -2.882  -0.167  0.00  0.00    -0.447 OA
BRANCH  18  22
ATOM     19  C   UNL     1       1.855  -1.504  -2.070  0.00  0.00    +0.155 C 
ATOM     20  N   UNL     1       0.880  -1.491  -0.978  0.00  0.00    -0.282 N 
ATOM     21  C   UNL     1      -0.291  -2.203  -1.098  0.00  0.00    +0.149 A 
ATOM     22  C   UNL     1      -1.196  -2.185  -0.071  0.00  0.00    +0.230 A 
ATOM     23  C   UNL     1      -0.904  -1.437   1.082  0.00  0.00    +0.301 A 
ATOM     24  O   UNL     1      -1.694  -1.405   2.010  0.00  0.00    -0.263 OA
ATOM     25  N   UNL     1       0.256  -0.754   1.157  0.00  0.00    -0.261 N 
ATOM     26  C   UNL     1       1.137  -0.788   0.140  0.00  0.00    +0.333 A 
ATOM     27  O   UNL     1       2.179  -0.168   0.232  0.00  0.00    -0.246 OA
ATOM     28  C   UNL     1       0.563   0.027   2.358  0.00  0.00    +0.157 C 
BRANCH  21  29
ATOM     29  N   UNL     1      -0.550  -2.925  -2.239  0.00  0.00    -0.341 N 
ATOM     30  H   UNL     1       0.059  -2.877  -2.992  0.00  0.00    +0.144 HD
ATOM     31  H   UNL     1      -1.341  -3.484  -2.290  0.00  0.00    +0.144 HD
ENDBRANCH  21  29
ENDBRANCH  18  22
ENDBRANCH   1  18
TORSDOF 6
