REMARK  Name = ZINC21604398
REMARK  8 active torsions:
REMARK  status: ('A' for Active; 'I' for Inactive)
REMARK    1  A    between atoms: C_1  and  C_2
REMARK    2  A    between atoms: C_14  and  C_15
REMARK    3  A    between atoms: C_15  and  O_17
REMARK    4  A    between atoms: O_17  and  C_18
REMARK    5  A    between atoms: C_18  and  C_20
REMARK    6  A    between atoms: C_18  and  C_21
REMARK    7  A    between atoms: N_23  and  C_24
REMARK    8  A    between atoms: C_25  and  C_32
REMARK                            x       y       z     vdW  Elec       q    Type
REMARK                         _______ _______ _______ _____ _____    ______ ____
ROOT
ATOM      1  C   UNL     1       2.342   5.773   0.013  0.00  0.00    +0.259 C 
ATOM      2  C   UNL     1       3.107   5.941  -1.301  0.00  0.00    +0.062 C 
ENDROOT
BRANCH   1   3
ATOM      3  C   UNL     1       1.629   4.445   0.012  0.00  0.00    +0.258 C 
ATOM      4  O   UNL     1       0.416   4.408   0.024  0.00  0.00    -0.271 OA
ATOM      5  N   UNL     1       2.338   3.299  -0.002  0.00  0.00    -0.276 N 
ATOM      6  H   UNL     1       3.437   3.333  -0.013  0.00  0.00    +0.155 HD
BRANCH   5   7
ATOM      7  C   UNL     1       1.681   2.078  -0.003  0.00  0.00    +0.084 A 
ATOM      8  C   UNL     1       2.229   0.806  -0.015  0.00  0.00    +0.068 A 
ATOM      9  C   UNL     1       1.307  -0.329  -0.013  0.00  0.00    -0.023 A 
ATOM     10  C   UNL     1       0.002  -0.004   0.002  0.00  0.00    -0.004 A 
ATOM     11  S   UNL     1      -0.022   1.772   0.012  0.00  0.00    -0.077 S 
ATOM     12  C   UNL     1      -0.882  -1.222   0.007  0.00  0.00    +0.043 C 
ATOM     13  C   UNL     1       0.051  -2.378   0.429  0.00  0.00    +0.010 C 
ATOM     14  C   UNL     1       1.427  -1.853  -0.025  0.00  0.00    +0.037 C 
BRANCH   8  15
ATOM     15  C   UNL     1       3.682   0.606  -0.029  0.00  0.00    +0.244 C 
ATOM     16  O   UNL     1       4.275   0.528  -1.089  0.00  0.00    -0.270 OA
ATOM     17  N   UNL     1       4.360   0.506   1.131  0.00  0.00    -0.325 N 
ATOM     18  H   UNL     1       5.450   0.355   1.120  0.00  0.00    +0.145 HD
ATOM     19  H   UNL     1       3.824   0.576   2.089  0.00  0.00    +0.145 HD
ENDBRANCH   8  15
ENDBRANCH   5   7
ENDBRANCH   1   3
BRANCH   1  20
ATOM     20  O   UNL     1       1.371   6.844   0.148  0.00  0.00    -0.448 OA
BRANCH  20  21
ATOM     21  C   UNL     1       1.782   7.968   0.769  0.00  0.00    +0.347 C 
ATOM     22  O   UNL     1       2.922   8.050   1.187  0.00  0.00    -0.244 OA
BRANCH  21  36
ATOM     23  C   UNL     1       2.432  10.604   2.135  0.00  0.00    +0.046 C 
ATOM     24  C   UNL     1       1.081  10.295   1.542  0.00  0.00    -0.015 A 
ATOM     25  C   UNL     1       0.058  11.243   1.601  0.00  0.00    +0.076 A 
ATOM     26  C   UNL     1      -1.174  10.857   1.024  0.00  0.00    +0.116 A 
ATOM     27  N   UNL     1      -2.223  11.664   1.022  0.00  0.00    -0.226 NA
ATOM     28  C   UNL     1      -2.185  12.863   1.551  0.00  0.00    +0.114 A 
ATOM     29  N   UNL     1      -1.058  13.347   2.132  0.00  0.00    -0.296 N 
ATOM     30  C   UNL     1       0.069  12.600   2.189  0.00  0.00    +0.263 A 
ATOM     31  O   UNL     1       1.077  13.038   2.715  0.00  0.00    -0.267 OA
ATOM     32  C   UNL     1      -1.277  14.713   2.641  0.00  0.00    +0.127 C 
ATOM     33  C   UNL     1      -2.808  14.889   2.716  0.00  0.00    +0.029 C 
ATOM     34  C   UNL     1      -3.293  13.898   1.636  0.00  0.00    +0.076 C 
ATOM     35  S   UNL     1      -0.848   9.217   0.426  0.00  0.00    -0.062 S 
ATOM     36  C   UNL     1       0.857   9.090   0.942  0.00  0.00    +0.102 A 
ENDBRANCH  21  36
ENDBRANCH  20  21
ENDBRANCH   1  20
TORSDOF 6
