REMARK  Name = ZINC32181205
REMARK  6 active torsions:
REMARK  status: ('A' for Active; 'I' for Inactive)
REMARK    1  A    between atoms: C_1  and  C_2
REMARK    2  A    between atoms: C_7  and  O_8
REMARK    3  A    between atoms: O_8  and  C_9
REMARK    4  A    between atoms: C_9  and  C_10
REMARK    5  A    between atoms: N_12  and  N_13
REMARK    6  A    between atoms: C_14  and  C_15
REMARK                            x       y       z     vdW  Elec       q    Type
REMARK                         _______ _______ _______ _____ _____    ______ ____
ROOT
ATOM      1  C   UNL     1      -1.036  -2.215   0.642  0.00  0.00    +0.270 C 
ATOM      2  O   UNL     1       0.022  -2.541   0.145  0.00  0.00    -0.270 OA
ATOM      3  N   UNL     1      -2.057  -3.093   0.688  0.00  0.00    -0.204 N 
ATOM      4  H   UNL     1      -3.016  -2.797   1.139  0.00  0.00    +0.177 HD
ENDROOT
BRANCH   3   5
ATOM      5  N   UNL     1      -1.897  -4.382   0.163  0.00  0.00    -0.188 NA
ATOM      6  C   UNL     1      -2.913  -5.187   0.100  0.00  0.00    +0.138 C 
BRANCH   6   7
ATOM      7  C   UNL     1      -4.285  -4.647   0.116  0.00  0.00    -0.002 A 
ATOM      8  C   UNL     1      -5.371  -5.500   0.326  0.00  0.00    +0.013 A 
ATOM      9  C   UNL     1      -6.652  -4.992   0.346  0.00  0.00    +0.050 A 
ATOM     10  C   UNL     1      -6.869  -3.635   0.148  0.00  0.00    +0.166 A 
ATOM     11  C   UNL     1      -5.789  -2.779  -0.068  0.00  0.00    +0.167 A 
ATOM     12  C   UNL     1      -4.502  -3.282  -0.084  0.00  0.00    +0.059 A 
ATOM     13  O   UNL     1      -6.266  -1.510  -0.233  0.00  0.00    -0.453 OA
ATOM     14  C   UNL     1      -7.607  -1.532   0.290  0.00  0.00    +0.466 C 
ATOM     15  O   UNL     1      -8.019  -2.901   0.117  0.00  0.00    -0.453 OA
ENDBRANCH   6   7
ENDBRANCH   3   5
BRANCH   1  16
ATOM     16  C   UNL     1      -1.208  -0.828   1.206  0.00  0.00    +0.326 C 
BRANCH  16  17
ATOM     17  O   UNL     1       0.006  -0.092   1.040  0.00  0.00    -0.482 OA
BRANCH  17  24
ATOM     18  C   UNL     1       2.395   1.381   0.720  0.00  0.00    +0.047 C 
ATOM     19  C   UNL     1       1.165   1.959   1.370  0.00  0.00    -0.009 A 
ATOM     20  C   UNL     1       1.176   3.259   1.837  0.00  0.00    +0.007 A 
ATOM     21  C   UNL     1       0.047   3.791   2.433  0.00  0.00    +0.000 A 
ATOM     22  C   UNL     1      -1.095   3.023   2.563  0.00  0.00    +0.004 A 
ATOM     23  C   UNL     1      -1.113   1.724   2.093  0.00  0.00    +0.046 A 
ATOM     24  C   UNL     1       0.020   1.187   1.499  0.00  0.00    +0.124 A 
ENDBRANCH  17  24
ENDBRANCH  16  17
ENDBRANCH   1  16
TORSDOF 5
