REMARK  Name = ZINC39404389
REMARK  13 active torsions:
REMARK  status: ('A' for Active; 'I' for Inactive)
REMARK    1  A    between atoms: C_1  and  C_2
REMARK    2  A    between atoms: C_2  and  O_3
REMARK    3  A    between atoms: O_3  and  C_4
REMARK    4  A    between atoms: C_4  and  C_6
REMARK    5  A    between atoms: C_8  and  C_37
REMARK    6  A    between atoms: C_10  and  C_35
REMARK    7  A    between atoms: C_12  and  N_15
REMARK    8  A    between atoms: C_16  and  C_18
REMARK    9  A    between atoms: C_18  and  S_19
REMARK   10  A    between atoms: S_19  and  C_20
REMARK   11  A    between atoms: N_26  and  N_27
REMARK   12  A    between atoms: C_28  and  C_29
REMARK   13  A    between atoms: C_32  and  C_34
REMARK                            x       y       z     vdW  Elec       q    Type
REMARK                         _______ _______ _______ _____ _____    ______ ____
ROOT
ATOM      1  C   UNL     1       6.620  -6.122  -2.094  0.00  0.00    +0.168 C 
ENDROOT
BRANCH   1   3
ATOM      2  N   UNL     1       4.424  -4.988  -2.202  0.00  0.00    -0.302 N 
ATOM      3  C   UNL     1       5.557  -5.352  -2.835  0.00  0.00    +0.224 C 
ATOM      4  O   UNL     1       5.722  -5.058  -4.000  0.00  0.00    -0.275 OA
ATOM      5  H   UNL     1       4.292  -5.223  -1.270  0.00  0.00    +0.150 HD
BRANCH   2   9
ATOM      6  C   UNL     1       1.399  -2.311  -2.628  0.00  0.00    +0.161 C 
ATOM      7  C   UNL     1       0.910  -3.747  -2.900  0.00  0.00    +0.029 C 
ATOM      8  C   UNL     1       1.975  -4.812  -2.639  0.00  0.00    +0.126 C 
ATOM      9  C   UNL     1       3.391  -4.239  -2.922  0.00  0.00    +0.149 C 
ATOM     10  S   UNL     1       3.182  -2.536  -2.228  0.00  0.00    -0.122 S 
ATOM     11  C   UNL     1      -0.295  -4.033  -2.002  0.00  0.00    +0.010 C 
BRANCH   6  12
ATOM     12  C   UNL     1       0.663  -1.711  -1.458  0.00  0.00    +0.321 C 
ATOM     13  O   UNL     1      -0.322  -1.037  -1.645  0.00  0.00    -0.250 OA
BRANCH  12  14
ATOM     14  O   UNL     1       1.103  -1.925  -0.208  0.00  0.00    -0.464 OA
BRANCH  14  16
ATOM     15  C   UNL     1       1.003  -1.677   2.194  0.00  0.00    +0.048 C 
ATOM     16  C   UNL     1       0.356  -1.325   0.853  0.00  0.00    +0.229 C 
ENDBRANCH  14  16
ENDBRANCH  12  14
ENDBRANCH   6  12
BRANCH   8  17
ATOM     17  C   UNL     1       1.897  -5.244  -1.234  0.00  0.00    +0.069 C 
ATOM     18  N   UNL     1       1.838  -5.577  -0.150  0.00  0.00    -0.196 NA
ENDBRANCH   8  17
ENDBRANCH   2   9
ENDBRANCH   1   3
BRANCH   1  19
ATOM     19  S   UNL     1       8.010  -6.459  -3.209  0.00  0.00    -0.100 S 
BRANCH  19  20
ATOM     20  C   UNL     1       9.186  -7.380  -2.179  0.00  0.00    +0.303 C 
ATOM     21  N   UNL     1       8.558  -8.600  -1.641  0.00  0.00    -0.213 NA
ATOM     22  C   UNL     1       8.590  -8.455  -0.345  0.00  0.00    +0.227 C 
ATOM     23  N   UNL     1       9.172  -7.271   0.002  0.00  0.00    -0.249 N 
ATOM     24  N   UNL     1       9.538  -6.606  -0.978  0.00  0.00    -0.171 NA
ATOM     25  N   UNL     1       8.100  -9.376   0.555  0.00  0.00    -0.206 N 
ATOM     26  H   UNL     1       8.157  -9.201   1.507  0.00  0.00    +0.177 HD
ATOM     27  H   UNL     1       9.288  -6.980   0.920  0.00  0.00    +0.192 HD
BRANCH  25  28
ATOM     28  N   UNL     1       7.519 -10.565   0.094  0.00  0.00    -0.184 NA
ATOM     29  C   UNL     1       7.056 -11.434   0.944  0.00  0.00    +0.176 C 
BRANCH  29  30
ATOM     30  C   UNL     1       6.448 -12.678   0.462  0.00  0.00    +0.148 A 
ATOM     31  C   UNL     1       5.921 -13.668   1.241  0.00  0.00    +0.051 A 
ATOM     32  C   UNL     1       5.452 -14.665   0.366  0.00  0.00    +0.045 A 
ATOM     33  C   UNL     1       5.709 -14.244  -0.889  0.00  0.00    +0.103 A 
ATOM     34  O   UNL     1       6.305 -13.042  -0.828  0.00  0.00    -0.459 OA
ATOM     35  C   UNL     1       5.378 -14.996  -2.152  0.00  0.00    +0.086 C 
ENDBRANCH  29  30
ENDBRANCH  25  28
ENDBRANCH  19  20
ENDBRANCH   1  19
TORSDOF 10
