REMARK  Name = ZINC13262725
REMARK  7 active torsions:
REMARK  status: ('A' for Active; 'I' for Inactive)
REMARK    1  A    between atoms: C_3  and  S_6
REMARK    2  A    between atoms: S_6  and  O_9
REMARK    3  A    between atoms: O_9  and  C_10
REMARK    4  A    between atoms: C_13  and  S_18
REMARK    5  A    between atoms: C_15  and  C_16
REMARK    6  A    between atoms: S_18  and  N_21
REMARK    7  A    between atoms: N_21  and  C_22
REMARK                            x       y       z     vdW  Elec       q    Type
REMARK                         _______ _______ _______ _____ _____    ______ ____
ROOT
ATOM      1  C   UNL     1       4.110   3.280   0.004  0.00  0.00    +0.171 A 
ATOM      2  C   UNL     1       3.531   2.881   1.200  0.00  0.00    +0.051 A 
ATOM      3  C   UNL     1       2.240   2.391   1.214  0.00  0.00    +0.032 A 
ATOM      4  C   UNL     1       1.519   2.282   0.035  0.00  0.00    +0.110 A 
ATOM      5  C   UNL     1       2.078   2.673  -1.161  0.00  0.00    +0.047 A 
ATOM      6  C   UNL     1       3.381   3.177  -1.189  0.00  0.00    +0.109 A 
ENDROOT
BRANCH   6   7
ATOM      7  C   UNL     1       3.986   3.598  -2.466  0.00  0.00    +0.390 C 
ATOM      8  O   UNL     1       5.119   4.036  -2.486  0.00  0.00    -0.240 OA
ATOM      9  O   UNL     1       3.282   3.497  -3.611  0.00  0.00    -0.240 OA
ENDBRANCH   6   7
BRANCH   4  10
ATOM     10  S   UNL     1      -0.124   1.646   0.069  0.00  0.00    +0.072 S 
ATOM     11  O   UNL     1      -0.818   2.258  -1.010  0.00  0.00    -0.150 OA
ATOM     12  O   UNL     1      -0.570   1.744   1.415  0.00  0.00    -0.150 OA
BRANCH  10  13
ATOM     13  N   UNL     1      -0.032   0.031  -0.282  0.00  0.00    -0.216 N 
ATOM     14  H   UNL     1      -0.449  -0.315  -1.087  0.00  0.00    +0.174 HD
BRANCH  13  15
ATOM     15  C   UNL     1       0.647  -0.834   0.581  0.00  0.00    +0.048 A 
ATOM     16  C   UNL     1       1.901  -1.321   0.234  0.00  0.00    +0.026 A 
ATOM     17  C   UNL     1       2.572  -2.170   1.091  0.00  0.00    +0.022 A 
ATOM     18  C   UNL     1       1.991  -2.547   2.289  0.00  0.00    +0.041 A 
ATOM     19  C   UNL     1       0.739  -2.069   2.635  0.00  0.00    +0.022 A 
ATOM     20  C   UNL     1       0.066  -1.214   1.784  0.00  0.00    +0.026 A 
ATOM     21 CL   UNL     1       2.834  -3.622   3.361  0.00  0.00    -0.084 Cl
ENDBRANCH  13  15
ENDBRANCH  10  13
ENDBRANCH   4  10
BRANCH   1  22
ATOM     22  O   UNL     1       5.376   3.768  -0.011  0.00  0.00    -0.341 OA
BRANCH  22  23
ATOM     23  S   UNL     1       5.461   5.276   0.172  0.00  0.00    +0.157 S 
ATOM     24  O   UNL     1       6.812   5.640  -0.074  0.00  0.00    -0.131 OA
ATOM     25  O   UNL     1       4.376   5.835  -0.556  0.00  0.00    -0.131 OA
BRANCH  23  28
ATOM     26  C   UNL     1       5.557   5.973   4.170  0.00  0.00    +0.010 A 
ATOM     27  C   UNL     1       6.031   5.693   2.902  0.00  0.00    +0.038 A 
ATOM     28  C   UNL     1       5.151   5.613   1.874  0.00  0.00    +0.165 A 
ATOM     29  S   UNL     1       3.598   5.944   2.690  0.00  0.00    -0.075 S 
ATOM     30  C   UNL     1       4.226   6.158   4.348  0.00  0.00    +0.047 A 
ENDBRANCH  23  28
ENDBRANCH  22  23
ENDBRANCH   1  22
TORSDOF 7
