REMARK  Name = ZINC15623719
REMARK  8 active torsions:
REMARK  status: ('A' for Active; 'I' for Inactive)
REMARK    1  A    between atoms: C_6  and  O_7
REMARK    2  A    between atoms: O_7  and  C_8
REMARK    3  A    between atoms: C_8  and  C_9
REMARK    4  A    between atoms: C_12  and  S_15
REMARK    5  A    between atoms: N_13  and  N_14
REMARK    6  A    between atoms: S_15  and  C_16
REMARK    7  A    between atoms: C_16  and  C_17
REMARK    8  A    between atoms: N_19  and  C_20
REMARK                            x       y       z     vdW  Elec       q    Type
REMARK                         _______ _______ _______ _____ _____    ______ ____
ROOT
ATOM      1  C   UNL     1      -0.665   3.838  -0.023  0.00  0.00    +0.189 A 
ATOM      2  N   UNL     1       0.636   3.778  -0.033  0.00  0.00    -0.128 NA
ATOM      3  N   UNL     1       1.021   2.552  -0.033  0.00  0.00    -0.121 NA
ATOM      4  C   UNL     1      -0.024   1.757  -0.024  0.00  0.00    +0.209 A 
ATOM      5  N   UNL     1      -1.133   2.553  -0.023  0.00  0.00    -0.225 N 
ENDROOT
BRANCH   5   6
ATOM      6  N   UNL     1      -2.438   2.150  -0.020  0.00  0.00    -0.295 N 
ATOM      7  H   UNL     1      -2.781   2.045   0.923  0.00  0.00    +0.163 HD
ATOM      8  H   UNL     1      -3.015   2.788  -0.546  0.00  0.00    +0.163 HD
ENDBRANCH   5   6
BRANCH   1   9
ATOM      9  C   UNL     1      -1.501   5.092  -0.019  0.00  0.00    +0.306 C 
BRANCH   9  10
ATOM     10  O   UNL     1      -1.776   5.486  -1.365  0.00  0.00    -0.484 OA
BRANCH  10  16
ATOM     11  C   UNL     1      -2.990   7.310  -0.438  0.00  0.00    +0.048 A 
ATOM     12  C   UNL     1      -3.747   8.452  -0.617  0.00  0.00    +0.042 A 
ATOM     13  C   UNL     1      -4.049   8.889  -1.895  0.00  0.00    +0.124 A 
ATOM     14  C   UNL     1      -3.590   8.186  -2.996  0.00  0.00    +0.042 A 
ATOM     15  C   UNL     1      -2.828   7.047  -2.820  0.00  0.00    +0.048 A 
ATOM     16  C   UNL     1      -2.524   6.607  -1.540  0.00  0.00    +0.121 A 
ATOM     17  F   UNL     1      -4.793  10.004  -2.069  0.00  0.00    -0.205 F 
ENDBRANCH  10  16
ENDBRANCH   9  10
ENDBRANCH   1   9
BRANCH   4  18
ATOM     18  S   UNL     1       0.001  -0.005  -0.021  0.00  0.00    -0.075 S 
BRANCH  18  19
ATOM     19  C   UNL     1       1.788  -0.295  -0.033  0.00  0.00    +0.173 C 
BRANCH  19  20
ATOM     20  C   UNL     1       2.057  -1.777  -0.032  0.00  0.00    +0.228 C 
ATOM     21  O   UNL     1       1.131  -2.562  -0.024  0.00  0.00    -0.275 OA
ATOM     22  N   UNL     1       3.325  -2.232  -0.040  0.00  0.00    -0.284 N 
ATOM     23  H   UNL     1       4.064  -1.608  -0.113  0.00  0.00    +0.155 HD
BRANCH  22  24
ATOM     24  C   UNL     1       3.577  -3.608   0.056  0.00  0.00    +0.051 A 
ATOM     25  C   UNL     1       2.708  -4.516  -0.532  0.00  0.00    +0.073 A 
ATOM     26  C   UNL     1       2.957  -5.876  -0.438  0.00  0.00    +0.164 A 
ATOM     27  C   UNL     1       4.080  -6.329   0.245  0.00  0.00    +0.163 A 
ATOM     28  C   UNL     1       4.946  -5.419   0.833  0.00  0.00    +0.066 A 
ATOM     29  C   UNL     1       4.700  -4.063   0.735  0.00  0.00    +0.043 A 
ATOM     30 BR   UNL     1       5.888  -2.826   1.532  0.00  0.00    -0.048 Br
ATOM     31  O   UNL     1       4.343  -7.661   0.345  0.00  0.00    -0.485 OA
ATOM     32  C   UNL     1       3.259  -8.554   0.069  0.00  0.00    +0.270 C 
ATOM     33  C   UNL     1       2.570  -8.088  -1.221  0.00  0.00    +0.270 C 
ATOM     34  O   UNL     1       2.092  -6.754  -1.017  0.00  0.00    -0.485 OA
ENDBRANCH  22  24
ENDBRANCH  19  20
ENDBRANCH  18  19
ENDBRANCH   4  18
TORSDOF 8
