REMARK  Name = ZINC03252360
REMARK  6 active torsions:
REMARK  status: ('A' for Active; 'I' for Inactive)
REMARK    1  A    between atoms: C_3  and  N_22
REMARK    2  A    between atoms: C_5  and  C_6
REMARK    3  A    between atoms: C_6  and  O_8
REMARK    4  A    between atoms: O_8  and  C_9
REMARK    5  A    between atoms: C_9  and  C_10
REMARK    6  A    between atoms: N_12  and  C_13
REMARK                            x       y       z     vdW  Elec       q    Type
REMARK                         _______ _______ _______ _____ _____    ______ ____
ROOT
ATOM      1  C   UNL     1       2.370   5.180  -0.393  0.00  0.00    +0.255 C 
ATOM      2  O   UNL     1       1.328   5.744  -0.653  0.00  0.00    -0.272 OA
ATOM      3  N   UNL     1       2.358   3.890  -0.001  0.00  0.00    -0.280 N 
ATOM      4  H   UNL     1       3.182   3.461   0.277  0.00  0.00    +0.155 HD
ENDROOT
BRANCH   3   5
ATOM      5  C   UNL     1       1.156   3.171   0.007  0.00  0.00    +0.071 A 
ATOM      6  C   UNL     1       0.748   2.485  -1.130  0.00  0.00    +0.065 A 
ATOM      7  C   UNL     1      -0.439   1.776  -1.120  0.00  0.00    +0.042 A 
ATOM      8  C   UNL     1      -1.223   1.755   0.020  0.00  0.00    +0.044 A 
ATOM      9  C   UNL     1      -0.818   2.434   1.155  0.00  0.00    +0.042 A 
ATOM     10  C   UNL     1       0.368   3.144   1.151  0.00  0.00    +0.065 A 
ATOM     11 CL   UNL     1       0.874   4.000   2.575  0.00  0.00    -0.082 Cl
ATOM     12 CL   UNL     1      -2.717   0.870   0.027  0.00  0.00    -0.083 Cl
ATOM     13 CL   UNL     1       1.729   2.516  -2.562  0.00  0.00    -0.082 Cl
ENDBRANCH   3   5
BRANCH   1  14
ATOM     14  C   UNL     1       3.677   5.920  -0.510  0.00  0.00    +0.328 C 
BRANCH  14  15
ATOM     15  O   UNL     1       3.425   7.282  -0.947  0.00  0.00    -0.450 OA
BRANCH  15  16
ATOM     16  C   UNL     1       4.498   8.084  -1.102  0.00  0.00    +0.375 C 
ATOM     17  O   UNL     1       5.614   7.656  -0.878  0.00  0.00    -0.241 OA
BRANCH  16  22
ATOM     18  C   UNL     1       5.315  10.386  -1.732  0.00  0.00    +0.059 A 
ATOM     19  C   UNL     1       4.695  11.573  -2.151  0.00  0.00    +0.076 A 
ATOM     20  C   UNL     1       3.365  11.335  -2.189  0.00  0.00    +0.280 A 
ATOM     21  O   UNL     1       3.143  10.067  -1.821  0.00  0.00    -0.427 OA
ATOM     22  C   UNL     1       4.319   9.470  -1.541  0.00  0.00    +0.214 A 
BRANCH  20  23
ATOM     23  N   UNL     1       2.325  12.316  -2.576  0.00  0.00    +0.093 N 
ATOM     24  O   UNL     1       2.643  13.447  -2.894  0.00  0.00    -0.123 OA
ATOM     25  O   UNL     1       1.151  11.991  -2.575  0.00  0.00    -0.123 OA
ENDBRANCH  20  23
ENDBRANCH  16  22
ENDBRANCH  15  16
ENDBRANCH  14  15
ENDBRANCH   1  14
TORSDOF 6
