REMARK  Name = ZINC06226172
REMARK  3 active torsions:
REMARK  status: ('A' for Active; 'I' for Inactive)
REMARK    1  A    between atoms: C_1  and  C_2
REMARK    2  A    between atoms: C_2  and  N_3
REMARK    3  A    between atoms: N_11  and  N_12
REMARK                            x       y       z     vdW  Elec       q    Type
REMARK                         _______ _______ _______ _____ _____    ______ ____
ROOT
ATOM      1  N   UNL     1      -1.372  -0.511   0.012  0.00  0.00    -0.266 N 
ATOM      2  C   UNL     1      -2.098  -0.783   1.167  0.00  0.00    +0.046 A 
ATOM      3  C   UNL     1      -1.770  -0.668   2.513  0.00  0.00    +0.024 A 
ATOM      4  C   UNL     1      -2.691  -1.012   3.482  0.00  0.00    +0.002 A 
ATOM      5  C   UNL     1      -3.948  -1.475   3.128  0.00  0.00    +0.001 A 
ATOM      6  C   UNL     1      -4.291  -1.596   1.796  0.00  0.00    +0.012 A 
ATOM      7  C   UNL     1      -3.370  -1.251   0.813  0.00  0.00    +0.028 A 
ATOM      8  C   UNL     1      -3.415  -1.262  -0.667  0.00  0.00    +0.153 C 
ATOM      9  N   UNL     1      -4.416  -1.629  -1.435  0.00  0.00    -0.176 NA
ATOM     10  C   UNL     1      -2.093  -0.767  -1.093  0.00  0.00    +0.271 C 
ATOM     11  O   UNL     1      -1.720  -0.618  -2.242  0.00  0.00    -0.268 OA
ENDROOT
BRANCH   9  12
ATOM     12  N   UNL     1      -4.296  -1.580  -2.718  0.00  0.00    -0.220 N 
ATOM     13  C   UNL     1      -5.355  -1.967  -3.529  0.00  0.00    +0.139 A 
ATOM     14  C   UNL     1      -5.206  -1.913  -4.922  0.00  0.00    +0.046 A 
ATOM     15  C   UNL     1      -6.236  -2.290  -5.730  0.00  0.00    +0.013 A 
ATOM     16  C   UNL     1      -7.433  -2.728  -5.127  0.00  0.00    +0.001 A 
ATOM     17  C   UNL     1      -8.533  -3.131  -5.900  0.00  0.00    +0.010 A 
ATOM     18  C   UNL     1      -9.673  -3.548  -5.282  0.00  0.00    +0.001 A 
ATOM     19  C   UNL     1      -9.762  -3.580  -3.892  0.00  0.00    +0.002 A 
ATOM     20  C   UNL     1      -8.714  -3.196  -3.113  0.00  0.00    +0.028 A 
ATOM     21  C   UNL     1      -7.521  -2.759  -3.714  0.00  0.00    +0.073 A 
ATOM     22  N   UNL     1      -6.474  -2.382  -2.972  0.00  0.00    -0.231 NA
ATOM     23  H   UNL     1      -3.467  -1.272  -3.117  0.00  0.00    +0.176 HD
ENDBRANCH   9  12
BRANCH   1  25
ATOM     24  C   UNL     1      -0.019   1.526   0.010  0.00  0.00    +0.025 C 
ATOM     25  C   UNL     1       0.002  -0.004   0.002  0.00  0.00    +0.111 C 
ENDBRANCH   1  25
TORSDOF 2
