REMARK  Name = ZINC46997568
REMARK  7 active torsions:
REMARK  status: ('A' for Active; 'I' for Inactive)
REMARK    1  A    between atoms: C_1  and  C_2
REMARK    2  A    between atoms: C_2  and  C_3
REMARK    3  A    between atoms: C_2  and  N_4
REMARK    4  A    between atoms: N_7  and  C_8
REMARK    5  A    between atoms: C_11  and  C_14
REMARK    6  A    between atoms: C_14  and  N_15
REMARK    7  A    between atoms: C_22  and  C_24
REMARK                            x       y       z     vdW  Elec       q    Type
REMARK                         _______ _______ _______ _____ _____    ______ ____
ROOT
ATOM      1  C   UNL     1      -0.047  -1.296   4.609  0.00  0.00    +0.035 A 
ATOM      2  C   UNL     1      -1.416  -1.067   4.606  0.00  0.00    +0.023 A 
ATOM      3  C   UNL     1      -2.154  -1.282   5.754  0.00  0.00    +0.007 A 
ATOM      4  C   UNL     1      -1.529  -1.726   6.905  0.00  0.00    -0.030 A 
ATOM      5  C   UNL     1      -0.165  -1.954   6.912  0.00  0.00    +0.007 A 
ATOM      6  C   UNL     1       0.577  -1.747   5.766  0.00  0.00    +0.023 A 
ENDROOT
BRANCH   1  10
ATOM      7  N   UNL     1       2.411  -1.733   1.996  0.00  0.00    -0.297 N 
ATOM      8  C   UNL     1       1.747  -1.883   3.159  0.00  0.00    +0.304 C 
ATOM      9  O   UNL     1       2.089  -2.741   3.949  0.00  0.00    -0.253 OA
ATOM     10  N   UNL     1       0.703  -1.080   3.447  0.00  0.00    -0.269 N 
ATOM     11  H   UNL     1       2.138  -1.048   1.366  0.00  0.00    +0.151 HD
ATOM     12  H   UNL     1       0.471  -0.352   2.849  0.00  0.00    +0.156 HD
BRANCH   7  14
ATOM     13  C   UNL     1       3.033  -3.903   1.055  0.00  0.00    +0.027 C 
ATOM     14  C   UNL     1       3.546  -2.606   1.683  0.00  0.00    +0.068 C 
ATOM     15  C   UNL     1       4.478  -1.896   0.700  0.00  0.00    +0.027 C 
ENDBRANCH   7  14
ENDBRANCH   1  10
BRANCH   4  16
ATOM     16  C   UNL     1      -2.337  -1.960   8.156  0.00  0.00    +0.141 C 
BRANCH  16  17
ATOM     17  N   UNL     1      -2.816  -3.344   8.176  0.00  0.00    -0.295 N 
ATOM     18  C   UNL     1      -3.565  -3.782   9.207  0.00  0.00    +0.303 C 
ATOM     19  O   UNL     1      -3.843  -3.030  10.121  0.00  0.00    -0.253 OA
ATOM     20  N   UNL     1      -4.007  -5.056   9.226  0.00  0.00    -0.278 N 
ATOM     21  C   UNL     1      -3.741  -6.072   8.192  0.00  0.00    +0.110 C 
ATOM     22  C   UNL     1      -4.902  -7.088   8.326  0.00  0.00    +0.021 C 
ATOM     23  C   UNL     1      -5.112  -7.120   9.863  0.00  0.00    +0.029 C 
ATOM     24  C   UNL     1      -4.828  -5.663  10.283  0.00  0.00    +0.114 C 
ATOM     25  H   UNL     1      -2.595  -3.944   7.447  0.00  0.00    +0.151 HD
BRANCH  24  26
ATOM     26  C   UNL     1      -4.079  -5.640  11.591  0.00  0.00    +0.010 A 
ATOM     27  C   UNL     1      -4.550  -5.411  12.841  0.00  0.00    +0.013 A 
ATOM     28  C   UNL     1      -3.668  -5.441  13.905  0.00  0.00    +0.008 A 
ATOM     29  C   UNL     1      -2.359  -5.698  13.667  0.00  0.00    +0.045 A 
ATOM     30  S   UNL     1      -2.341  -5.916  11.896  0.00  0.00    -0.100 S 
ENDBRANCH  24  26
ENDBRANCH  16  17
ENDBRANCH   4  16
TORSDOF 5
