REMARK  Name = ZINC38980165
REMARK  5 active torsions:
REMARK  status: ('A' for Active; 'I' for Inactive)
REMARK    1  A    between atoms: C_2  and  C_3
REMARK    2  A    between atoms: C_3  and  N_4
REMARK    3  A    between atoms: N_4  and  C_5
REMARK    4  A    between atoms: N_8  and  S_9
REMARK    5  A    between atoms: S_9  and  C_12
REMARK                            x       y       z     vdW  Elec       q    Type
REMARK                         _______ _______ _______ _____ _____    ______ ____
ROOT
ATOM      1  C   UNL     1       2.638  -2.415   1.131  0.00  0.00    +0.218 C 
ATOM      2  C   UNL     1       2.318  -3.884   1.285  0.00  0.00    +0.167 C 
ATOM      3  N   UNL     1       1.556  -4.488   0.421  0.00  0.00    -0.111 NA
ATOM      4  N   UNL     1       2.832  -4.557   2.327  0.00  0.00    -0.338 N 
ATOM      5  C   UNL     1       3.605  -3.969   3.215  0.00  0.00    +0.064 A 
ATOM      6  C   UNL     1       4.130  -4.710   4.304  0.00  0.00    +0.028 A 
ATOM      7  C   UNL     1       4.924  -4.112   5.218  0.00  0.00    +0.002 A 
ATOM      8  C   UNL     1       5.270  -2.752   5.150  0.00  0.00    +0.002 A 
ATOM      9  C   UNL     1       4.825  -1.955   4.154  0.00  0.00    +0.027 A 
ATOM     10  C   UNL     1       3.955  -2.530   3.118  0.00  0.00    +0.060 A 
ATOM     11  N   UNL     1       3.506  -1.792   2.143  0.00  0.00    -0.362 N 
ATOM     12  H   UNL     1       3.739  -0.852   2.085  0.00  0.00    +0.162 HD
ATOM     13  H   UNL     1       2.628  -5.500   2.428  0.00  0.00    +0.167 HD
ENDROOT
BRANCH   3  14
ATOM     14  S   UNL     1       1.214  -6.098   0.601  0.00  0.00    +0.107 S 
ATOM     15  O   UNL     1       2.438  -6.796   0.422  0.00  0.00    -0.146 OA
ATOM     16  O   UNL     1       0.434  -6.217   1.783  0.00  0.00    -0.146 OA
BRANCH  14  17
ATOM     17  C   UNL     1       0.169  -6.561  -0.740  0.00  0.00    +0.150 A 
ATOM     18  C   UNL     1       0.509  -7.036  -1.963  0.00  0.00    +0.037 A 
ATOM     19  C   UNL     1      -0.491  -7.338  -2.867  0.00  0.00    +0.010 A 
ATOM     20  C   UNL     1      -1.784  -7.150  -2.505  0.00  0.00    +0.047 A 
ATOM     21  S   UNL     1      -1.614  -6.535  -0.837  0.00  0.00    -0.076 S 
ENDBRANCH  14  17
ENDBRANCH   3  14
BRANCH   1  22
ATOM     22  N   UNL     1       1.368  -1.678   1.115  0.00  0.00    -0.287 NA
ATOM     23  H   UNL     1       1.216  -1.199   1.990  0.00  0.00    +0.125 HD
BRANCH  22  24
ATOM     24  C   UNL     1       1.317  -0.740  -0.015  0.00  0.00    +0.110 C 
BRANCH  24  26
ATOM     25  C   UNL     1      -0.016   1.306   0.009  0.00  0.00    +0.005 C 
ATOM     26  C   UNL     1       0.002  -0.004   0.002  0.00  0.00    -0.019 C 
ENDBRANCH  24  26
ENDBRANCH  22  24
ENDBRANCH   1  22
TORSDOF 5
