REMARK  Name = ZINC16115782
REMARK  8 active torsions:
REMARK  status: ('A' for Active; 'I' for Inactive)
REMARK    1  A    between atoms: C_1  and  O_2
REMARK    2  A    between atoms: O_2  and  C_3
REMARK    3  A    between atoms: C_6  and  C_9
REMARK    4  A    between atoms: N_11  and  C_23
REMARK    5  A    between atoms: C_15  and  N_16
REMARK    6  A    between atoms: N_16  and  C_17
REMARK    7  A    between atoms: C_17  and  C_18
REMARK    8  A    between atoms: C_26  and  N_29
REMARK                            x       y       z     vdW  Elec       q    Type
REMARK                         _______ _______ _______ _____ _____    ______ ____
ROOT
ATOM      1  C   UNL     1      -4.966  -2.651   0.256  0.00  0.00    +0.103 C 
ATOM      2  N   UNL     1      -6.139  -2.072   0.267  0.00  0.00    -0.171 NA
ATOM      3  N   UNL     1      -7.138  -3.003  -0.022  0.00  0.00    -0.156 N 
ATOM      4  C   UNL     1      -6.594  -4.218  -0.225  0.00  0.00    +0.274 C 
ATOM      5  O   UNL     1      -7.192  -5.245  -0.496  0.00  0.00    -0.268 OA
ATOM      6  C   UNL     1      -5.186  -4.075  -0.070  0.00  0.00    +0.080 C 
ATOM      7  C   UNL     1      -4.228  -5.062  -0.194  0.00  0.00    +0.083 C 
ENDROOT
BRANCH   1  11
ATOM      8  C   UNL     1      -1.220  -0.782   0.999  0.00  0.00    +0.120 A 
ATOM      9  C   UNL     1      -1.400  -2.123   1.312  0.00  0.00    +0.046 A 
ATOM     10  C   UNL     1      -2.613  -2.732   1.073  0.00  0.00    +0.013 A 
ATOM     11  C   UNL     1      -3.661  -2.000   0.515  0.00  0.00    +0.003 A 
ATOM     12  C   UNL     1      -3.478  -0.653   0.201  0.00  0.00    +0.013 A 
ATOM     13  C   UNL     1      -2.263  -0.049   0.448  0.00  0.00    +0.046 A 
BRANCH   8  15
ATOM     14  C   UNL     1       1.006  -0.997   1.804  0.00  0.00    +0.277 C 
ATOM     15  O   UNL     1      -0.023  -0.185   1.236  0.00  0.00    -0.495 OA
ENDBRANCH   8  15
ENDBRANCH   1  11
BRANCH   3  16
ATOM     16  C   UNL     1      -8.507  -2.716  -0.090  0.00  0.00    +0.060 A 
ATOM     17  C   UNL     1      -9.416  -3.725  -0.380  0.00  0.00    +0.028 A 
ATOM     18  C   UNL     1     -10.765  -3.438  -0.447  0.00  0.00    +0.034 A 
ATOM     19  C   UNL     1     -11.212  -2.148  -0.225  0.00  0.00    +0.126 A 
ATOM     20  C   UNL     1     -10.309  -1.141   0.064  0.00  0.00    +0.034 A 
ATOM     21  C   UNL     1      -8.959  -1.423   0.138  0.00  0.00    +0.028 A 
BRANCH  19  22
ATOM     22  N   UNL     1     -12.659  -1.845  -0.297  0.00  0.00    +0.056 N 
ATOM     23  O   UNL     1     -13.449  -2.724  -0.550  0.00  0.00    -0.126 OA
ATOM     24  O   UNL     1     -13.050  -0.718  -0.103  0.00  0.00    -0.126 OA
ENDBRANCH  19  22
ENDBRANCH   3  16
BRANCH   7  25
ATOM     25  N   UNL     1      -4.600  -6.345  -0.379  0.00  0.00    -0.342 N 
ATOM     26  H   UNL     1      -5.542  -6.575  -0.425  0.00  0.00    +0.146 HD
BRANCH  25  27
ATOM     27  C   UNL     1      -3.584  -7.392  -0.511  0.00  0.00    +0.175 C 
BRANCH  27  28
ATOM     28  C   UNL     1      -4.258  -8.725  -0.708  0.00  0.00    +0.122 A 
ATOM     29  C   UNL     1      -4.589  -9.272  -1.891  0.00  0.00    +0.046 A 
ATOM     30  C   UNL     1      -5.196 -10.518  -1.611  0.00  0.00    +0.041 A 
ATOM     31  C   UNL     1      -5.199 -10.658  -0.274  0.00  0.00    +0.195 A 
ATOM     32  O   UNL     1      -4.625  -9.572   0.268  0.00  0.00    -0.466 OA
ENDBRANCH  27  28
ENDBRANCH  25  27
ENDBRANCH   7  25
TORSDOF 7
