REMARK  Name = ZINC23915025
REMARK  8 active torsions:
REMARK  status: ('A' for Active; 'I' for Inactive)
REMARK    1  A    between atoms: C_1  and  C_2
REMARK    2  A    between atoms: C_2  and  C_3
REMARK    3  A    between atoms: C_2  and  C_4
REMARK    4  A    between atoms: C_4  and  C_6
REMARK    5  A    between atoms: C_4  and  N_19
REMARK    6  A    between atoms: N_8  and  N_9
REMARK    7  A    between atoms: C_10  and  C_12
REMARK    8  A    between atoms: C_20  and  C_22
REMARK                            x       y       z     vdW  Elec       q    Type
REMARK                         _______ _______ _______ _____ _____    ______ ____
ROOT
ATOM      1  C   UNL     1      -0.895   1.288   1.258  0.00  0.00    +0.250 C 
ATOM      2  O   UNL     1      -1.956   1.870   1.185  0.00  0.00    -0.272 OA
ATOM      3  N   UNL     1      -0.326   1.070   2.460  0.00  0.00    -0.233 N 
ATOM      4  H   UNL     1       0.594   0.472   2.533  0.00  0.00    +0.173 HD
ENDROOT
BRANCH   3   5
ATOM      5  N   UNL     1      -0.908   1.605   3.617  0.00  0.00    -0.229 N 
ATOM      6  C   UNL     1      -0.339   1.387   4.820  0.00  0.00    +0.276 C 
ATOM      7  O   UNL     1       0.679   0.726   4.901  0.00  0.00    -0.267 OA
ATOM      8  H   UNL     1      -1.828   2.204   3.544  0.00  0.00    +0.173 HD
BRANCH   6   9
ATOM      9  C   UNL     1      -0.948   1.948   6.031  0.00  0.00    +0.104 A 
ATOM     10  C   UNL     1      -0.481   1.801   7.320  0.00  0.00    +0.047 A 
ATOM     11  C   UNL     1      -1.359   2.498   8.157  0.00  0.00    +0.036 A 
ATOM     12  C   UNL     1      -2.331   3.038   7.382  0.00  0.00    +0.098 A 
ATOM     13  N   UNL     1      -2.092   2.711   6.088  0.00  0.00    -0.356 N 
ATOM     14  H   UNL     1      -2.639   2.951   5.165  0.00  0.00    +0.166 HD
ATOM     15 BR   UNL     1      -1.219   2.652  10.036  0.00  0.00    -0.049 Br
ENDBRANCH   6   9
ENDBRANCH   3   5
BRANCH   1  16
ATOM     16  C   UNL     1      -0.211   0.808   0.003  0.00  0.00    +0.163 C 
BRANCH  16  17
ATOM     17  N   UNL     1      -1.184   0.751  -1.091  0.00  0.00    -0.299 N 
ATOM     18  C   UNL     1      -0.981  -0.085  -2.129  0.00  0.00    +0.251 C 
ATOM     19  O   UNL     1       0.009  -0.791  -2.158  0.00  0.00    -0.270 OA
ATOM     20  H   UNL     1      -2.079   1.390  -1.065  0.00  0.00    +0.150 HD
BRANCH  18  21
ATOM     21  C   UNL     1      -1.954  -0.142  -3.224  0.00  0.00    +0.074 A 
ATOM     22  C   UNL     1      -1.935  -0.922  -4.370  0.00  0.00    +0.021 A 
ATOM     23  C   UNL     1      -2.985  -0.777  -5.242  0.00  0.00    +0.008 A 
ATOM     24  C   UNL     1      -3.975   0.106  -4.948  0.00  0.00    +0.046 A 
ATOM     25  S   UNL     1      -3.475   0.769  -3.426  0.00  0.00    -0.092 S 
ENDBRANCH  18  21
ENDBRANCH  16  17
BRANCH  16  27
ATOM     26  C   UNL     1       1.683   1.228  -1.571  0.00  0.00    +0.009 C 
ATOM     27  C   UNL     1       0.915   1.775  -0.366  0.00  0.00    +0.012 C 
ATOM     28  C   UNL     1       0.321   3.141  -0.716  0.00  0.00    +0.009 C 
ENDBRANCH  16  27
ENDBRANCH   1  16
TORSDOF 6
