REMARK  Name = ZINC13242828
REMARK  8 active torsions:
REMARK  status: ('A' for Active; 'I' for Inactive)
REMARK    1  A    between atoms: C_3  and  C_7
REMARK    2  A    between atoms: C_10  and  S_18
REMARK    3  A    between atoms: N_11  and  C_12
REMARK    4  A    between atoms: C_12  and  C_13
REMARK    5  A    between atoms: S_18  and  C_19
REMARK    6  A    between atoms: C_19  and  C_20
REMARK    7  A    between atoms: N_22  and  C_23
REMARK    8  A    between atoms: C_28  and  C_29
REMARK                            x       y       z     vdW  Elec       q    Type
REMARK                         _______ _______ _______ _____ _____    ______ ____
ROOT
ATOM      1  C   UNL     1      -1.299  -2.586   1.947  0.00  0.00    +0.167 A 
ATOM      2  N   UNL     1      -1.890  -2.574   3.119  0.00  0.00    -0.128 NA
ATOM      3  N   UNL     1      -2.669  -1.556   3.207  0.00  0.00    -0.122 NA
ATOM      4  C   UNL     1      -2.619  -0.852   2.098  0.00  0.00    +0.193 A 
ATOM      5  N   UNL     1      -1.743  -1.480   1.259  0.00  0.00    -0.295 N 
ENDROOT
BRANCH   1   8
ATOM      6  C   UNL     1       1.367  -4.303  -0.061  0.00  0.00    +0.020 A 
ATOM      7  C   UNL     1       0.482  -3.325   0.356  0.00  0.00    +0.014 A 
ATOM      8  C   UNL     1      -0.335  -3.595   1.459  0.00  0.00    +0.037 A 
ATOM      9  C   UNL     1      -0.221  -4.833   2.095  0.00  0.00    +0.122 A 
ATOM     10  N   UNL     1       0.634  -5.734   1.658  0.00  0.00    -0.263 NA
ATOM     11  C   UNL     1       1.416  -5.506   0.620  0.00  0.00    +0.111 A 
ENDBRANCH   1   8
BRANCH   5  12
ATOM     12  C   UNL     1      -1.361  -1.066  -0.093  0.00  0.00    +0.200 C 
BRANCH  12  13
ATOM     13  C   UNL     1      -0.275  -0.025  -0.012  0.00  0.00    +0.125 A 
ATOM     14  C   UNL     1       1.043  -0.269   0.103  0.00  0.00    +0.046 A 
ATOM     15  C   UNL     1       1.690   0.987   0.144  0.00  0.00    +0.041 A 
ATOM     16  C   UNL     1       0.730   1.924   0.053  0.00  0.00    +0.195 A 
ATOM     17  O   UNL     1      -0.459   1.305  -0.042  0.00  0.00    -0.466 OA
ENDBRANCH  12  13
ENDBRANCH   5  12
BRANCH   4  18
ATOM     18  S   UNL     1      -3.515   0.626   1.756  0.00  0.00    -0.077 S 
BRANCH  18  19
ATOM     19  C   UNL     1      -4.427   0.807   3.310  0.00  0.00    +0.173 C 
BRANCH  19  20
ATOM     20  C   UNL     1      -5.288   2.042   3.246  0.00  0.00    +0.228 C 
ATOM     21  O   UNL     1      -5.285   2.732   2.249  0.00  0.00    -0.275 OA
ATOM     22  N   UNL     1      -6.061   2.379   4.298  0.00  0.00    -0.284 N 
ATOM     23  H   UNL     1      -6.004   1.874   5.123  0.00  0.00    +0.155 HD
BRANCH  22  24
ATOM     24  C   UNL     1      -6.941   3.454   4.198  0.00  0.00    +0.050 A 
ATOM     25  C   UNL     1      -7.431   3.841   2.959  0.00  0.00    +0.062 A 
ATOM     26  C   UNL     1      -8.309   4.905   2.863  0.00  0.00    +0.125 A 
ATOM     27  C   UNL     1      -8.698   5.599   4.002  0.00  0.00    +0.039 A 
ATOM     28  C   UNL     1      -8.217   5.231   5.238  0.00  0.00    +0.020 A 
ATOM     29  C   UNL     1      -7.333   4.154   5.350  0.00  0.00    +0.084 A 
ATOM     30  F   UNL     1      -8.788   5.274   1.655  0.00  0.00    -0.205 F 
BRANCH  29  31
ATOM     31  C   UNL     1      -6.815   3.756   6.670  0.00  0.00    +0.388 C 
ATOM     32  O   UNL     1      -5.968   2.888   6.754  0.00  0.00    -0.241 OA
ATOM     33  O   UNL     1      -7.280   4.353   7.785  0.00  0.00    -0.241 OA
ENDBRANCH  29  31
ENDBRANCH  22  24
ENDBRANCH  19  20
ENDBRANCH  18  19
ENDBRANCH   4  18
TORSDOF 8
