REMARK  Name = ZINC39639135
REMARK  15 active torsions:
REMARK  status: ('A' for Active; 'I' for Inactive)
REMARK    1  A    between atoms: C_1  and  C_2
REMARK    2  A    between atoms: C_2  and  C_3
REMARK    3  A    between atoms: C_3  and  C_4
REMARK    4  A    between atoms: C_4  and  C_5
REMARK    5  A    between atoms: C_5  and  C_6
REMARK    6  A    between atoms: C_6  and  C_7
REMARK    7  A    between atoms: C_11  and  C_20
REMARK    8  A    between atoms: N_22  and  C_23
REMARK    9  A    between atoms: C_23  and  C_24
REMARK   10  A    between atoms: C_25  and  O_34
REMARK   11  A    between atoms: C_27  and  O_32
REMARK   12  A    between atoms: C_29  and  O_30
REMARK   13  A    between atoms: O_30  and  C_31
REMARK   14  A    between atoms: O_32  and  C_33
REMARK   15  A    between atoms: O_34  and  C_35
REMARK                            x       y       z     vdW  Elec       q    Type
REMARK                         _______ _______ _______ _____ _____    ______ ____
ROOT
ATOM      1  C   UNL     1       2.290  -4.554  -3.894  0.00  0.00    +0.216 C 
ATOM      2  O   UNL     1       2.695  -3.779  -4.735  0.00  0.00    -0.276 OA
ATOM      3  N   UNL     1       2.381  -5.882  -4.102  0.00  0.00    -0.300 N 
ATOM      4  C   UNL     1       1.940  -6.974  -3.202  0.00  0.00    +0.121 C 
ATOM      5  C   UNL     1       1.336  -8.038  -4.147  0.00  0.00    +0.100 C 
ATOM      6  C   UNL     1       2.001  -7.776  -5.509  0.00  0.00    -0.004 C 
ATOM      7  C   UNL     1       2.939  -6.581  -5.284  0.00  0.00    +0.115 C 
ATOM      8  C   UNL     1       2.798  -8.999  -5.952  0.00  0.00    -0.010 C 
ATOM      9  C   UNL     1       3.402  -8.736  -7.334  0.00  0.00    -0.082 C 
ATOM     10  N   UNL     1       2.327  -8.454  -8.293  0.00  0.00    +0.379 N 
ATOM     11  C   UNL     1       1.625  -7.223  -7.910  0.00  0.00    -0.082 C 
ATOM     12  C   UNL     1       0.946  -7.422  -6.552  0.00  0.00    -0.010 C 
ATOM     13  H   UNL     1       2.722  -8.341  -9.215  0.00  0.00    -0.086 HD
ATOM     14  H   UNL     1       1.675  -9.223  -8.302  0.00  0.00    -0.086 HD
ENDROOT
BRANCH   5  15
ATOM     15  C   UNL     1       1.668  -9.424  -3.656  0.00  0.00    +0.218 C 
ATOM     16  O   UNL     1       2.700  -9.622  -3.052  0.00  0.00    -0.275 OA
ATOM     17  N   UNL     1       0.817 -10.443  -3.889  0.00  0.00    -0.311 N 
ATOM     18  H   UNL     1      -0.009 -10.284  -4.373  0.00  0.00    +0.149 HD
BRANCH  17  19
ATOM     19  C   UNL     1       1.139 -11.790  -3.413  0.00  0.00    +0.147 C 
BRANCH  19  20
ATOM     20  C   UNL     1       0.033 -12.738  -3.800  0.00  0.00    +0.053 A 
ATOM     21  C   UNL     1      -1.040 -12.937  -2.945  0.00  0.00    +0.132 A 
ATOM     22  C   UNL     1      -2.058 -13.809  -3.301  0.00  0.00    +0.091 A 
ATOM     23  C   UNL     1      -2.003 -14.481  -4.513  0.00  0.00    +0.127 A 
ATOM     24  C   UNL     1      -0.930 -14.281  -5.368  0.00  0.00    +0.091 A 
ATOM     25  C   UNL     1       0.086 -13.406  -5.014  0.00  0.00    +0.132 A 
BRANCH  25  26
ATOM     26  O   UNL     1       1.135 -13.206  -5.854  0.00  0.00    -0.495 OA
ATOM     27  C   UNL     1       1.124 -13.927  -7.088  0.00  0.00    +0.277 C 
ENDBRANCH  25  26
BRANCH  23  28
ATOM     28  O   UNL     1      -2.999 -15.337  -4.861  0.00  0.00    -0.495 OA
ATOM     29  C   UNL     1      -2.877 -15.995  -6.124  0.00  0.00    +0.277 C 
ENDBRANCH  23  28
BRANCH  21  30
ATOM     30  O   UNL     1      -1.095 -12.278  -1.757  0.00  0.00    -0.495 OA
ATOM     31  C   UNL     1      -2.229 -12.531  -0.926  0.00  0.00    +0.277 C 
ENDBRANCH  21  30
ENDBRANCH  19  20
ENDBRANCH  17  19
ENDBRANCH   5  15
BRANCH   1  32
ATOM     32  C   UNL     1       1.686  -4.030  -2.617  0.00  0.00    +0.096 C 
BRANCH  32  33
ATOM     33  C   UNL     1       1.703  -2.500  -2.634  0.00  0.00    +0.009 C 
BRANCH  33  34
ATOM     34  C   UNL     1       1.089  -1.969  -1.337  0.00  0.00    +0.000 C 
BRANCH  34  35
ATOM     35  C   UNL     1       1.106  -0.439  -1.354  0.00  0.00    -0.000 C 
BRANCH  35  37
ATOM     36  C   UNL     1       0.509   1.622  -0.074  0.00  0.00    +0.004 C 
ATOM     37  C   UNL     1       0.492   0.092  -0.057  0.00  0.00    -0.003 C 
ENDBRANCH  35  37
ENDBRANCH  34  35
ENDBRANCH  33  34
ENDBRANCH  32  33
ENDBRANCH   1  32
TORSDOF 11
