REMARK  Name = ZINC03412357
REMARK  12 active torsions:
REMARK  status: ('A' for Active; 'I' for Inactive)
REMARK    1  A    between atoms: C_1  and  N_2
REMARK    2  A    between atoms: C_5  and  C_18
REMARK    3  A    between atoms: C_6  and  N_17
REMARK    4  A    between atoms: N_7  and  C_10
REMARK    5  A    between atoms: C_10  and  C_11
REMARK    6  A    between atoms: C_18  and  C_20
REMARK    7  A    between atoms: C_20  and  N_21
REMARK    8  A    between atoms: N_21  and  C_22
REMARK    9  A    between atoms: C_27  and  C_28
REMARK   10  A    between atoms: C_28  and  N_71
REMARK   11  A    between atoms: C_29  and  N_71
REMARK   12  A    between atoms: C_30  and  N_71
REMARK                            x       y       z     vdW  Elec       q    Type
REMARK                         _______ _______ _______ _____ _____    ______ ____
ROOT
ATOM      1  C   UNL     1      -0.013   1.213  -0.018  0.00  0.00    +0.188 C 
ATOM      2  O   UNL     1       0.004  -0.002  -0.008  0.00  0.00    -0.290 OA
ENDROOT
BRANCH   1   7
ATOM      3  C   UNL     1      -2.573   5.429   0.257  0.00  0.00    +0.157 C 
ATOM      4  N   UNL     1      -2.499   3.970   0.140  0.00  0.00    -0.263 N 
ATOM      5  C   UNL     1      -1.295   3.363   0.130  0.00  0.00    +0.269 A 
ATOM      6  O   UNL     1      -0.270   4.014   0.216  0.00  0.00    -0.267 OA
ATOM      7  C   UNL     1      -1.246   1.900   0.005  0.00  0.00    +0.121 A 
ATOM      8  C   UNL     1      -2.465   1.207  -0.085  0.00  0.00    +0.116 A 
ATOM      9  N   UNL     1      -3.632   1.917  -0.058  0.00  0.00    -0.277 N 
ATOM     10  C   UNL     1      -3.632   3.255   0.051  0.00  0.00    +0.333 A 
ATOM     11  O   UNL     1      -4.697   3.840   0.070  0.00  0.00    -0.246 OA
BRANCH   8  12
ATOM     12  N   UNL     1      -2.483  -0.149  -0.197  0.00  0.00    -0.344 N 
ATOM     13  H   UNL     1      -1.656  -0.651  -0.133  0.00  0.00    +0.144 HD
ATOM     14  H   UNL     1      -3.323  -0.612  -0.340  0.00  0.00    +0.144 HD
ENDBRANCH   8  12
BRANCH   9  15
ATOM     15  C   UNL     1      -4.908   1.204  -0.151  0.00  0.00    +0.163 C 
BRANCH  15  16
ATOM     16  C   UNL     1      -5.384   0.843   1.233  0.00  0.00    -0.028 A 
ATOM     17  C   UNL     1      -5.020  -0.366   1.796  0.00  0.00    +0.005 A 
ATOM     18  C   UNL     1      -5.453  -0.694   3.067  0.00  0.00    +0.000 A 
ATOM     19  C   UNL     1      -6.258   0.181   3.771  0.00  0.00    +0.000 A 
ATOM     20  C   UNL     1      -6.626   1.388   3.206  0.00  0.00    +0.000 A 
ATOM     21  C   UNL     1      -6.189   1.719   1.937  0.00  0.00    +0.005 A 
ENDBRANCH  15  16
ENDBRANCH   9  15
ENDBRANCH   1   7
BRANCH   1  22
ATOM     22  C   UNL     1       1.280   1.985  -0.061  0.00  0.00    +0.181 C 
BRANCH  22  23
ATOM     23  N   UNL     1       2.407   1.049  -0.085  0.00  0.00    -0.336 N 
ATOM     24  H   UNL     1       2.244   0.093  -0.072  0.00  0.00    +0.147 HD
BRANCH  23  25
ATOM     25  C   UNL     1       3.716   1.534  -0.126  0.00  0.00    +0.029 A 
ATOM     26  C   UNL     1       3.952   2.903  -0.144  0.00  0.00    +0.023 A 
ATOM     27  C   UNL     1       5.247   3.378  -0.185  0.00  0.00    +0.002 A 
ATOM     28  C   UNL     1       6.310   2.493  -0.206  0.00  0.00    +0.000 A 
ATOM     29  C   UNL     1       6.079   1.130  -0.188  0.00  0.00    +0.003 A 
ATOM     30  C   UNL     1       4.786   0.648  -0.143  0.00  0.00    -0.043 A 
BRANCH  30  31
ATOM     31  C   UNL     1       4.535  -0.838  -0.117  0.00  0.00    -0.041 C 
BRANCH  31  33
ATOM     32  C   UNL     1       5.315  -1.151  -2.388  0.00  0.00    -0.095 C 
ATOM     33  N   UNL     1       4.159  -1.282  -1.476  0.00  0.00    +0.382 N 
ATOM     34  H   UNL     1       3.394  -0.690  -1.820  0.00  0.00    -0.081 HD
BRANCH  33  35
ATOM     35  C   UNL     1       3.701  -2.687  -1.440  0.00  0.00    -0.069 C 
ATOM     36  C   UNL     1       4.839  -3.611  -1.002  0.00  0.00    -0.015 C 
ATOM     37  C   UNL     1       4.339  -5.057  -0.974  0.00  0.00    -0.002 C 
ATOM     38  C   UNL     1       3.863  -5.459  -2.372  0.00  0.00    -0.000 C 
ATOM     39  C   UNL     1       2.725  -4.535  -2.809  0.00  0.00    -0.002 C 
ATOM     40  C   UNL     1       3.225  -3.089  -2.837  0.00  0.00    -0.015 C 
ENDBRANCH  33  35
ENDBRANCH  31  33
ENDBRANCH  30  31
ENDBRANCH  23  25
ENDBRANCH  22  23
ENDBRANCH   1  22
TORSDOF 10
