REMARK  Name = ZINC16945065
REMARK  6 active torsions:
REMARK  status: ('A' for Active; 'I' for Inactive)
REMARK    1  A    between atoms: C_6  and  N_7
REMARK    2  A    between atoms: C_12  and  C_14
REMARK    3  A    between atoms: C_14  and  C_15
REMARK    4  A    between atoms: C_15  and  C_17
REMARK    5  A    between atoms: C_17  and  S_18
REMARK    6  A    between atoms: S_18  and  C_19
REMARK                            x       y       z     vdW  Elec       q    Type
REMARK                         _______ _______ _______ _____ _____    ______ ____
ROOT
ATOM      1  N   UNL     1      -1.171  -0.707   0.010  0.00  0.00    -0.326 N 
ATOM      2  C   UNL     1      -1.153  -2.026  -0.097  0.00  0.00    +0.210 A 
ATOM      3  N   UNL     1      -2.300  -2.715  -0.197  0.00  0.00    -0.181 NA
ATOM      4  C   UNL     1      -2.271  -4.033  -0.304  0.00  0.00    +0.217 A 
ATOM      5  N   UNL     1      -1.105  -4.697  -0.315  0.00  0.00    -0.201 NA
ATOM      6  C   UNL     1       0.033  -4.058  -0.220  0.00  0.00    +0.120 A 
ATOM      7  N   UNL     1       0.045  -2.709  -0.114  0.00  0.00    -0.313 N 
ATOM      8  N   UNL     1      -3.449  -4.732  -0.405  0.00  0.00    -0.327 N 
ATOM      9  H   UNL     1      -4.296  -4.258  -0.397  0.00  0.00    +0.145 HD
ATOM     10  H   UNL     1      -3.435  -5.699  -0.484  0.00  0.00    +0.145 HD
ATOM     11  H   UNL     1       0.885  -2.230  -0.047  0.00  0.00    +0.170 HD
ATOM     12  H   UNL     1      -2.014  -0.241   0.127  0.00  0.00    +0.169 HD
ENDROOT
BRANCH   1  18
ATOM     13  C   UNL     1       0.982  -0.342  -0.976  0.00  0.00    +0.028 A 
ATOM     14  C   UNL     1       2.159   0.375  -1.026  0.00  0.00    +0.040 A 
ATOM     15  C   UNL     1       2.368   1.431  -0.154  0.00  0.00    +0.124 A 
ATOM     16  C   UNL     1       1.397   1.775   0.772  0.00  0.00    +0.040 A 
ATOM     17  C   UNL     1       0.215   1.066   0.832  0.00  0.00    +0.028 A 
ATOM     18  C   UNL     1      -0.001  -0.000  -0.044  0.00  0.00    +0.042 A 
ATOM     19  F   UNL     1       3.524   2.129  -0.208  0.00  0.00    -0.205 F 
ENDBRANCH   1  18
BRANCH   6  20
ATOM     20  C   UNL     1       1.331  -4.824  -0.234  0.00  0.00    +0.149 C 
BRANCH  20  21
ATOM     21  C   UNL     1       1.043  -6.297  -0.366  0.00  0.00    +0.151 C 
ATOM     22  O   UNL     1      -0.099  -6.685  -0.440  0.00  0.00    -0.296 OA
BRANCH  21  23
ATOM     23  C   UNL     1       2.179  -7.287  -0.405  0.00  0.00    +0.149 C 
BRANCH  23  24
ATOM     24  S   UNL     1       1.513  -8.966  -0.567  0.00  0.00    -0.118 S 
BRANCH  24  25
ATOM     25  C   UNL     1       2.945  -9.992  -0.598  0.00  0.00    +0.008 A 
ATOM     26  C   UNL     1       4.210  -9.425  -0.498  0.00  0.00    +0.016 A 
ATOM     27  C   UNL     1       5.330 -10.231  -0.523  0.00  0.00    +0.021 A 
ATOM     28  C   UNL     1       5.195 -11.603  -0.646  0.00  0.00    +0.041 A 
ATOM     29  C   UNL     1       3.937 -12.171  -0.746  0.00  0.00    +0.021 A 
ATOM     30  C   UNL     1       2.812 -11.370  -0.716  0.00  0.00    +0.016 A 
ATOM     31 CL   UNL     1       6.607 -12.613  -0.677  0.00  0.00    -0.084 Cl
ENDBRANCH  24  25
ENDBRANCH  23  24
ENDBRANCH  21  23
ENDBRANCH  20  21
ENDBRANCH   6  20
TORSDOF 6
