REMARK  Name = ZINC04320916
REMARK  4 active torsions:
REMARK  status: ('A' for Active; 'I' for Inactive)
REMARK    1  A    between atoms: C_1  and  O_2
REMARK    2  A    between atoms: O_2  and  C_3
REMARK    3  A    between atoms: C_6  and  C_12
REMARK    4  A    between atoms: C_8  and  N_9
REMARK                            x       y       z     vdW  Elec       q    Type
REMARK                         _______ _______ _______ _____ _____    ______ ____
ROOT
ATOM      1  C   UNL     1      -1.054   3.047   1.159  0.00  0.00    +0.105 C 
ATOM      2  C   UNL     1      -0.517   1.821   1.901  0.00  0.00    +0.029 C 
ATOM      3  C   UNL     1       0.506   2.318   2.961  0.00  0.00    +0.033 C 
ATOM      4  C   UNL     1       1.784   2.498   2.166  0.00  0.00    -0.030 C 
ATOM      5  C   UNL     1       1.743   1.791   1.064  0.00  0.00    -0.023 C 
ATOM      6  C   UNL     1       0.432   1.045   0.963  0.00  0.00    +0.049 C 
ATOM      7  C   UNL     1      -0.061   1.032  -0.454  0.00  0.00    -0.017 A 
ATOM      8  C   UNL     1       0.610   0.231  -1.370  0.00  0.00    +0.006 A 
ATOM      9  C   UNL     1       0.206   0.179  -2.688  0.00  0.00    +0.003 A 
ATOM     10  C   UNL     1      -0.878   0.928  -3.110  0.00  0.00    +0.040 A 
ATOM     11  C   UNL     1      -1.571   1.756  -2.190  0.00  0.00    +0.144 A 
ATOM     12  C   UNL     1      -1.157   1.798  -0.857  0.00  0.00    +0.067 A 
ATOM     13  N   UNL     1      -1.871   2.611   0.026  0.00  0.00    -0.334 N 
ATOM     14  F   UNL     1      -2.632   2.491  -2.587  0.00  0.00    -0.204 F 
ATOM     15  H   UNL     1      -2.711   2.150   0.342  0.00  0.00    +0.147 HD
ENDROOT
BRANCH   1  19
ATOM     16  C   UNL     1       2.218   5.398  -0.265  0.00  0.00    +0.150 A 
ATOM     17  C   UNL     1       1.560   4.530  -1.125  0.00  0.00    +0.048 A 
ATOM     18  C   UNL     1       0.503   3.771  -0.662  0.00  0.00    +0.009 A 
ATOM     19  C   UNL     1       0.100   3.876   0.657  0.00  0.00    -0.025 A 
ATOM     20  C   UNL     1       0.750   4.745   1.514  0.00  0.00    +0.042 A 
ATOM     21  C   UNL     1       1.812   5.502   1.057  0.00  0.00    +0.168 A 
BRANCH  21  22
ATOM     22  N   UNL     1       2.511   6.427   1.977  0.00  0.00    +0.060 N 
ATOM     23  O   UNL     1       2.154   6.518   3.138  0.00  0.00    -0.126 OA
ATOM     24  O   UNL     1       3.444   7.098   1.573  0.00  0.00    -0.126 OA
ENDBRANCH  21  22
BRANCH  16  26
ATOM     25  C   UNL     1       3.622   5.989  -2.091  0.00  0.00    +0.277 C 
ATOM     26  O   UNL     1       3.259   6.146  -0.718  0.00  0.00    -0.493 OA
ENDBRANCH  16  26
ENDBRANCH   1  19
TORSDOF 3
