REMARK  Name = ZINC09492741
REMARK  10 active torsions:
REMARK  status: ('A' for Active; 'I' for Inactive)
REMARK    1  A    between atoms: C_3  and  N_9
REMARK    2  A    between atoms: C_6  and  C_7
REMARK    3  A    between atoms: C_10  and  C_12
REMARK    4  A    between atoms: C_12  and  N_13
REMARK    5  A    between atoms: N_13  and  C_14
REMARK    6  A    between atoms: C_16  and  S_28
REMARK    7  A    between atoms: C_19  and  N_20
REMARK    8  A    between atoms: N_20  and  C_21
REMARK    9  A    between atoms: C_21  and  C_22
REMARK   10  A    between atoms: S_28  and  N_31
REMARK                            x       y       z     vdW  Elec       q    Type
REMARK                         _______ _______ _______ _____ _____    ______ ____
ROOT
ATOM      1  C   UNL     1       8.477   1.815   0.358  0.00  0.00    +0.051 A 
ATOM      2  C   UNL     1       8.706   3.182   0.391  0.00  0.00    +0.053 A 
ATOM      3  C   UNL     1       9.998   3.664   0.495  0.00  0.00    +0.107 A 
ATOM      4  C   UNL     1      11.064   2.786   0.567  0.00  0.00    +0.030 A 
ATOM      5  C   UNL     1      10.844   1.421   0.535  0.00  0.00    +0.027 A 
ATOM      6  C   UNL     1       9.551   0.929   0.436  0.00  0.00    +0.048 A 
ENDROOT
BRANCH   3   7
ATOM      7  S   UNL     1      10.287   5.401   0.536  0.00  0.00    +0.061 S 
ATOM      8  O   UNL     1      11.620   5.602   0.088  0.00  0.00    -0.153 OA
ATOM      9  O   UNL     1       9.171   6.014  -0.095  0.00  0.00    -0.153 OA
BRANCH   7  10
ATOM     10  N   UNL     1      10.246   5.867   2.125  0.00  0.00    -0.172 NA
ATOM     11  C   UNL     1       8.986   6.282   2.761  0.00  0.00    +0.137 C 
ATOM     12  C   UNL     1       8.825   5.503   4.071  0.00  0.00    +0.177 C 
ATOM     13  O   UNL     1      10.011   5.650   4.855  0.00  0.00    -0.377 OA
ATOM     14  C   UNL     1      11.187   5.117   4.244  0.00  0.00    +0.177 C 
ATOM     15  C   UNL     1      11.469   5.872   2.945  0.00  0.00    +0.137 C 
ENDBRANCH   7  10
ENDBRANCH   3   7
BRANCH   1  16
ATOM     16  N   UNL     1       7.169   1.325   0.253  0.00  0.00    -0.334 N 
ATOM     17  H   UNL     1       7.010   0.368   0.234  0.00  0.00    +0.147 HD
BRANCH  16  18
ATOM     18  C   UNL     1       6.042   2.257   0.172  0.00  0.00    +0.198 C 
BRANCH  18  20
ATOM     19  N   UNL     1       3.579   2.133  -0.021  0.00  0.00    -0.284 N 
ATOM     20  C   UNL     1       4.755   1.480   0.066  0.00  0.00    +0.234 C 
ATOM     21  O   UNL     1       4.777   0.268   0.060  0.00  0.00    -0.274 OA
ATOM     22  H   UNL     1       3.566   3.100  -0.093  0.00  0.00    +0.155 HD
BRANCH  19  25
ATOM     23  C   UNL     1       1.097  -0.457   0.759  0.00  0.00    +0.020 A 
ATOM     24  C   UNL     1       2.278   0.251   0.744  0.00  0.00    +0.024 A 
ATOM     25  C   UNL     1       2.381   1.418  -0.007  0.00  0.00    +0.034 A 
ATOM     26  C   UNL     1       1.292   1.873  -0.744  0.00  0.00    +0.024 A 
ATOM     27  C   UNL     1       0.109   1.170  -0.733  0.00  0.00    +0.020 A 
ATOM     28  C   UNL     1       0.002  -0.003   0.019  0.00  0.00    +0.052 A 
BRANCH  28  29
ATOM     29  C   UNL     1      -1.228  -0.737   0.033  0.00  0.00    +0.099 C 
ATOM     30  N   UNL     1      -2.203  -1.320   0.043  0.00  0.00    -0.191 NA
ENDBRANCH  28  29
ENDBRANCH  19  25
ENDBRANCH  18  20
ENDBRANCH  16  18
ENDBRANCH   1  16
BRANCH   6  31
ATOM     31  N   UNL     1       9.326  -0.453   0.408  0.00  0.00    -0.340 N 
ATOM     32  H   UNL     1       8.421  -0.795   0.335  0.00  0.00    +0.146 HD
BRANCH  31  33
ATOM     33  C   UNL     1      10.457  -1.381   0.490  0.00  0.00    +0.133 C 
BRANCH  33  34
ATOM     34  C   UNL     1       9.939  -2.820   0.439  0.00  0.00    +0.135 C 
ATOM     35  C   UNL     1      11.117  -3.819   0.559  0.00  0.00    +0.035 C 
ATOM     36  C   UNL     1      10.388  -5.068   1.126  0.00  0.00    +0.031 C 
ATOM     37  C   UNL     1       9.303  -4.434   2.023  0.00  0.00    +0.160 C 
ATOM     38  O   UNL     1       9.100  -3.088   1.574  0.00  0.00    -0.375 OA
ENDBRANCH  33  34
ENDBRANCH  31  33
ENDBRANCH   6  31
TORSDOF 10
