REMARK  Name = ZINC46667217
REMARK  11 active torsions:
REMARK  status: ('A' for Active; 'I' for Inactive)
REMARK    1  A    between atoms: C_1  and  C_2
REMARK    2  A    between atoms: C_2  and  C_3
REMARK    3  A    between atoms: C_3  and  C_4
REMARK    4  A    between atoms: C_4  and  N_5
REMARK    5  A    between atoms: C_9  and  S_28
REMARK    6  A    between atoms: C_13  and  C_14
REMARK    7  A    between atoms: C_14  and  O_15
REMARK    8  A    between atoms: O_15  and  C_16
REMARK    9  A    between atoms: C_16  and  C_18
REMARK   10  A    between atoms: C_19  and  N_23
REMARK   11  A    between atoms: S_28  and  N_31
REMARK                            x       y       z     vdW  Elec       q    Type
REMARK                         _______ _______ _______ _____ _____    ______ ____
ROOT
ATOM      1  N   UNL     1      -2.787  -2.571   0.015  0.00  0.00    -0.325 N 
ATOM      2  C   UNL     1      -3.546  -2.855   1.133  0.00  0.00    +0.069 A 
ATOM      3  C   UNL     1      -3.320  -2.776   2.500  0.00  0.00    +0.030 A 
ATOM      4  C   UNL     1      -4.315  -3.147   3.379  0.00  0.00    +0.030 A 
ATOM      5  C   UNL     1      -5.540  -3.597   2.906  0.00  0.00    +0.107 A 
ATOM      6  C   UNL     1      -5.780  -3.681   1.563  0.00  0.00    +0.058 A 
ATOM      7  C   UNL     1      -4.786  -3.310   0.654  0.00  0.00    +0.091 A 
ATOM      8  N   UNL     1      -4.721  -3.281  -0.702  0.00  0.00    -0.229 NA
ATOM      9  C   UNL     1      -3.554  -2.843  -1.075  0.00  0.00    +0.149 A 
ENDROOT
BRANCH   5  10
ATOM     10  S   UNL     1      -6.797  -4.066   4.047  0.00  0.00    +0.056 S 
ATOM     11  O   UNL     1      -7.654  -4.967   3.360  0.00  0.00    -0.153 OA
ATOM     12  O   UNL     1      -6.138  -4.414   5.257  0.00  0.00    -0.153 OA
BRANCH  10  13
ATOM     13  N   UNL     1      -7.695  -2.712   4.370  0.00  0.00    -0.204 NA
ATOM     14  H   UNL     1      -7.471  -1.869   3.946  0.00  0.00    +0.144 HD
ATOM     15  H   UNL     1      -8.444  -2.762   4.984  0.00  0.00    +0.144 HD
ENDBRANCH  10  13
ENDBRANCH   5  10
BRANCH   1  16
ATOM     16  C   UNL     1      -1.413  -2.063   0.004  0.00  0.00    +0.123 C 
BRANCH  16  17
ATOM     17  C   UNL     1      -1.433  -0.534   0.013  0.00  0.00    +0.021 C 
BRANCH  17  19
ATOM     18  C   UNL     1      -0.019   1.526   0.010  0.00  0.00    +0.004 C 
ATOM     19  C   UNL     1       0.002  -0.004   0.002  0.00  0.00    -0.002 C 
ENDBRANCH  17  19
ENDBRANCH  16  17
ENDBRANCH   1  16
BRANCH   9  20
ATOM     20  C   UNL     1      -3.115  -2.667  -2.506  0.00  0.00    +0.306 C 
BRANCH  20  21
ATOM     21  O   UNL     1      -2.509  -3.875  -2.970  0.00  0.00    -0.453 OA
BRANCH  21  22
ATOM     22  C   UNL     1      -2.058  -3.885  -4.242  0.00  0.00    +0.348 C 
ATOM     23  O   UNL     1      -2.176  -2.893  -4.937  0.00  0.00    -0.244 OA
BRANCH  22  24
ATOM     24  C   UNL     1      -1.446  -5.050  -4.769  0.00  0.00    +0.122 A 
ATOM     25  C   UNL     1      -0.914  -5.265  -6.039  0.00  0.00    +0.090 A 
ATOM     26  C   UNL     1      -0.381  -6.520  -6.253  0.00  0.00    +0.036 A 
ATOM     27  C   UNL     1      -0.410  -7.428  -5.249  0.00  0.00    +0.048 A 
ATOM     28  S   UNL     1      -1.150  -6.619  -3.976  0.00  0.00    -0.088 S 
BRANCH  25  29
ATOM     29  N   UNL     1      -0.919  -4.277  -7.029  0.00  0.00    -0.199 N 
ATOM     30  C   UNL     1      -0.440  -4.374  -8.289  0.00  0.00    +0.250 A 
ATOM     31  N   UNL     1      -0.648  -3.223  -8.873  0.00  0.00    -0.116 NA
ATOM     32  N   UNL     1      -1.226  -2.405  -8.070  0.00  0.00    -0.023 NA
ATOM     33  N   UNL     1      -1.431  -2.971  -6.929  0.00  0.00    -0.039 NA
ENDBRANCH  25  29
ENDBRANCH  22  24
ENDBRANCH  21  22
ENDBRANCH  20  21
ENDBRANCH   9  20
TORSDOF 10
