REMARK  Name = ZINC14397081
REMARK  8 active torsions:
REMARK  status: ('A' for Active; 'I' for Inactive)
REMARK    1  A    between atoms: C_1  and  C_2
REMARK    2  A    between atoms: C_5  and  N_28
REMARK    3  A    between atoms: C_7  and  S_8
REMARK    4  A    between atoms: S_8  and  N_11
REMARK    5  A    between atoms: N_11  and  C_12
REMARK    6  A    between atoms: C_15  and  S_18
REMARK    7  A    between atoms: S_18  and  N_21
REMARK    8  A    between atoms: N_21  and  C_22
REMARK                            x       y       z     vdW  Elec       q    Type
REMARK                         _______ _______ _______ _____ _____    ______ ____
ROOT
ATOM      1  C   UNL     1      -6.208   3.277   1.265  0.00  0.00    +0.048 A 
ATOM      2  C   UNL     1      -5.536   4.486   1.138  0.00  0.00    +0.026 A 
ATOM      3  C   UNL     1      -6.135   5.656   1.561  0.00  0.00    +0.030 A 
ATOM      4  C   UNL     1      -7.400   5.623   2.120  0.00  0.00    +0.109 A 
ATOM      5  C   UNL     1      -8.070   4.421   2.252  0.00  0.00    +0.030 A 
ATOM      6  C   UNL     1      -7.479   3.248   1.826  0.00  0.00    +0.026 A 
ENDROOT
BRANCH   4   7
ATOM      7  S   UNL     1      -8.159   7.118   2.665  0.00  0.00    +0.072 S 
ATOM      8  O   UNL     1      -7.633   8.159   1.854  0.00  0.00    -0.150 OA
ATOM      9  O   UNL     1      -9.552   6.855   2.759  0.00  0.00    -0.150 OA
BRANCH   7  10
ATOM     10  N   UNL     1      -7.625   7.404   4.206  0.00  0.00    -0.216 N 
ATOM     11  H   UNL     1      -8.251   7.383   4.947  0.00  0.00    +0.174 HD
BRANCH  10  12
ATOM     12  C   UNL     1      -6.275   7.674   4.439  0.00  0.00    +0.048 A 
ATOM     13  C   UNL     1      -5.468   6.718   5.043  0.00  0.00    +0.024 A 
ATOM     14  C   UNL     1      -4.132   6.986   5.267  0.00  0.00    +0.002 A 
ATOM     15  C   UNL     1      -3.600   8.210   4.902  0.00  0.00    +0.000 A 
ATOM     16  C   UNL     1      -4.402   9.165   4.306  0.00  0.00    +0.002 A 
ATOM     17  C   UNL     1      -5.737   8.901   4.074  0.00  0.00    +0.024 A 
ENDBRANCH  10  12
ENDBRANCH   7  10
ENDBRANCH   4   7
BRANCH   1  18
ATOM     18  N   UNL     1      -5.607   2.093   0.834  0.00  0.00    -0.216 N 
ATOM     19  H   UNL     1      -5.624   1.306   1.401  0.00  0.00    +0.174 HD
BRANCH  18  20
ATOM     20  S   UNL     1      -4.864   2.032  -0.645  0.00  0.00    +0.073 S 
ATOM     21  O   UNL     1      -5.763   2.621  -1.575  0.00  0.00    -0.150 OA
ATOM     22  O   UNL     1      -4.370   0.708  -0.797  0.00  0.00    -0.150 OA
BRANCH  20  29
ATOM     23  C   UNL     1      -2.482   1.558   1.158  0.00  0.00    +0.046 C 
ATOM     24  C   UNL     1      -2.415   2.789   0.291  0.00  0.00    -0.024 A 
ATOM     25  C   UNL     1      -1.311   3.619   0.353  0.00  0.00    +0.007 A 
ATOM     26  C   UNL     1      -1.247   4.745  -0.445  0.00  0.00    +0.033 A 
ATOM     27  C   UNL     1      -2.292   5.048  -1.298  0.00  0.00    +0.128 A 
ATOM     28  C   UNL     1      -3.395   4.219  -1.361  0.00  0.00    +0.061 A 
ATOM     29  C   UNL     1      -3.457   3.089  -0.566  0.00  0.00    +0.114 A 
BRANCH  27  30
ATOM     30  N   UNL     1      -2.225   6.258  -2.149  0.00  0.00    +0.056 N 
ATOM     31  O   UNL     1      -3.144   6.522  -2.905  0.00  0.00    -0.126 OA
ATOM     32  O   UNL     1      -1.255   6.991  -2.091  0.00  0.00    -0.126 OA
ENDBRANCH  27  30
ENDBRANCH  20  29
ENDBRANCH  18  20
ENDBRANCH   1  18
TORSDOF 7
