REMARK  Name = ZINC35374205
REMARK  9 active torsions:
REMARK  status: ('A' for Active; 'I' for Inactive)
REMARK    1  A    between atoms: C_1  and  C_2
REMARK    2  A    between atoms: C_2  and  N_3
REMARK    3  A    between atoms: C_6  and  C_8
REMARK    4  A    between atoms: N_9  and  C_21
REMARK    5  A    between atoms: N_12  and  C_15
REMARK    6  A    between atoms: C_15  and  C_16
REMARK    7  A    between atoms: C_21  and  C_22
REMARK    8  A    between atoms: N_24  and  C_25
REMARK    9  A    between atoms: C_28  and  C_31
REMARK                            x       y       z     vdW  Elec       q    Type
REMARK                         _______ _______ _______ _____ _____    ______ ____
ROOT
ATOM      1  N   UNL     1       0.711  -0.474   1.201  0.00  0.00    -0.257 N 
ATOM      2  C   UNL     1       2.051  -0.721   1.268  0.00  0.00    +0.150 A 
ATOM      3  C   UNL     1       2.300  -1.167   2.566  0.00  0.00    +0.100 A 
ATOM      4  C   UNL     1       1.057  -1.156   3.204  0.00  0.00    +0.084 A 
ATOM      5  N   UNL     1       0.169  -0.731   2.340  0.00  0.00    -0.174 NA
ATOM      6  C   UNL     1       0.788  -1.555   4.632  0.00  0.00    +0.070 C 
ATOM      7  N   UNL     1       3.596  -1.498   2.927  0.00  0.00    -0.281 N 
ATOM      8  C   UNL     1       4.602  -1.391   2.039  0.00  0.00    +0.333 A 
ATOM      9  O   UNL     1       5.727  -1.690   2.389  0.00  0.00    -0.246 OA
ATOM     10  N   UNL     1       4.406  -0.967   0.780  0.00  0.00    -0.252 N 
ATOM     11  C   UNL     1       3.176  -0.623   0.341  0.00  0.00    +0.283 A 
ATOM     12  O   UNL     1       3.008  -0.239  -0.802  0.00  0.00    -0.265 OA
ENDROOT
BRANCH   1  14
ATOM     13  C   UNL     1      -0.012   1.544   0.025  0.00  0.00    +0.029 C 
ATOM     14  C   UNL     1       0.000   0.014   0.017  0.00  0.00    +0.141 C 
ENDBRANCH   1  14
BRANCH  10  15
ATOM     15  C   UNL     1       5.548  -0.875  -0.134  0.00  0.00    +0.204 C 
BRANCH  15  16
ATOM     16  C   UNL     1       5.714  -2.183  -0.863  0.00  0.00    +0.125 A 
ATOM     17  C   UNL     1       5.143  -2.507  -2.038  0.00  0.00    +0.046 A 
ATOM     18  C   UNL     1       5.567  -3.818  -2.351  0.00  0.00    +0.041 A 
ATOM     19  C   UNL     1       6.371  -4.218  -1.350  0.00  0.00    +0.195 A 
ATOM     20  O   UNL     1       6.461  -3.221  -0.454  0.00  0.00    -0.466 OA
ENDBRANCH  15  16
ENDBRANCH  10  15
BRANCH   7  21
ATOM     21  C   UNL     1       3.874  -1.967   4.287  0.00  0.00    +0.223 C 
BRANCH  21  22
ATOM     22  C   UNL     1       3.743  -3.468   4.337  0.00  0.00    +0.237 C 
ATOM     23  O   UNL     1       3.447  -4.085   3.336  0.00  0.00    -0.274 OA
ATOM     24  N   UNL     1       3.955  -4.125   5.495  0.00  0.00    -0.284 N 
ATOM     25  H   UNL     1       4.257  -3.640   6.279  0.00  0.00    +0.155 HD
BRANCH  24  26
ATOM     26  C   UNL     1       3.740  -5.505   5.565  0.00  0.00    +0.033 A 
ATOM     27  C   UNL     1       3.237  -6.073   6.729  0.00  0.00    +0.023 A 
ATOM     28  C   UNL     1       3.026  -7.436   6.795  0.00  0.00    +0.005 A 
ATOM     29  C   UNL     1       3.314  -8.236   5.705  0.00  0.00    -0.050 A 
ATOM     30  C   UNL     1       3.816  -7.674   4.545  0.00  0.00    +0.005 A 
ATOM     31  C   UNL     1       4.023  -6.311   4.470  0.00  0.00    +0.023 A 
ATOM     32  C   UNL     1       3.083  -9.723   5.781  0.00  0.00    +0.044 C 
ENDBRANCH  24  26
ENDBRANCH  21  22
ENDBRANCH   7  21
TORSDOF 6
