REMARK  Name = ZINC40092100
REMARK  11 active torsions:
REMARK  status: ('A' for Active; 'I' for Inactive)
REMARK    1  A    between atoms: C_1  and  C_2
REMARK    2  A    between atoms: C_4  and  C_12
REMARK    3  A    between atoms: C_7  and  O_8
REMARK    4  A    between atoms: O_8  and  C_9
REMARK    5  A    between atoms: C_9  and  C_10
REMARK    6  A    between atoms: C_12  and  C_14
REMARK    7  A    between atoms: N_18  and  C_30
REMARK    8  A    between atoms: C_19  and  C_21
REMARK    9  A    between atoms: C_24  and  N_27
REMARK   10  A    between atoms: C_30  and  C_31
REMARK   11  A    between atoms: C_31  and  O_32
REMARK                            x       y       z     vdW  Elec       q    Type
REMARK                         _______ _______ _______ _____ _____    ______ ____
ROOT
ATOM      1  C   UNL     1       0.299  -4.527  -2.302  0.00  0.00    +0.076 C 
ATOM      2  C   UNL     1       0.624  -5.384  -3.297  0.00  0.00    +0.249 C 
ATOM      3  C   UNL     1       0.398  -6.770  -2.838  0.00  0.00    +0.288 C 
ATOM      4  O   UNL     1       0.597  -7.767  -3.504  0.00  0.00    -0.266 OA
ATOM      5  N   UNL     1      -0.061  -6.765  -1.573  0.00  0.00    -0.281 N 
ATOM      6  C   UNL     1      -0.154  -5.368  -1.132  0.00  0.00    +0.145 C 
ATOM      7  O   UNL     1       1.083  -5.028  -4.519  0.00  0.00    -0.282 OA
ENDROOT
BRANCH   6   8
ATOM      8  C   UNL     1       0.745  -5.135   0.054  0.00  0.00    -0.022 A 
ATOM      9  C   UNL     1       2.103  -5.367  -0.052  0.00  0.00    +0.008 A 
ATOM     10  C   UNL     1       2.929  -5.153   1.036  0.00  0.00    +0.033 A 
ATOM     11  C   UNL     1       2.395  -4.707   2.231  0.00  0.00    +0.126 A 
ATOM     12  C   UNL     1       1.036  -4.474   2.337  0.00  0.00    +0.033 A 
ATOM     13  C   UNL     1       0.212  -4.684   1.247  0.00  0.00    +0.008 A 
BRANCH  11  14
ATOM     14  N   UNL     1       3.278  -4.478   3.396  0.00  0.00    +0.056 N 
ATOM     15  O   UNL     1       4.466  -4.682   3.304  0.00  0.00    -0.126 OA
ATOM     16  O   UNL     1       2.812  -4.088   4.441  0.00  0.00    -0.126 OA
ENDBRANCH  11  14
ENDBRANCH   6   8
BRANCH   1  17
ATOM     17  C   UNL     1       0.379  -3.063  -2.347  0.00  0.00    +0.195 C 
ATOM     18  O   UNL     1       1.460  -2.515  -2.452  0.00  0.00    -0.287 OA
BRANCH  17  22
ATOM     19  C   UNL     1      -1.842   1.395  -2.087  0.00  0.00    +0.047 C 
ATOM     20  C   UNL     1      -1.926  -0.109  -2.141  0.00  0.00    -0.008 A 
ATOM     21  C   UNL     1      -0.774  -0.859  -2.216  0.00  0.00    +0.018 A 
ATOM     22  C   UNL     1      -0.853  -2.254  -2.266  0.00  0.00    +0.023 A 
ATOM     23  C   UNL     1      -2.103  -2.881  -2.239  0.00  0.00    +0.015 A 
ATOM     24  C   UNL     1      -3.249  -2.123  -2.164  0.00  0.00    +0.046 A 
ATOM     25  C   UNL     1      -3.166  -0.736  -2.108  0.00  0.00    +0.124 A 
BRANCH  25  26
ATOM     26  O   UNL     1      -4.298   0.007  -2.029  0.00  0.00    -0.488 OA
BRANCH  26  27
ATOM     27  C   UNL     1      -5.539  -0.701  -2.000  0.00  0.00    +0.256 C 
BRANCH  27  28
ATOM     28  C   UNL     1      -6.677   0.282  -1.910  0.00  0.00    +0.006 C 
ATOM     29  C   UNL     1      -7.733   0.133  -2.672  0.00  0.00    +0.007 C 
ENDBRANCH  27  28
ENDBRANCH  26  27
ENDBRANCH  25  26
ENDBRANCH  17  22
ENDBRANCH   1  17
BRANCH   5  30
ATOM     30  C   UNL     1      -0.403  -7.946  -0.775  0.00  0.00    +0.137 C 
BRANCH  30  31
ATOM     31  C   UNL     1       0.870  -8.527  -0.155  0.00  0.00    +0.175 C 
BRANCH  31  32
ATOM     32  O   UNL     1       1.359  -7.638   0.850  0.00  0.00    -0.393 OA
ATOM     33  H   UNL     1       2.166  -7.944   1.286  0.00  0.00    +0.209 HD
ENDBRANCH  31  32
ENDBRANCH  30  31
ENDBRANCH   5  30
TORSDOF 10
