REMARK  Name = ZINC06452379
REMARK  6 active torsions:
REMARK  status: ('A' for Active; 'I' for Inactive)
REMARK    1  A    between atoms: C_1  and  N_2
REMARK    2  A    between atoms: N_2  and  C_3
REMARK    3  A    between atoms: C_3  and  N_5
REMARK    4  A    between atoms: C_17  and  C_19
REMARK    5  A    between atoms: C_19  and  C_20
REMARK    6  A    between atoms: N_22  and  C_23
REMARK                            x       y       z     vdW  Elec       q    Type
REMARK                         _______ _______ _______ _____ _____    ______ ____
ROOT
ATOM      1  N   UNL     1      -1.700   3.671  -0.366  0.00  0.00    -0.296 N 
ATOM      2  C   UNL     1      -2.833   4.570  -0.611  0.00  0.00    +0.096 C 
ATOM      3  C   UNL     1      -4.101   3.793  -0.955  0.00  0.00    +0.024 C 
ATOM      4  C   UNL     1      -5.235   4.793  -1.206  0.00  0.00    +0.002 C 
ATOM      5  C   UNL     1      -5.465   5.653   0.037  0.00  0.00    +0.002 C 
ATOM      6  C   UNL     1      -4.178   6.400   0.407  0.00  0.00    +0.024 C 
ATOM      7  C   UNL     1      -3.077   5.378   0.665  0.00  0.00    +0.093 C 
ATOM      8  N   UNL     1      -1.845   6.001   1.114  0.00  0.00    -0.309 N 
ATOM      9  C   UNL     1      -0.632   5.505   0.840  0.00  0.00    +0.234 C 
ATOM     10  O   UNL     1       0.333   6.036   1.348  0.00  0.00    -0.274 OA
ATOM     11  C   UNL     1      -0.409   4.305  -0.045  0.00  0.00    +0.170 C 
ATOM     12  H   UNL     1      -1.904   6.816   1.637  0.00  0.00    +0.149 HD
ENDROOT
BRANCH   1  13
ATOM     13  C   UNL     1      -1.833   2.331  -0.427  0.00  0.00    +0.134 C 
ATOM     14  S   UNL     1      -3.354   1.639  -0.802  0.00  0.00    -0.019 S 
BRANCH  13  16
ATOM     15  C   UNL     1      -0.916   0.080  -0.259  0.00  0.00    +0.127 C 
ATOM     16  N   UNL     1      -0.770   1.536  -0.193  0.00  0.00    -0.329 N 
ATOM     17  H   UNL     1       0.092   1.928   0.015  0.00  0.00    +0.147 HD
ENDBRANCH  13  16
ENDBRANCH   1  13
BRANCH  11  18
ATOM     18  C   UNL     1       0.263   4.774  -1.337  0.00  0.00    +0.128 C 
BRANCH  18  19
ATOM     19  C   UNL     1       0.607   3.579  -2.188  0.00  0.00    +0.219 C 
ATOM     20  O   UNL     1       0.340   2.461  -1.799  0.00  0.00    -0.275 OA
ATOM     21  N   UNL     1       1.210   3.752  -3.380  0.00  0.00    -0.285 N 
ATOM     22  H   UNL     1       1.484   4.639  -3.661  0.00  0.00    +0.155 HD
BRANCH  21  23
ATOM     23  C   UNL     1       1.443   2.651  -4.213  0.00  0.00    +0.035 A 
ATOM     24  C   UNL     1       1.346   2.789  -5.591  0.00  0.00    +0.023 A 
ATOM     25  C   UNL     1       1.576   1.701  -6.411  0.00  0.00    +0.003 A 
ATOM     26  C   UNL     1       1.903   0.475  -5.860  0.00  0.00    +0.020 A 
ATOM     27  C   UNL     1       2.000   0.334  -4.487  0.00  0.00    +0.043 A 
ATOM     28  C   UNL     1       1.776   1.421  -3.662  0.00  0.00    +0.043 A 
ATOM     29 CL   UNL     1       2.411  -1.206  -3.800  0.00  0.00    -0.083 Cl
ENDBRANCH  21  23
ENDBRANCH  18  19
ENDBRANCH  11  18
TORSDOF 5
