REMARK  Name = ZINC10723957
REMARK  8 active torsions:
REMARK  status: ('A' for Active; 'I' for Inactive)
REMARK    1  A    between atoms: C_4  and  C_7
REMARK    2  A    between atoms: C_7  and  C_9
REMARK    3  A    between atoms: C_7  and  N_26
REMARK    4  A    between atoms: C_9  and  O_11
REMARK    5  A    between atoms: O_11  and  C_12
REMARK    6  A    between atoms: C_12  and  C_13
REMARK    7  A    between atoms: C_15  and  N_23
REMARK    8  A    between atoms: C_27  and  C_29
REMARK                            x       y       z     vdW  Elec       q    Type
REMARK                         _______ _______ _______ _____ _____    ______ ____
ROOT
ATOM      1  C   UNL     1       6.132  -0.704  -0.063  0.00  0.00    +0.213 C 
ENDROOT
BRANCH   1   5
ATOM      2  C   UNL     1       7.166  -1.679  -4.091  0.00  0.00    +0.000 A 
ATOM      3  C   UNL     1       7.398  -2.590  -3.078  0.00  0.00    +0.000 A 
ATOM      4  C   UNL     1       7.064  -2.274  -1.774  0.00  0.00    +0.006 A 
ATOM      5  C   UNL     1       6.497  -1.048  -1.484  0.00  0.00    -0.016 A 
ATOM      6  C   UNL     1       6.259  -0.139  -2.498  0.00  0.00    +0.006 A 
ATOM      7  C   UNL     1       6.598  -0.452  -3.801  0.00  0.00    +0.000 A 
ENDBRANCH   1   5
BRANCH   1   8
ATOM      8  N   UNL     1       4.852   0.008  -0.046  0.00  0.00    -0.295 N 
ATOM      9  C   UNL     1       3.696  -0.685  -0.038  0.00  0.00    +0.245 C 
ATOM     10  O   UNL     1       3.715  -1.900  -0.046  0.00  0.00    -0.270 OA
ATOM     11  H   UNL     1       4.836   0.978  -0.040  0.00  0.00    +0.150 HD
BRANCH   9  12
ATOM     12  C   UNL     1       2.403   0.034  -0.021  0.00  0.00    +0.037 A 
ATOM     13  C   UNL     1       1.204  -0.681  -0.013  0.00  0.00    +0.013 A 
ATOM     14  C   UNL     1       0.002  -0.004   0.002  0.00  0.00    +0.001 A 
ATOM     15  C   UNL     1      -0.017   1.379   0.010  0.00  0.00    +0.000 A 
ATOM     16  C   UNL     1       1.168   2.094   0.002  0.00  0.00    +0.001 A 
ATOM     17  C   UNL     1       2.377   1.429  -0.013  0.00  0.00    +0.013 A 
ENDBRANCH   9  12
ENDBRANCH   1   8
BRANCH   1  18
ATOM     18  C   UNL     1       7.203   0.174   0.533  0.00  0.00    +0.333 C 
ATOM     19  O   UNL     1       6.925   1.280   0.930  0.00  0.00    -0.248 OA
BRANCH  18  20
ATOM     20  O   UNL     1       8.465  -0.274   0.621  0.00  0.00    -0.458 OA
BRANCH  20  21
ATOM     21  C   UNL     1       9.444   0.625   1.205  0.00  0.00    +0.271 C 
BRANCH  21  22
ATOM     22  C   UNL     1      10.794  -0.043   1.221  0.00  0.00    +0.034 A 
ATOM     23  C   UNL     1      10.937  -1.324   0.722  0.00  0.00    +0.043 A 
ATOM     24  C   UNL     1      12.175  -1.938   0.736  0.00  0.00    +0.127 A 
ATOM     25  C   UNL     1      13.273  -1.273   1.251  0.00  0.00    +0.042 A 
ATOM     26  C   UNL     1      13.135   0.008   1.752  0.00  0.00    +0.022 A 
ATOM     27  C   UNL     1      11.896   0.629   1.732  0.00  0.00    +0.135 A 
ATOM     28  O   UNL     1      11.749   1.893   2.210  0.00  0.00    -0.465 OA
ATOM     29  C   UNL     1      12.798   2.395   3.042  0.00  0.00    +0.394 C 
ATOM     30  O   UNL     1      14.054   2.123   2.408  0.00  0.00    -0.339 OA
ATOM     31  C   UNL     1      14.338   0.721   2.317  0.00  0.00    +0.202 C 
BRANCH  24  32
ATOM     32  N   UNL     1      12.326  -3.309   0.201  0.00  0.00    +0.056 N 
ATOM     33  O   UNL     1      11.360  -3.896  -0.252  0.00  0.00    -0.126 OA
ATOM     34  O   UNL     1      13.417  -3.851   0.212  0.00  0.00    -0.126 OA
ENDBRANCH  24  32
ENDBRANCH  21  22
ENDBRANCH  20  21
ENDBRANCH  18  20
ENDBRANCH   1  18
TORSDOF 8
