REMARK  Name = ZINC65190109
REMARK  7 active torsions:
REMARK  status: ('A' for Active; 'I' for Inactive)
REMARK    1  A    between atoms: C_1  and  C_2
REMARK    2  A    between atoms: C_2  and  N_3
REMARK    3  A    between atoms: N_6  and  N_7
REMARK    4  A    between atoms: C_8  and  C_10
REMARK    5  A    between atoms: C_15  and  S_16
REMARK    6  A    between atoms: S_16  and  C_17
REMARK    7  A    between atoms: C_17  and  C_18
REMARK                            x       y       z     vdW  Elec       q    Type
REMARK                         _______ _______ _______ _____ _____    ______ ____
ROOT
ATOM      1  C   UNL     1      -6.340  -0.934   0.058  0.00  0.00    +0.052 A 
ATOM      2  C   UNL     1      -6.108   0.444   0.057  0.00  0.00    +0.014 A 
ATOM      3  C   UNL     1      -7.171   1.319   0.072  0.00  0.00    +0.001 A 
ATOM      4  C   UNL     1      -8.473   0.842   0.088  0.00  0.00    +0.001 A 
ATOM      5  C   UNL     1      -8.719  -0.515   0.089  0.00  0.00    +0.015 A 
ATOM      6  C   UNL     1      -7.659  -1.415   0.068  0.00  0.00    +0.020 A 
ENDROOT
BRANCH   1   8
ATOM      7  N   UNL     1      -3.942  -1.410   0.032  0.00  0.00    -0.229 N 
ATOM      8  C   UNL     1      -5.207  -1.877   0.042  0.00  0.00    +0.261 C 
ATOM      9  O   UNL     1      -5.412  -3.075   0.037  0.00  0.00    -0.269 OA
ATOM     10  H   UNL     1      -3.778  -0.454   0.036  0.00  0.00    +0.173 HD
BRANCH   7  14
ATOM     11  N   UNL     1      -1.372  -0.511   0.012  0.00  0.00    -0.298 N 
ATOM     12  C   UNL     1      -1.601  -1.839   0.007  0.00  0.00    +0.316 C 
ATOM     13  O   UNL     1      -0.666  -2.617  -0.006  0.00  0.00    -0.251 OA
ATOM     14  N   UNL     1      -2.865  -2.306   0.017  0.00  0.00    -0.218 N 
ATOM     15  H   UNL     1      -2.118   0.109   0.023  0.00  0.00    +0.150 HD
ATOM     16  H   UNL     1      -3.029  -3.262   0.013  0.00  0.00    +0.174 HD
BRANCH  11  18
ATOM     17  C   UNL     1      -0.019   1.526   0.010  0.00  0.00    +0.024 C 
ATOM     18  C   UNL     1       0.002  -0.004   0.002  0.00  0.00    +0.102 C 
ENDBRANCH  11  18
ENDBRANCH   7  14
ENDBRANCH   1   8
BRANCH   6  19
ATOM     19  S   UNL     1      -7.969  -3.150   0.061  0.00  0.00    -0.115 S 
BRANCH  19  20
ATOM     20  C   UNL     1      -9.779  -3.272   0.077  0.00  0.00    +0.170 C 
BRANCH  20  21
ATOM     21  C   UNL     1     -10.185  -4.723   0.073  0.00  0.00    +0.230 C 
ATOM     22  O   UNL     1      -9.337  -5.590   0.060  0.00  0.00    -0.274 OA
ATOM     23  N   UNL     1     -11.490  -5.058   0.084  0.00  0.00    -0.270 N 
ATOM     24  C   UNL     1     -12.006  -6.429   0.087  0.00  0.00    +0.118 C 
ATOM     25  C   UNL     1     -13.536  -6.285   0.100  0.00  0.00    +0.056 C 
ATOM     26  C   UNL     1     -13.778  -4.792   0.103  0.00  0.00    -0.024 A 
ATOM     27  C   UNL     1     -12.551  -4.147   0.100  0.00  0.00    +0.039 A 
ATOM     28  C   UNL     1     -12.520  -2.752   0.108  0.00  0.00    +0.024 A 
ATOM     29  C   UNL     1     -13.694  -2.030   0.123  0.00  0.00    +0.002 A 
ATOM     30  C   UNL     1     -14.913  -2.683   0.131  0.00  0.00    +0.000 A 
ATOM     31  C   UNL     1     -14.952  -4.065   0.115  0.00  0.00    +0.005 A 
ENDBRANCH  20  21
ENDBRANCH  19  20
ENDBRANCH   6  19
TORSDOF 6
