REMARK  Name = ZINC12079882
REMARK  5 active torsions:
REMARK  status: ('A' for Active; 'I' for Inactive)
REMARK    1  A    between atoms: C_3  and  O_28
REMARK    2  A    between atoms: C_4  and  C_8
REMARK    3  A    between atoms: C_8  and  N_54
REMARK    4  A    between atoms: C_12  and  N_15
REMARK    5  A    between atoms: C_17  and  C_20
REMARK                            x       y       z     vdW  Elec       q    Type
REMARK                         _______ _______ _______ _____ _____    ______ ____
ROOT
ATOM      1  C   UNL     1      -2.038   0.750  -3.029  0.00  0.00    -0.078 C 
ATOM      2  C   UNL     1      -2.899   0.963  -4.277  0.00  0.00    -0.017 C 
ATOM      3  C   UNL     1      -4.060  -0.035  -4.266  0.00  0.00    +0.023 C 
ATOM      4  C   UNL     1      -4.872   0.152  -2.982  0.00  0.00    +0.092 C 
ATOM      5  C   UNL     1      -3.955  -0.036  -1.771  0.00  0.00    -0.051 C 
ATOM      6  N   UNL     1      -2.873   0.970  -1.828  0.00  0.00    +0.384 N 
ATOM      7  H   UNL     1      -3.290   1.906  -1.879  0.00  0.00    -0.081 HD
ENDROOT
BRANCH   4   8
ATOM      8  N   UNL     1      -5.952  -0.837  -2.936  0.00  0.00    -0.250 N 
ATOM      9  C   UNL     1      -5.904  -2.100  -3.402  0.00  0.00    +0.143 A 
ATOM     10  C   UNL     1      -7.124  -2.661  -3.150  0.00  0.00    +0.167 A 
ATOM     11  N   UNL     1      -7.899  -1.743  -2.547  0.00  0.00    -0.125 NA
ATOM     12  N   UNL     1      -7.236  -0.648  -2.404  0.00  0.00    -0.065 NA
BRANCH  10  13
ATOM     13  C   UNL     1      -7.526  -4.040  -3.488  0.00  0.00    +0.268 C 
ATOM     14  O   UNL     1      -6.703  -4.825  -3.918  0.00  0.00    -0.268 OA
ATOM     15  N   UNL     1      -8.805  -4.429  -3.321  0.00  0.00    -0.296 N 
ATOM     16  C   UNL     1      -9.842  -3.456  -2.951  0.00  0.00    +0.108 C 
ATOM     17  C   UNL     1     -10.990  -3.555  -3.967  0.00  0.00    +0.019 C 
ATOM     18  C   UNL     1     -11.482  -5.003  -4.032  0.00  0.00    +0.003 C 
ATOM     19  C   UNL     1     -10.343  -5.910  -4.503  0.00  0.00    +0.019 C 
ATOM     20  C   UNL     1      -9.189  -5.837  -3.498  0.00  0.00    +0.108 C 
ENDBRANCH  10  13
ENDBRANCH   4   8
BRANCH   6  21
ATOM     21  C   UNL     1      -2.038   0.882  -0.612  0.00  0.00    -0.039 C 
BRANCH  21  25
ATOM     22  C   UNL     1       1.485   3.241  -1.164  0.00  0.00    +0.023 A 
ATOM     23  C   UNL     1       0.291   3.855  -0.834  0.00  0.00    +0.047 A 
ATOM     24  C   UNL     1      -0.852   3.091  -0.651  0.00  0.00    +0.118 A 
ATOM     25  C   UNL     1      -0.796   1.714  -0.804  0.00  0.00    -0.021 A 
ATOM     26  C   UNL     1       0.400   1.104  -1.128  0.00  0.00    +0.025 A 
ATOM     27  C   UNL     1       1.540   1.867  -1.311  0.00  0.00    +0.041 A 
ATOM     28 CL   UNL     1       3.040   1.099  -1.726  0.00  0.00    -0.084 Cl
BRANCH  24  29
ATOM     29  O   UNL     1      -2.027   3.693  -0.327  0.00  0.00    -0.507 OA
ATOM     30  H   UNL     1      -2.561   3.951  -1.091  0.00  0.00    +0.292 HD
ENDBRANCH  24  29
ENDBRANCH  21  25
ENDBRANCH   6  21
TORSDOF 5
