REMARK  Name = ZINC13205558
REMARK  10 active torsions:
REMARK  status: ('A' for Active; 'I' for Inactive)
REMARK    1  A    between atoms: C_1  and  C_2
REMARK    2  A    between atoms: C_5  and  C_8
REMARK    3  A    between atoms: C_11  and  S_16
REMARK    4  A    between atoms: N_12  and  C_13
REMARK    5  A    between atoms: C_13  and  C_14
REMARK    6  A    between atoms: S_16  and  C_17
REMARK    7  A    between atoms: C_17  and  C_19
REMARK    8  A    between atoms: C_17  and  C_20
REMARK    9  A    between atoms: N_22  and  C_23
REMARK   10  A    between atoms: C_28  and  N_29
REMARK                            x       y       z     vdW  Elec       q    Type
REMARK                         _______ _______ _______ _____ _____    ______ ____
ROOT
ATOM      1  C   UNL     1      -3.084   0.106   1.143  0.00  0.00    +0.165 A 
ATOM      2  N   UNL     1      -3.933  -0.755   0.632  0.00  0.00    -0.128 NA
ATOM      3  N   UNL     1      -4.006  -0.596  -0.641  0.00  0.00    -0.122 NA
ATOM      4  C   UNL     1      -3.212   0.380  -1.020  0.00  0.00    +0.193 A 
ATOM      5  N   UNL     1      -2.594   0.857   0.101  0.00  0.00    -0.291 N 
ENDROOT
BRANCH   1  10
ATOM      6  C   UNL     1      -1.679   0.636   6.699  0.00  0.00    +0.044 C 
ATOM      7  C   UNL     1      -2.047   0.497   5.244  0.00  0.00    -0.050 A 
ATOM      8  C   UNL     1      -3.191  -0.194   4.886  0.00  0.00    +0.004 A 
ATOM      9  C   UNL     1      -3.534  -0.324   3.556  0.00  0.00    +0.012 A 
ATOM     10  C   UNL     1      -2.724   0.242   2.571  0.00  0.00    +0.019 A 
ATOM     11  C   UNL     1      -1.568   0.933   2.938  0.00  0.00    +0.012 A 
ATOM     12  C   UNL     1      -1.240   1.062   4.272  0.00  0.00    +0.004 A 
ENDBRANCH   1  10
BRANCH   5  13
ATOM     13  C   UNL     1      -1.617   1.946   0.177  0.00  0.00    +0.250 C 
BRANCH  13  14
ATOM     14  C   UNL     1      -0.223   1.374   0.149  0.00  0.00    +0.375 C 
ATOM     15  O   UNL     1      -0.063   0.178   0.073  0.00  0.00    -0.244 OA
ATOM     16  O   UNL     1       0.840   2.192   0.203  0.00  0.00    -0.244 OA
ENDBRANCH  13  14
ENDBRANCH   5  13
BRANCH   4  17
ATOM     17  S   UNL     1      -2.986   0.964  -2.667  0.00  0.00    -0.073 S 
BRANCH  17  18
ATOM     18  C   UNL     1      -4.116  -0.140  -3.550  0.00  0.00    +0.137 C 
ATOM     19  C   UNL     1      -3.611  -1.580  -3.442  0.00  0.00    +0.029 C 
BRANCH  18  20
ATOM     20  C   UNL     1      -4.181   0.263  -5.000  0.00  0.00    +0.230 C 
ATOM     21  O   UNL     1      -3.253   0.857  -5.507  0.00  0.00    -0.274 OA
ATOM     22  N   UNL     1      -5.271  -0.038  -5.735  0.00  0.00    -0.283 N 
ATOM     23  H   UNL     1      -6.043  -0.446  -5.313  0.00  0.00    +0.155 HD
BRANCH  22  24
ATOM     24  C   UNL     1      -5.288   0.239  -7.107  0.00  0.00    +0.064 A 
ATOM     25  C   UNL     1      -4.096   0.310  -7.817  0.00  0.00    +0.025 A 
ATOM     26  C   UNL     1      -4.117   0.579  -9.171  0.00  0.00    +0.002 A 
ATOM     27  C   UNL     1      -5.321   0.787  -9.818  0.00  0.00    +0.002 A 
ATOM     28  C   UNL     1      -6.508   0.723  -9.113  0.00  0.00    +0.034 A 
ATOM     29  C   UNL     1      -6.495   0.449  -7.759  0.00  0.00    +0.147 A 
BRANCH  29  30
ATOM     30  N   UNL     1      -7.767   0.381  -7.005  0.00  0.00    +0.058 N 
ATOM     31  O   UNL     1      -8.829   0.461  -7.594  0.00  0.00    -0.126 OA
ATOM     32  O   UNL     1      -7.750   0.244  -5.794  0.00  0.00    -0.126 OA
ENDBRANCH  29  30
ENDBRANCH  22  24
ENDBRANCH  18  20
ENDBRANCH  17  18
ENDBRANCH   4  17
TORSDOF 8
