REMARK  Name = ZINC19782532
REMARK  11 active torsions:
REMARK  status: ('A' for Active; 'I' for Inactive)
REMARK    1  A    between atoms: C_1  and  C_2
REMARK    2  A    between atoms: C_2  and  O_3
REMARK    3  A    between atoms: O_3  and  C_4
REMARK    4  A    between atoms: C_4  and  C_6
REMARK    5  A    between atoms: C_9  and  N_12
REMARK    6  A    between atoms: C_16  and  N_20
REMARK    7  A    between atoms: N_20  and  C_21
REMARK    8  A    between atoms: C_21  and  C_22
REMARK    9  A    between atoms: C_22  and  C_23
REMARK   10  A    between atoms: C_26  and  S_29
REMARK   11  A    between atoms: S_29  and  N_32
REMARK                            x       y       z     vdW  Elec       q    Type
REMARK                         _______ _______ _______ _____ _____    ______ ____
ROOT
ATOM      1  N   UNL     1      -1.816   0.140  -2.684  0.00  0.00    -0.212 N 
ATOM      2  C   UNL     1      -2.837   0.555  -1.925  0.00  0.00    +0.225 C 
ATOM      3  O   UNL     1      -4.000   0.251  -2.084  0.00  0.00    -0.275 OA
ATOM      4  C   UNL     1      -2.310   1.464  -0.836  0.00  0.00    +0.090 C 
ATOM      5  C   UNL     1      -0.791   1.502  -1.101  0.00  0.00    +0.026 C 
ATOM      6  C   UNL     1      -0.617   0.613  -2.313  0.00  0.00    +0.213 C 
ATOM      7  O   UNL     1       0.438   0.368  -2.858  0.00  0.00    -0.277 OA
ENDROOT
BRANCH   1  11
ATOM      8  C   UNL     1      -2.321  -2.412  -5.943  0.00  0.00    +0.059 A 
ATOM      9  C   UNL     1      -1.915  -1.089  -6.144  0.00  0.00    +0.017 A 
ATOM     10  C   UNL     1      -1.750  -0.250  -5.066  0.00  0.00    +0.025 A 
ATOM     11  C   UNL     1      -1.986  -0.716  -3.777  0.00  0.00    +0.044 A 
ATOM     12  C   UNL     1      -2.384  -2.033  -3.572  0.00  0.00    +0.025 A 
ATOM     13  C   UNL     1      -2.557  -2.877  -4.646  0.00  0.00    +0.017 A 
BRANCH   8  14
ATOM     14  C   UNL     1      -2.499  -3.315  -7.095  0.00  0.00    +0.339 C 
ATOM     15  O   UNL     1      -2.294  -2.909  -8.222  0.00  0.00    -0.245 OA
BRANCH  14  16
ATOM     16  O   UNL     1      -2.890  -4.589  -6.899  0.00  0.00    -0.461 OA
BRANCH  16  18
ATOM     17  C   UNL     1      -3.491  -6.823  -7.660  0.00  0.00    +0.048 C 
ATOM     18  C   UNL     1      -3.046  -5.420  -8.079  0.00  0.00    +0.229 C 
ENDBRANCH  16  18
ENDBRANCH  14  16
ENDBRANCH   8  14
ENDBRANCH   1  11
BRANCH   5  19
ATOM     19  N   UNL     1      -0.052   0.962   0.047  0.00  0.00    +0.387 N 
ATOM     20  H   UNL     1      -0.551   1.264   0.980  0.00  0.00    -0.085 HD
ATOM     21  H   UNL     1      -0.027  -0.136  -0.016  0.00  0.00    -0.085 HD
BRANCH  19  22
ATOM     22  C   UNL     1       1.329   1.464   0.068  0.00  0.00    -0.077 C 
BRANCH  22  23
ATOM     23  C   UNL     1       2.065   0.881   1.276  0.00  0.00    +0.016 C 
BRANCH  23  24
ATOM     24  C   UNL     1       3.481   1.396   1.297  0.00  0.00    -0.049 A 
ATOM     25  C   UNL     1       4.481   0.696   0.648  0.00  0.00    +0.005 A 
ATOM     26  C   UNL     1       5.779   1.171   0.664  0.00  0.00    +0.029 A 
ATOM     27  C   UNL     1       6.079   2.340   1.338  0.00  0.00    +0.105 A 
ATOM     28  C   UNL     1       5.080   3.037   1.991  0.00  0.00    +0.029 A 
ATOM     29  C   UNL     1       3.781   2.565   1.971  0.00  0.00    +0.005 A 
BRANCH  27  30
ATOM     30  S   UNL     1       7.735   2.942   1.364  0.00  0.00    +0.056 S 
ATOM     31  O   UNL     1       8.383   2.400   0.221  0.00  0.00    -0.153 OA
ATOM     32  O   UNL     1       7.655   4.341   1.602  0.00  0.00    -0.153 OA
BRANCH  30  33
ATOM     33  N   UNL     1       8.477   2.278   2.687  0.00  0.00    -0.204 NA
ATOM     34  H   UNL     1       9.517   2.630   2.740  0.00  0.00    +0.144 HD
ATOM     35  H   UNL     1       8.465   1.181   2.602  0.00  0.00    +0.144 HD
ENDBRANCH  30  33
ENDBRANCH  27  30
ENDBRANCH  23  24
ENDBRANCH  22  23
ENDBRANCH  19  22
ENDBRANCH   5  19
TORSDOF 10
