REMARK  Name = ZINC56147150
REMARK  9 active torsions:
REMARK  status: ('A' for Active; 'I' for Inactive)
REMARK    1  A    between atoms: C_1  and  C_2
REMARK    2  A    between atoms: C_2  and  C_3
REMARK    3  A    between atoms: C_2  and  C_4
REMARK    4  A    between atoms: C_4  and  C_6
REMARK    5  A    between atoms: C_4  and  N_20
REMARK    6  A    between atoms: N_8  and  C_9
REMARK    7  A    between atoms: C_9  and  C_10
REMARK    8  A    between atoms: C_10  and  C_11
REMARK    9  A    between atoms: C_14  and  N_17
REMARK                            x       y       z     vdW  Elec       q    Type
REMARK                         _______ _______ _______ _____ _____    ______ ____
ROOT
ATOM      1  C   UNL     1      -1.620  -0.420   0.151  0.00  0.00    +0.173 C 
ENDROOT
BRANCH   1   2
ATOM      2  N   UNL     1      -2.525  -0.029   1.234  0.00  0.00    -0.222 N 
ATOM      3  C   UNL     1      -3.020  -0.875   2.156  0.00  0.00    +0.255 C 
ATOM      4  O   UNL     1      -2.791  -2.065   2.220  0.00  0.00    -0.270 OA
ATOM      5  C   UNL     1      -3.889  -0.112   3.077  0.00  0.00    +0.049 A 
ATOM      6  C   UNL     1      -4.647  -0.443   4.189  0.00  0.00    +0.014 A 
ATOM      7  C   UNL     1      -5.369   0.541   4.845  0.00  0.00    +0.001 A 
ATOM      8  C   UNL     1      -5.339   1.849   4.399  0.00  0.00    +0.001 A 
ATOM      9  C   UNL     1      -4.585   2.194   3.288  0.00  0.00    +0.014 A 
ATOM     10  C   UNL     1      -3.858   1.221   2.621  0.00  0.00    +0.049 A 
ATOM     11  C   UNL     1      -2.967   1.225   1.442  0.00  0.00    +0.255 C 
ATOM     12  O   UNL     1      -2.683   2.197   0.771  0.00  0.00    -0.270 OA
ENDBRANCH   1   2
BRANCH   1  13
ATOM     13  C   UNL     1      -2.308  -0.223  -1.175  0.00  0.00    +0.234 C 
ATOM     14  O   UNL     1      -3.328   0.431  -1.238  0.00  0.00    -0.274 OA
ATOM     15  N   UNL     1      -1.790  -0.772  -2.292  0.00  0.00    -0.313 N 
ATOM     16  H   UNL     1      -1.005  -1.339  -2.234  0.00  0.00    +0.149 HD
BRANCH  15  17
ATOM     17  C   UNL     1      -2.414  -0.514  -3.592  0.00  0.00    +0.109 C 
BRANCH  17  18
ATOM     18  C   UNL     1      -1.637  -1.250  -4.685  0.00  0.00    +0.054 C 
BRANCH  18  19
ATOM     19  C   UNL     1      -2.278  -0.985  -6.023  0.00  0.00    -0.046 A 
ATOM     20  C   UNL     1      -3.278  -1.819  -6.487  0.00  0.00    +0.006 A 
ATOM     21  C   UNL     1      -3.866  -1.575  -7.715  0.00  0.00    +0.033 A 
ATOM     22  C   UNL     1      -3.454  -0.498  -8.477  0.00  0.00    +0.126 A 
ATOM     23  C   UNL     1      -2.455   0.336  -8.012  0.00  0.00    +0.033 A 
ATOM     24  C   UNL     1      -1.870   0.095  -6.783  0.00  0.00    +0.006 A 
BRANCH  22  25
ATOM     25  N   UNL     1      -4.083  -0.238  -9.791  0.00  0.00    +0.056 N 
ATOM     26  O   UNL     1      -4.957  -0.968 -10.198  0.00  0.00    -0.126 OA
ATOM     27  O   UNL     1      -3.724   0.704 -10.458  0.00  0.00    -0.126 OA
ENDBRANCH  22  25
ENDBRANCH  18  19
ENDBRANCH  17  18
ENDBRANCH  15  17
ENDBRANCH   1  13
BRANCH   1  29
ATOM     28  C   UNL     1       0.266   0.351   1.598  0.00  0.00    +0.009 C 
ATOM     29  C   UNL     1      -0.358   0.444   0.204  0.00  0.00    +0.013 C 
ATOM     30  C   UNL     1       0.645  -0.054  -0.838  0.00  0.00    +0.009 C 
ENDBRANCH   1  29
TORSDOF 7
