REMARK  Name = ZINC01058368
REMARK  7 active torsions:
REMARK  status: ('A' for Active; 'I' for Inactive)
REMARK    1  A    between atoms: C_1  and  C_2
REMARK    2  A    between atoms: C_5  and  S_8
REMARK    3  A    between atoms: S_8  and  N_11
REMARK    4  A    between atoms: C_14  and  C_17
REMARK    5  A    between atoms: N_19  and  N_20
REMARK    6  A    between atoms: C_21  and  C_22
REMARK    7  A    between atoms: C_25  and  N_28
REMARK                            x       y       z     vdW  Elec       q    Type
REMARK                         _______ _______ _______ _____ _____    ______ ____
ROOT
ATOM      1  N   UNL     1      -9.816   0.087  -1.035  0.00  0.00    -0.177 NA
ATOM      2  C   UNL     1      -9.798   1.035   0.087  0.00  0.00    +0.110 C 
ATOM      3  C   UNL     1      -8.481   1.817   0.051  0.00  0.00    +0.030 C 
ATOM      4  C   UNL     1      -7.309   0.833   0.040  0.00  0.00    +0.079 C 
ATOM      5  C   UNL     1      -7.386  -0.042  -1.214  0.00  0.00    +0.030 C 
ATOM      6  C   UNL     1      -8.691  -0.844  -1.192  0.00  0.00    +0.110 C 
ENDROOT
BRANCH   4   7
ATOM      7  C   UNL     1      -6.011   1.599   0.038  0.00  0.00    +0.235 C 
ATOM      8  O   UNL     1      -6.022   2.812   0.045  0.00  0.00    -0.274 OA
ATOM      9  N   UNL     1      -4.837   0.936   0.029  0.00  0.00    -0.207 N 
ATOM     10  H   UNL     1      -4.828  -0.034   0.023  0.00  0.00    +0.177 HD
BRANCH   9  11
ATOM     11  N   UNL     1      -3.631   1.648   0.028  0.00  0.00    -0.188 NA
ATOM     12  C   UNL     1      -2.501   1.010   0.019  0.00  0.00    +0.138 C 
BRANCH  12  13
ATOM     13  C   UNL     1      -1.231   1.759   0.017  0.00  0.00    -0.005 A 
ATOM     14  C   UNL     1      -0.013   1.076   0.008  0.00  0.00    +0.012 A 
ATOM     15  C   UNL     1       1.171   1.783   0.001  0.00  0.00    +0.033 A 
ATOM     16  C   UNL     1       1.155   3.167   0.008  0.00  0.00    +0.126 A 
ATOM     17  C   UNL     1      -0.048   3.851   0.023  0.00  0.00    +0.033 A 
ATOM     18  C   UNL     1      -1.240   3.156   0.031  0.00  0.00    +0.012 A 
BRANCH  16  19
ATOM     19  N   UNL     1       2.429   3.919  -0.001  0.00  0.00    +0.056 N 
ATOM     20  O   UNL     1       3.490   3.320  -0.014  0.00  0.00    -0.126 OA
ATOM     21  O   UNL     1       2.418   5.137   0.006  0.00  0.00    -0.126 OA
ENDBRANCH  16  19
ENDBRANCH  12  13
ENDBRANCH   9  11
ENDBRANCH   4   7
BRANCH   1  22
ATOM     22  S   UNL     1     -11.082   0.068  -2.103  0.00  0.00    +0.061 S 
ATOM     23  O   UNL     1     -11.107  -1.231  -2.679  0.00  0.00    -0.153 OA
ATOM     24  O   UNL     1     -12.199   0.620  -1.419  0.00  0.00    -0.153 OA
BRANCH  22  29
ATOM     25  C   UNL     1      -9.718   3.903  -6.556  0.00  0.00    +0.044 C 
ATOM     26  C   UNL     1     -10.059   2.945  -5.444  0.00  0.00    -0.050 A 
ATOM     27  C   UNL     1      -9.690   1.617  -5.539  0.00  0.00    +0.005 A 
ATOM     28  C   UNL     1     -10.003   0.738  -4.519  0.00  0.00    +0.029 A 
ATOM     29  C   UNL     1     -10.684   1.188  -3.403  0.00  0.00    +0.105 A 
ATOM     30  C   UNL     1     -11.056   2.516  -3.310  0.00  0.00    +0.029 A 
ATOM     31  C   UNL     1     -10.740   3.395  -4.329  0.00  0.00    +0.005 A 
ENDBRANCH  22  29
ENDBRANCH   1  22
TORSDOF 6
