REMARK  Name = ZINC59417348
REMARK  11 active torsions:
REMARK  status: ('A' for Active; 'I' for Inactive)
REMARK    1  A    between atoms: C_1  and  C_2
REMARK    2  A    between atoms: C_2  and  C_3
REMARK    3  A    between atoms: C_3  and  C_4
REMARK    4  A    between atoms: C_4  and  C_5
REMARK    5  A    between atoms: C_5  and  C_6
REMARK    6  A    between atoms: C_6  and  N_7
REMARK    7  A    between atoms: C_11  and  C_12
REMARK    8  A    between atoms: C_15  and  N_21
REMARK    9  A    between atoms: C_16  and  N_18
REMARK   10  A    between atoms: N_21  and  C_22
REMARK   11  A    between atoms: N_21  and  C_23
REMARK                            x       y       z     vdW  Elec       q    Type
REMARK                         _______ _______ _______ _____ _____    ______ ____
ROOT
ATOM      1  N   UNL     1      -4.254  -4.490   0.021  0.00  0.00    -0.222 N 
ATOM      2  C   UNL     1      -4.796  -4.954   1.167  0.00  0.00    +0.259 C 
ATOM      3  O   UNL     1      -4.099  -5.196   2.134  0.00  0.00    -0.269 OA
ATOM      4  C   UNL     1      -6.257  -5.157   1.214  0.00  0.00    +0.100 C 
ATOM      5  C   UNL     1      -6.884  -5.628   2.353  0.00  0.00    +0.026 C 
ATOM      6  C   UNL     1      -7.019  -4.834  -0.008  0.00  0.00    +0.257 C 
ATOM      7  O   UNL     1      -8.227  -4.975  -0.046  0.00  0.00    -0.270 OA
ATOM      8  N   UNL     1      -6.340  -4.379  -1.080  0.00  0.00    -0.236 N 
ATOM      9  C   UNL     1      -5.011  -4.213  -1.050  0.00  0.00    +0.315 C 
ATOM     10  O   UNL     1      -4.460  -3.794  -2.049  0.00  0.00    -0.252 OA
ATOM     11  H   UNL     1      -6.826  -4.162  -1.892  0.00  0.00    +0.159 HD
ENDROOT
BRANCH   5  12
ATOM     12  C   UNL     1      -8.288  -6.028   2.302  0.00  0.00    -0.022 A 
ATOM     13  C   UNL     1      -8.752  -6.838   1.252  0.00  0.00    +0.010 A 
ATOM     14  C   UNL     1     -10.064  -7.209   1.209  0.00  0.00    +0.026 A 
ATOM     15  C   UNL     1     -10.944  -6.785   2.204  0.00  0.00    +0.060 A 
ATOM     16  C   UNL     1     -10.489  -5.981   3.248  0.00  0.00    +0.148 A 
ATOM     17  C   UNL     1      -9.177  -5.610   3.304  0.00  0.00    +0.042 A 
BRANCH  16  18
ATOM     18  N   UNL     1     -11.429  -5.535   4.301  0.00  0.00    +0.058 N 
ATOM     19  O   UNL     1     -11.036  -4.838   5.207  0.00  0.00    -0.126 OA
ATOM     20  O   UNL     1     -12.591  -5.868   4.255  0.00  0.00    -0.126 OA
ENDBRANCH  16  18
BRANCH  15  21
ATOM     21  N   UNL     1     -12.278  -7.166   2.155  0.00  0.00    -0.334 N 
ATOM     22  C   UNL     1     -12.712  -8.403   2.810  0.00  0.00    +0.129 C 
ATOM     23  C   UNL     1     -13.253  -6.330   1.450  0.00  0.00    +0.129 C 
ENDBRANCH  15  21
ENDBRANCH   5  12
BRANCH   1  24
ATOM     24  C   UNL     1      -2.806  -4.280  -0.051  0.00  0.00    +0.118 C 
BRANCH  24  25
ATOM     25  C   UNL     1      -2.475  -2.855   0.395  0.00  0.00    +0.019 C 
BRANCH  25  26
ATOM     26  C   UNL     1      -0.963  -2.635   0.319  0.00  0.00    +0.002 C 
BRANCH  26  27
ATOM     27  C   UNL     1      -0.631  -1.210   0.766  0.00  0.00    -0.000 C 
BRANCH  27  29
ATOM     28  C   UNL     1       1.212   0.435   1.136  0.00  0.00    +0.004 C 
ATOM     29  C   UNL     1       0.881  -0.990   0.690  0.00  0.00    -0.003 C 
ENDBRANCH  27  29
ENDBRANCH  26  27
ENDBRANCH  25  26
ENDBRANCH  24  25
ENDBRANCH   1  24
TORSDOF 8
