REMARK  Name = ZINC08904237
REMARK  7 active torsions:
REMARK  status: ('A' for Active; 'I' for Inactive)
REMARK    1  A    between atoms: C_4  and  N_7
REMARK    2  A    between atoms: C_9  and  C_14
REMARK    3  A    between atoms: C_20  and  S_22
REMARK    4  A    between atoms: S_22  and  C_23
REMARK    5  A    between atoms: C_23  and  C_24
REMARK    6  A    between atoms: N_26  and  C_27
REMARK    7  A    between atoms: C_30  and  N_33
REMARK                            x       y       z     vdW  Elec       q    Type
REMARK                         _______ _______ _______ _____ _____    ______ ____
ROOT
ATOM      1  C   UNL     1       5.811  -3.518   0.392  0.00  0.00    +0.224 C 
ATOM      2  O   UNL     1       5.170  -4.056   1.270  0.00  0.00    -0.275 OA
ATOM      3  N   UNL     1       7.058  -3.944   0.111  0.00  0.00    -0.263 N 
ATOM      4  C   UNL     1       7.612  -5.002   0.828  0.00  0.00    +0.189 A 
ATOM      5  N   UNL     1       7.096  -5.726   1.808  0.00  0.00    -0.125 NA
ATOM      6  N   UNL     1       7.740  -6.661   2.358  0.00  0.00    -0.133 NA
ATOM      7  C   UNL     1       8.972  -6.976   1.988  0.00  0.00    +0.160 A 
ATOM      8  S   UNL     1       9.220  -5.774   0.683  0.00  0.00    -0.024 S 
ATOM      9  H   UNL     1       7.571  -3.514  -0.592  0.00  0.00    +0.157 HD
ENDROOT
BRANCH   1  12
ATOM     10  N   UNL     1       3.651  -0.601   0.024  0.00  0.00    -0.271 N 
ATOM     11  C   UNL     1       3.782  -2.060   0.107  0.00  0.00    +0.127 C 
ATOM     12  C   UNL     1       5.212  -2.374  -0.385  0.00  0.00    +0.102 C 
ATOM     13  C   UNL     1       5.949  -1.050  -0.077  0.00  0.00    +0.110 C 
ATOM     14  C   UNL     1       4.852  -0.008  -0.080  0.00  0.00    +0.221 C 
ATOM     15  O   UNL     1       5.031   1.189  -0.161  0.00  0.00    -0.275 OA
BRANCH  10  19
ATOM     16  C   UNL     1       0.019   1.440   0.086  0.00  0.00    +0.000 A 
ATOM     17  C   UNL     1       1.208   2.146   0.088  0.00  0.00    +0.002 A 
ATOM     18  C   UNL     1       2.413   1.473   0.068  0.00  0.00    +0.023 A 
ATOM     19  C   UNL     1       2.431   0.084   0.045  0.00  0.00    +0.036 A 
ATOM     20  C   UNL     1       1.235  -0.622   0.044  0.00  0.00    +0.023 A 
ATOM     21  C   UNL     1       0.033   0.057   0.064  0.00  0.00    +0.002 A 
ENDBRANCH  10  19
ENDBRANCH   1  12
BRANCH   7  22
ATOM     22  S   UNL     1      10.056  -8.223   2.599  0.00  0.00    -0.088 S 
BRANCH  22  23
ATOM     23  C   UNL     1       9.096  -9.035   3.907  0.00  0.00    +0.172 C 
BRANCH  23  24
ATOM     24  C   UNL     1       9.918 -10.138   4.522  0.00  0.00    +0.227 C 
ATOM     25  O   UNL     1      11.040 -10.355   4.119  0.00  0.00    -0.275 OA
ATOM     26  N   UNL     1       9.405 -10.883   5.522  0.00  0.00    -0.285 N 
ATOM     27  H   UNL     1       8.481 -10.763   5.792  0.00  0.00    +0.155 HD
BRANCH  26  28
ATOM     28  C   UNL     1      10.206 -11.831   6.170  0.00  0.00    +0.034 A 
ATOM     29  C   UNL     1       9.650 -13.023   6.615  0.00  0.00    +0.025 A 
ATOM     30  C   UNL     1      10.443 -13.956   7.254  0.00  0.00    +0.034 A 
ATOM     31  C   UNL     1      11.788 -13.704   7.450  0.00  0.00    +0.126 A 
ATOM     32  C   UNL     1      12.344 -12.517   7.009  0.00  0.00    +0.034 A 
ATOM     33  C   UNL     1      11.558 -11.583   6.364  0.00  0.00    +0.025 A 
BRANCH  31  34
ATOM     34  N   UNL     1      12.635 -14.706   8.136  0.00  0.00    +0.056 N 
ATOM     35  O   UNL     1      12.150 -15.744   8.523  0.00  0.00    -0.126 OA
ATOM     36  O   UNL     1      13.811 -14.487   8.309  0.00  0.00    -0.126 OA
ENDBRANCH  31  34
ENDBRANCH  26  28
ENDBRANCH  23  24
ENDBRANCH  22  23
ENDBRANCH   7  22
TORSDOF 7
