REMARK  Name = ZINC22312960
REMARK  7 active torsions:
REMARK  status: ('A' for Active; 'I' for Inactive)
REMARK    1  A    between atoms: C_1  and  C_2
REMARK    2  A    between atoms: C_4  and  N_7
REMARK    3  A    between atoms: C_8  and  C_10
REMARK    4  A    between atoms: C_10  and  C_12
REMARK    5  A    between atoms: C_10  and  S_13
REMARK    6  A    between atoms: S_13  and  C_14
REMARK    7  A    between atoms: C_17  and  C_20
REMARK                            x       y       z     vdW  Elec       q    Type
REMARK                         _______ _______ _______ _____ _____    ______ ____
ROOT
ATOM      1  S   UNL     1      -1.587  -0.632   0.598  0.00  0.00    -0.074 S 
ENDROOT
BRANCH   1   2
ATOM      2  C   UNL     1      -1.242  -2.360   0.629  0.00  0.00    +0.185 A 
ATOM      3  N   UNL     1      -2.101  -3.351   1.007  0.00  0.00    -0.201 NA
ATOM      4  H   UNL     1       0.829  -2.487  -0.072  0.00  0.00    +0.191 HD
ATOM      5  C   UNL     1      -1.397  -4.526   0.868  0.00  0.00    +0.182 A 
ATOM      6  N   UNL     1      -0.198  -4.207   0.441  0.00  0.00    -0.152 NA
ATOM      7  N   UNL     1      -0.108  -2.934   0.292  0.00  0.00    -0.253 N 
BRANCH   5   8
ATOM      8  C   UNL     1      -1.898  -5.888   1.147  0.00  0.00    +0.021 A 
ATOM      9  C   UNL     1      -3.200  -6.074   1.614  0.00  0.00    +0.013 A 
ATOM     10  C   UNL     1      -3.663  -7.348   1.868  0.00  0.00    +0.021 A 
ATOM     11  C   UNL     1      -2.836  -8.441   1.669  0.00  0.00    +0.041 A 
ATOM     12  C   UNL     1      -1.542  -8.262   1.211  0.00  0.00    +0.021 A 
ATOM     13  C   UNL     1      -1.069  -6.994   0.949  0.00  0.00    +0.013 A 
ATOM     14 CL   UNL     1      -3.424 -10.041   1.997  0.00  0.00    -0.084 Cl
ENDBRANCH   5   8
ENDBRANCH   1   2
BRANCH   1  15
ATOM     15  C   UNL     1       0.002  -0.004   0.002  0.00  0.00    +0.137 C 
ATOM     16  C   UNL     1       0.246  -0.503  -1.424  0.00  0.00    +0.029 C 
BRANCH  15  18
ATOM     17  N   UNL     1       1.139   2.192   0.003  0.00  0.00    -0.253 N 
ATOM     18  C   UNL     1      -0.018   1.503   0.010  0.00  0.00    +0.233 C 
ATOM     19  O   UNL     1      -1.077   2.095   0.018  0.00  0.00    -0.274 OA
ATOM     20  H   UNL     1       2.099   1.655  -0.009  0.00  0.00    +0.158 HD
BRANCH  17  24
ATOM     21  C   UNL     1       2.377   7.015   0.016  0.00  0.00    +0.069 C 
ATOM     22  C   UNL     1       1.634   5.704   0.017  0.00  0.00    +0.082 A 
ATOM     23  C   UNL     1       2.201   4.414   0.005  0.00  0.00    +0.092 A 
ATOM     24  C   UNL     1       1.121   3.580   0.011  0.00  0.00    +0.224 A 
ATOM     25  O   UNL     1       0.036   4.371   0.019  0.00  0.00    -0.339 OA
ATOM     26  N   UNL     1       0.341   5.540   0.028  0.00  0.00    -0.081 NA
ENDBRANCH  17  24
ENDBRANCH  15  18
ENDBRANCH   1  15
TORSDOF 5
