REMARK  Name = ZINC12896475
REMARK  9 active torsions:
REMARK  status: ('A' for Active; 'I' for Inactive)
REMARK    1  A    between atoms: C_1  and  N_2
REMARK    2  A    between atoms: N_2  and  S_3
REMARK    3  A    between atoms: S_3  and  C_6
REMARK    4  A    between atoms: C_6  and  C_7
REMARK    5  A    between atoms: C_12  and  C_13
REMARK    6  A    between atoms: C_13  and  N_14
REMARK    7  A    between atoms: C_15  and  C_17
REMARK    8  A    between atoms: C_17  and  N_18
REMARK    9  A    between atoms: C_19  and  C_21
REMARK                            x       y       z     vdW  Elec       q    Type
REMARK                         _______ _______ _______ _____ _____    ______ ____
ROOT
ATOM      1  N   UNL     1       3.695   1.930  -3.108  0.00  0.00    -0.310 N 
ATOM      2  C   UNL     1       3.375   3.237  -3.190  0.00  0.00    +0.230 C 
ATOM      3  O   UNL     1       2.355   3.577  -3.752  0.00  0.00    -0.274 OA
ATOM      4  H   UNL     1       4.510   1.658  -2.658  0.00  0.00    +0.149 HD
ENDROOT
BRANCH   1   5
ATOM      5  C   UNL     1       2.812   0.921  -3.698  0.00  0.00    +0.140 C 
BRANCH   5  11
ATOM      6  C   UNL     1       3.233  -1.075  -2.247  0.00  0.00    -0.020 A 
ATOM      7  C   UNL     1       3.762  -2.335  -2.040  0.00  0.00    +0.005 A 
ATOM      8  C   UNL     1       4.456  -2.969  -3.053  0.00  0.00    +0.000 A 
ATOM      9  C   UNL     1       4.621  -2.342  -4.274  0.00  0.00    +0.000 A 
ATOM     10  C   UNL     1       4.092  -1.082  -4.482  0.00  0.00    +0.005 A 
ATOM     11  C   UNL     1       3.394  -0.450  -3.470  0.00  0.00    -0.026 A 
BRANCH   6  12
ATOM     12  C   UNL     1       2.477  -0.384  -1.142  0.00  0.00    +0.220 C 
BRANCH  12  13
ATOM     13  S   UNL     1       0.718  -0.816  -1.251  0.00  0.00    +0.033 S 
ATOM     14  O   UNL     1       0.532  -2.191  -0.946  0.00  0.00    -0.158 OA
ATOM     15  O   UNL     1       0.147  -0.250  -2.423  0.00  0.00    -0.158 OA
BRANCH  13  17
ATOM     16  C   UNL     1      -0.018   1.461   0.010  0.00  0.00    +0.127 C 
ATOM     17  N   UNL     1       0.002  -0.004   0.002  0.00  0.00    -0.197 NA
ATOM     18  H   UNL     1      -0.404  -0.499   0.731  0.00  0.00    +0.147 HD
ENDBRANCH  13  17
ENDBRANCH  12  13
ENDBRANCH   6  12
ENDBRANCH   5  11
ENDBRANCH   1   5
BRANCH   2  19
ATOM     19  C   UNL     1       4.283   4.275  -2.583  0.00  0.00    +0.200 C 
BRANCH  19  20
ATOM     20  N   UNL     1       3.717   5.608  -2.804  0.00  0.00    -0.302 N 
ATOM     21  C   UNL     1       4.363   6.699  -2.345  0.00  0.00    +0.253 C 
ATOM     22  O   UNL     1       5.415   6.576  -1.747  0.00  0.00    -0.270 OA
ATOM     23  H   UNL     1       2.878   5.706  -3.282  0.00  0.00    +0.150 HD
BRANCH  21  24
ATOM     24  C   UNL     1       3.796   8.035  -2.568  0.00  0.00    +0.093 A 
ATOM     25  C   UNL     1       4.297   9.242  -2.189  0.00  0.00    +0.068 A 
ATOM     26  C   UNL     1       3.594  10.422  -2.501  0.00  0.00    +0.008 A 
ATOM     27  C   UNL     1       3.949  11.761  -2.196  0.00  0.00    +0.010 A 
ATOM     28  C   UNL     1       3.151  12.793  -2.572  0.00  0.00    +0.001 A 
ATOM     29  C   UNL     1       1.965  12.583  -3.265  0.00  0.00    +0.001 A 
ATOM     30  C   UNL     1       1.583  11.296  -3.583  0.00  0.00    +0.016 A 
ATOM     31  C   UNL     1       2.383  10.237  -3.208  0.00  0.00    +0.021 A 
ATOM     32  S   UNL     1       2.284   8.476  -3.407  0.00  0.00    -0.082 S 
ATOM     33 CL   UNL     1       5.799   9.328  -1.323  0.00  0.00    -0.082 Cl
ENDBRANCH  21  24
ENDBRANCH  19  20
ENDBRANCH   2  19
TORSDOF 8
