REMARK  Name = ZINC57503280
REMARK  9 active torsions:
REMARK  status: ('A' for Active; 'I' for Inactive)
REMARK    1  A    between atoms: C_1  and  C_2
REMARK    2  A    between atoms: C_2  and  C_3
REMARK    3  A    between atoms: C_2  and  C_4
REMARK    4  A    between atoms: C_4  and  C_5
REMARK    5  A    between atoms: C_5  and  N_6
REMARK    6  A    between atoms: C_7  and  C_9
REMARK    7  A    between atoms: C_9  and  N_10
REMARK    8  A    between atoms: C_17  and  C_20
REMARK    9  A    between atoms: C_22  and  C_25
REMARK                            x       y       z     vdW  Elec       q    Type
REMARK                         _______ _______ _______ _____ _____    ______ ____
ROOT
ATOM      1  N   UNL     1       0.138  -0.510   7.335  0.00  0.00    -0.203 N 
ATOM      2  C   UNL     1      -0.818  -1.248   7.938  0.00  0.00    +0.351 A 
ATOM      3  O   UNL     1      -1.211  -2.345   7.579  0.00  0.00    -0.244 OA
ATOM      4  N   UNL     1      -1.259  -0.557   9.008  0.00  0.00    -0.250 N 
ATOM      5  C   UNL     1      -2.211  -0.843   9.953  0.00  0.00    +0.098 A 
ATOM      6  C   UNL     1      -2.495   0.011  10.954  0.00  0.00    +0.019 A 
ATOM      7  C   UNL     1      -1.828   1.238  11.079  0.00  0.00    +0.018 A 
ATOM      8  C   UNL     1      -0.857   1.582  10.155  0.00  0.00    +0.084 A 
ATOM      9  C   UNL     1      -0.561   0.635   9.068  0.00  0.00    +0.174 A 
ATOM     10  N   UNL     1       0.286   0.673   8.072  0.00  0.00    -0.148 NA
ENDROOT
BRANCH   8  11
ATOM     11  C   UNL     1      -0.138   2.863  10.257  0.00  0.00    +0.262 A 
ATOM     12  N   UNL     1      -0.318   3.777  11.186  0.00  0.00    -0.187 NA
ATOM     13  C   UNL     1       0.505   4.814  10.971  0.00  0.00    +0.202 A 
ATOM     14  N   UNL     1       1.221   4.573   9.899  0.00  0.00    -0.056 NA
ATOM     15  O   UNL     1       0.821   3.299   9.419  0.00  0.00    -0.332 OA
BRANCH  13  16
ATOM     16  C   UNL     1       0.590   6.036  11.809  0.00  0.00    +0.023 A 
ATOM     17  C   UNL     1      -0.225   6.172  12.931  0.00  0.00    +0.013 A 
ATOM     18  C   UNL     1      -0.142   7.310  13.708  0.00  0.00    +0.021 A 
ATOM     19  C   UNL     1       0.749   8.315  13.374  0.00  0.00    +0.041 A 
ATOM     20  C   UNL     1       1.561   8.184  12.260  0.00  0.00    +0.021 A 
ATOM     21  C   UNL     1       1.489   7.048  11.480  0.00  0.00    +0.013 A 
ATOM     22 CL   UNL     1       0.849   9.744  14.354  0.00  0.00    -0.084 Cl
ENDBRANCH  13  16
ENDBRANCH   8  11
BRANCH   1  23
ATOM     23  C   UNL     1       0.888  -0.881   6.133  0.00  0.00    +0.244 C 
BRANCH  23  25
ATOM     24  N   UNL     1       0.667  -0.609   3.684  0.00  0.00    -0.314 N 
ATOM     25  C   UNL     1       0.159  -0.382   4.912  0.00  0.00    +0.235 C 
ATOM     26  O   UNL     1      -0.884   0.224   5.034  0.00  0.00    -0.274 OA
ATOM     27  H   UNL     1       1.502  -1.093   3.586  0.00  0.00    +0.149 HD
BRANCH  24  28
ATOM     28  C   UNL     1      -0.042  -0.124   2.497  0.00  0.00    +0.104 C 
BRANCH  28  29
ATOM     29  C   UNL     1       0.742  -0.511   1.242  0.00  0.00    +0.022 C 
BRANCH  29  31
ATOM     30  C   UNL     1      -0.019   1.526   0.010  0.00  0.00    +0.007 C 
ATOM     31  C   UNL     1       0.002  -0.004   0.002  0.00  0.00    -0.016 C 
ATOM     32  C   UNL     1       0.718  -0.497  -1.257  0.00  0.00    +0.007 C 
ENDBRANCH  29  31
ENDBRANCH  28  29
ENDBRANCH  24  28
ENDBRANCH  23  25
ENDBRANCH   1  23
TORSDOF 7
