REMARK  Name = ZINC59014850
REMARK  8 active torsions:
REMARK  status: ('A' for Active; 'I' for Inactive)
REMARK    1  A    between atoms: C_4  and  C_7
REMARK    2  A    between atoms: C_7  and  S_8
REMARK    3  A    between atoms: S_8  and  C_9
REMARK    4  A    between atoms: C_15  and  C_17
REMARK    5  A    between atoms: C_17  and  S_18
REMARK    6  A    between atoms: S_18  and  C_19
REMARK    7  A    between atoms: N_24  and  N_25
REMARK    8  A    between atoms: C_26  and  C_27
REMARK                            x       y       z     vdW  Elec       q    Type
REMARK                         _______ _______ _______ _____ _____    ______ ____
ROOT
ATOM      1  C   UNL     1      11.355  -4.984   1.033  0.00  0.00    +0.173 C 
ENDROOT
BRANCH   1   8
ATOM      2  C   UNL     1       5.786  -1.866   1.477  0.00  0.00    +0.160 A 
ATOM      3  N   UNL     1       6.433  -2.222   0.377  0.00  0.00    -0.133 NA
ATOM      4  N   UNL     1       7.532  -2.839   0.420  0.00  0.00    -0.125 NA
ATOM      5  C   UNL     1       8.107  -3.167   1.565  0.00  0.00    +0.189 A 
ATOM      6  S   UNL     1       6.913  -2.496   2.718  0.00  0.00    -0.024 S 
ATOM      7  N   UNL     1       9.304  -3.839   1.806  0.00  0.00    -0.263 N 
ATOM      8  C   UNL     1      10.061  -4.258   0.773  0.00  0.00    +0.229 C 
ATOM      9  O   UNL     1       9.701  -4.049  -0.367  0.00  0.00    -0.275 OA
ATOM     10  H   UNL     1       9.591  -4.006   2.717  0.00  0.00    +0.157 HD
BRANCH   2  11
ATOM     11  S   UNL     1       4.257  -1.011   1.666  0.00  0.00    -0.092 S 
BRANCH  11  12
ATOM     12  C   UNL     1       3.711  -0.707  -0.038  0.00  0.00    +0.111 C 
BRANCH  12  16
ATOM     13  C   UNL     1      -0.017   1.378   0.010  0.00  0.00    +0.000 A 
ATOM     14  C   UNL     1       1.171   2.086   0.002  0.00  0.00    +0.000 A 
ATOM     15  C   UNL     1       2.377   1.411  -0.013  0.00  0.00    +0.004 A 
ATOM     16  C   UNL     1       2.396   0.029  -0.020  0.00  0.00    -0.037 A 
ATOM     17  C   UNL     1       1.208  -0.679  -0.012  0.00  0.00    +0.004 A 
ATOM     18  C   UNL     1       0.002  -0.004   0.002  0.00  0.00    +0.000 A 
ENDBRANCH  12  16
ENDBRANCH  11  12
ENDBRANCH   2  11
ENDBRANCH   1   8
BRANCH   1  19
ATOM     19  S   UNL     1      12.136  -5.413  -0.547  0.00  0.00    -0.075 S 
BRANCH  19  20
ATOM     20  C   UNL     1      13.617  -6.245  -0.079  0.00  0.00    +0.211 A 
ATOM     21  N   UNL     1      14.527  -6.745  -0.922  0.00  0.00    -0.186 NA
ATOM     22  C   UNL     1      15.507  -7.299  -0.238  0.00  0.00    +0.232 A 
ATOM     23  N   UNL     1      15.230  -7.158   1.076  0.00  0.00    -0.245 N 
ATOM     24  N   UNL     1      14.008  -6.471   1.153  0.00  0.00    -0.144 NA
ATOM     25  N   UNL     1      16.623  -7.916  -0.772  0.00  0.00    -0.205 N 
ATOM     26  H   UNL     1      17.294  -8.297  -0.184  0.00  0.00    +0.177 HD
ATOM     27  H   UNL     1      15.770  -7.468   1.819  0.00  0.00    +0.192 HD
BRANCH  25  28
ATOM     28  N   UNL     1      16.785  -7.991  -2.162  0.00  0.00    -0.188 NA
ATOM     29  C   UNL     1      17.833  -8.570  -2.663  0.00  0.00    +0.138 C 
BRANCH  29  30
ATOM     30  C   UNL     1      18.003  -8.649  -4.125  0.00  0.00    -0.005 A 
ATOM     31  C   UNL     1      17.041  -8.095  -4.974  0.00  0.00    +0.012 A 
ATOM     32  C   UNL     1      17.207  -8.171  -6.341  0.00  0.00    +0.039 A 
ATOM     33  C   UNL     1      18.324  -8.796  -6.873  0.00  0.00    +0.123 A 
ATOM     34  C   UNL     1      19.281  -9.347  -6.036  0.00  0.00    +0.039 A 
ATOM     35  C   UNL     1      19.130  -9.272  -4.668  0.00  0.00    +0.012 A 
ATOM     36  F   UNL     1      18.480  -8.867  -8.213  0.00  0.00    -0.205 F 
ENDBRANCH  29  30
ENDBRANCH  25  28
ENDBRANCH  19  20
ENDBRANCH   1  19
TORSDOF 8
