REMARK  Name = ZINC39534303
REMARK  7 active torsions:
REMARK  status: ('A' for Active; 'I' for Inactive)
REMARK    1  A    between atoms: C_4  and  O_7
REMARK    2  A    between atoms: O_7  and  S_8
REMARK    3  A    between atoms: S_8  and  C_11
REMARK    4  A    between atoms: C_14  and  C_17
REMARK    5  A    between atoms: C_17  and  C_19
REMARK    6  A    between atoms: C_17  and  N_22
REMARK    7  A    between atoms: C_19  and  N_20
REMARK                            x       y       z     vdW  Elec       q    Type
REMARK                         _______ _______ _______ _____ _____    ______ ____
ROOT
ATOM      1  C   UNL     1       3.244  -2.503   1.664  0.00  0.00    +0.128 A 
ATOM      2  C   UNL     1       1.913  -2.261   1.950  0.00  0.00    +0.031 A 
ATOM      3  C   UNL     1       1.153  -3.232   2.574  0.00  0.00    +0.007 A 
ATOM      4  C   UNL     1       1.723  -4.446   2.912  0.00  0.00    -0.029 A 
ATOM      5  C   UNL     1       3.053  -4.688   2.625  0.00  0.00    +0.007 A 
ATOM      6  C   UNL     1       3.813  -3.718   1.997  0.00  0.00    +0.031 A 
ENDROOT
BRANCH   1   7
ATOM      7  S   UNL     1       4.213  -1.265   0.869  0.00  0.00    +0.151 S 
ATOM      8  O   UNL     1       5.568  -1.536   1.199  0.00  0.00    -0.131 OA
ATOM      9  O   UNL     1       3.594  -0.018   1.155  0.00  0.00    -0.131 OA
BRANCH   7  10
ATOM     10  O   UNL     1       4.079  -1.483  -0.631  0.00  0.00    -0.342 OA
BRANCH  10  14
ATOM     11  C   UNL     1       0.457  -0.267  -2.188  0.00  0.00    +0.000 A 
ATOM     12  C   UNL     1       1.515   0.621  -2.126  0.00  0.00    +0.004 A 
ATOM     13  C   UNL     1       2.729   0.216  -1.605  0.00  0.00    +0.048 A 
ATOM     14  C   UNL     1       2.886  -1.082  -1.144  0.00  0.00    +0.157 A 
ATOM     15  C   UNL     1       1.823  -1.971  -1.207  0.00  0.00    +0.048 A 
ATOM     16  C   UNL     1       0.611  -1.562  -1.729  0.00  0.00    +0.004 A 
ENDBRANCH  10  14
ENDBRANCH   7  10
ENDBRANCH   1   7
BRANCH   4  17
ATOM     17  C   UNL     1       0.894  -5.504   3.593  0.00  0.00    +0.101 C 
BRANCH  17  18
ATOM     18  N   UNL     1       1.760  -6.620   3.996  0.00  0.00    -0.295 NA
ATOM     19  C   UNL     1       2.123  -7.450   2.839  0.00  0.00    +0.066 C 
ATOM     20  C   UNL     1       3.071  -8.563   3.291  0.00  0.00    -0.063 C 
ATOM     21  N   UNL     1       2.411  -9.383   4.316  0.00  0.00    +0.400 N 
ATOM     22  C   UNL     1       2.077  -8.545   5.475  0.00  0.00    +0.116 C 
ATOM     23  C   UNL     1       1.121  -7.432   5.041  0.00  0.00    +0.100 C 
ATOM     24  O   UNL     1       1.451  -9.347   6.478  0.00  0.00    -0.251 OA
ATOM     25  H   UNL     1       1.566  -9.781   3.934  0.00  0.00    -0.082 HD
ATOM     26  H   UNL     1       3.032 -10.124   4.604  0.00  0.00    -0.082 HD
ENDBRANCH  17  18
BRANCH  17  27
ATOM     27  C   UNL     1      -0.177  -6.013   2.626  0.00  0.00    +0.117 C 
BRANCH  27  28
ATOM     28  N   UNL     1      -0.963  -7.069   3.279  0.00  0.00    -0.254 NA
ATOM     29 BR   UNL     1      -2.274  -7.716   2.145  0.00  0.00    +0.010 Br
ATOM     30  H   UNL     1      -1.365  -6.738   4.143  0.00  0.00    +0.135 HD
ENDBRANCH  27  28
ENDBRANCH  17  27
ENDBRANCH   4  17
TORSDOF 7
