REMARK  Name = ZINC06767846
REMARK  8 active torsions:
REMARK  status: ('A' for Active; 'I' for Inactive)
REMARK    1  A    between atoms: C_1  and  C_2
REMARK    2  A    between atoms: C_2  and  C_3
REMARK    3  A    between atoms: C_3  and  C_5
REMARK    4  A    between atoms: C_3  and  N_17
REMARK    5  A    between atoms: N_7  and  C_8
REMARK    6  A    between atoms: C_22  and  C_24
REMARK    7  A    between atoms: C_27  and  C_31
REMARK    8  A    between atoms: C_28  and  C_30
REMARK                            x       y       z     vdW  Elec       q    Type
REMARK                         _______ _______ _______ _____ _____    ______ ____
ROOT
ATOM      1  C   UNL     1      -1.208  -0.821   0.131  0.00  0.00    +0.196 C 
ENDROOT
BRANCH   1   2
ATOM      2  N   UNL     1      -0.869  -2.246   0.104  0.00  0.00    -0.217 N 
ATOM      3  C   UNL     1      -1.190  -3.016   1.160  0.00  0.00    +0.268 A 
ATOM      4  O   UNL     1      -1.754  -2.529   2.127  0.00  0.00    -0.266 OA
ATOM      5  C   UNL     1      -0.867  -4.391   1.143  0.00  0.00    +0.074 A 
ATOM      6  C   UNL     1      -0.236  -4.884   0.039  0.00  0.00    +0.035 A 
ATOM      7  C   UNL     1       0.058  -3.993  -1.019  0.00  0.00    +0.092 A 
ATOM      8  N   UNL     1      -0.279  -2.728  -0.930  0.00  0.00    -0.168 NA
BRANCH   7   9
ATOM      9  C   UNL     1       0.743  -4.491  -2.236  0.00  0.00    +0.002 A 
ATOM     10  C   UNL     1       1.035  -3.617  -3.282  0.00  0.00    +0.010 A 
ATOM     11  C   UNL     1       1.673  -4.086  -4.412  0.00  0.00    +0.004 A 
ATOM     12  C   UNL     1       2.022  -5.421  -4.509  0.00  0.00    -0.047 A 
ATOM     13  C   UNL     1       1.735  -6.293  -3.474  0.00  0.00    -0.047 A 
ATOM     14  C   UNL     1       1.102  -5.834  -2.337  0.00  0.00    +0.013 A 
ATOM     15  C   UNL     1       2.119  -7.746  -3.586  0.00  0.00    +0.044 C 
ATOM     16  C   UNL     1       2.719  -5.928  -5.745  0.00  0.00    +0.044 C 
ENDBRANCH   7   9
ENDBRANCH   1   2
BRANCH   1  17
ATOM     17  C   UNL     1       0.052  -0.003   0.008  0.00  0.00    +0.242 C 
ATOM     18  O   UNL     1       1.127  -0.555  -0.093  0.00  0.00    -0.273 OA
ATOM     19  N   UNL     1      -0.016   1.344   0.009  0.00  0.00    -0.284 N 
ATOM     20  H   UNL     1      -0.995   1.845   0.025  0.00  0.00    +0.155 HD
BRANCH  19  21
ATOM     21  C   UNL     1       1.160   2.104  -0.008  0.00  0.00    +0.037 A 
ATOM     22  C   UNL     1       1.217   3.310   0.678  0.00  0.00    +0.027 A 
ATOM     23  C   UNL     1       2.379   4.059   0.667  0.00  0.00    +0.051 A 
ATOM     24  C   UNL     1       3.485   3.614  -0.039  0.00  0.00    +0.166 A 
ATOM     25  C   UNL     1       3.429   2.408  -0.733  0.00  0.00    +0.168 A 
ATOM     26  C   UNL     1       2.266   1.656  -0.716  0.00  0.00    +0.072 A 
ATOM     27  O   UNL     1       4.634   2.197  -1.339  0.00  0.00    -0.453 OA
ATOM     28  C   UNL     1       5.290   3.478  -1.347  0.00  0.00    +0.466 C 
ATOM     29  O   UNL     1       4.726   4.159  -0.210  0.00  0.00    -0.453 OA
ENDBRANCH  19  21
ENDBRANCH   1  17
BRANCH   1  31
ATOM     30  C   UNL     1      -3.471  -1.232  -0.844  0.00  0.00    +0.006 C 
ATOM     31  C   UNL     1      -2.143  -0.496  -1.035  0.00  0.00    +0.033 C 
ENDBRANCH   1  31
TORSDOF 5
