REMARK  Name = ZINC60267401
REMARK  15 active torsions:
REMARK  status: ('A' for Active; 'I' for Inactive)
REMARK    1  A    between atoms: C_1  and  C_2
REMARK    2  A    between atoms: C_2  and  N_3
REMARK    3  A    between atoms: C_7  and  C_9
REMARK    4  A    between atoms: C_9  and  N_10
REMARK    5  A    between atoms: N_10  and  C_11
REMARK    6  A    between atoms: C_11  and  C_12
REMARK    7  A    between atoms: C_12  and  C_13
REMARK    8  A    between atoms: C_13  and  O_15
REMARK    9  A    between atoms: O_15  and  C_16
REMARK   10  A    between atoms: C_16  and  C_17
REMARK   11  A    between atoms: C_18  and  C_20
REMARK   12  A    between atoms: C_21  and  C_22
REMARK   13  A    between atoms: C_25  and  S_28
REMARK   14  A    between atoms: S_28  and  N_31
REMARK   15  A    between atoms: N_31  and  C_32
REMARK                            x       y       z     vdW  Elec       q    Type
REMARK                         _______ _______ _______ _____ _____    ______ ____
ROOT
ATOM      1  N   UNL     1      -1.381  -1.709   0.190  0.00  0.00    -0.299 N 
ATOM      2  C   UNL     1      -1.541  -0.644   0.999  0.00  0.00    +0.239 C 
ATOM      3  O   UNL     1      -2.647  -0.159   1.155  0.00  0.00    -0.271 OA
ENDROOT
BRANCH   2   4
ATOM      4  C   UNL     1      -0.386  -0.069   1.692  0.00  0.00    +0.068 C 
ATOM      5  C   UNL     1      -0.561   0.925   2.585  0.00  0.00    +0.013 C 
BRANCH   5   6
ATOM      6  C   UNL     1       0.607   1.582   3.193  0.00  0.00    -0.025 A 
ATOM      7  C   UNL     1       1.900   1.181   2.844  0.00  0.00    +0.010 A 
ATOM      8  C   UNL     1       2.990   1.802   3.418  0.00  0.00    +0.029 A 
ATOM      9  C   UNL     1       2.806   2.819   4.338  0.00  0.00    +0.105 A 
ATOM     10  C   UNL     1       1.529   3.221   4.690  0.00  0.00    +0.029 A 
ATOM     11  C   UNL     1       0.430   2.615   4.120  0.00  0.00    +0.010 A 
BRANCH   9  12
ATOM     12  S   UNL     1       4.204   3.605   5.067  0.00  0.00    +0.059 S 
ATOM     13  O   UNL     1       3.764   4.152   6.303  0.00  0.00    -0.153 OA
ATOM     14  O   UNL     1       5.279   2.679   4.984  0.00  0.00    -0.153 OA
BRANCH  12  15
ATOM     15  N   UNL     1       4.606   4.886   4.098  0.00  0.00    -0.187 NA
ATOM     16  H   UNL     1       5.455   4.892   3.630  0.00  0.00    +0.148 HD
BRANCH  15  17
ATOM     17  C   UNL     1       3.679   6.011   3.949  0.00  0.00    +0.077 C 
ATOM     18  C   UNL     1       3.640   6.719   2.594  0.00  0.00    +0.022 C 
ATOM     19  C   UNL     1       4.283   7.408   3.799  0.00  0.00    +0.022 C 
ENDBRANCH  15  17
ENDBRANCH  12  15
ENDBRANCH   9  12
ENDBRANCH   5   6
ENDBRANCH   2   4
BRANCH   1  20
ATOM     20  C   UNL     1      -0.074  -2.364   0.091  0.00  0.00    +0.093 C 
BRANCH  20  25
ATOM     21  N   UNL     1       2.118  -2.248  -1.019  0.00  0.00    +0.382 N 
ATOM     22  C   UNL     1       2.350  -2.880  -2.336  0.00  0.00    -0.078 C 
ATOM     23  C   UNL     1       1.367  -2.166  -3.296  0.00  0.00    -0.020 C 
ATOM     24  C   UNL     1       0.128  -1.966  -2.385  0.00  0.00    -0.016 C 
ATOM     25  C   UNL     1       0.755  -1.686  -1.002  0.00  0.00    -0.051 C 
ATOM     26  H   UNL     1       2.791  -1.510  -0.875  0.00  0.00    -0.081 HD
BRANCH  21  28
ATOM     27  C   UNL     1       3.694  -3.761   0.087  0.00  0.00    -0.017 C 
ATOM     28  C   UNL     1       2.251  -3.254   0.042  0.00  0.00    -0.082 C 
ENDBRANCH  21  28
ENDBRANCH  20  25
ENDBRANCH   1  20
BRANCH   1  29
ATOM     29  C   UNL     1      -2.513  -2.213  -0.592  0.00  0.00    +0.119 C 
BRANCH  29  30
ATOM     30  C   UNL     1      -3.265  -3.267   0.223  0.00  0.00    +0.139 C 
BRANCH  30  31
ATOM     31  C   UNL     1      -4.430  -3.785  -0.581  0.00  0.00    +0.309 C 
ATOM     32  O   UNL     1      -4.637  -3.355  -1.691  0.00  0.00    -0.251 OA
BRANCH  31  33
ATOM     33  O   UNL     1      -5.238  -4.724  -0.064  0.00  0.00    -0.465 OA
BRANCH  33  34
ATOM     34  C   UNL     1      -6.322  -5.170  -0.881  0.00  0.00    +0.229 C 
ATOM     35  C   UNL     1      -7.125  -6.232  -0.129  0.00  0.00    +0.048 C 
ENDBRANCH  33  34
ENDBRANCH  31  33
ENDBRANCH  30  31
ENDBRANCH  29  30
ENDBRANCH   1  29
TORSDOF 13
