REMARK  Name = ZINC17296776
REMARK  12 active torsions:
REMARK  status: ('A' for Active; 'I' for Inactive)
REMARK    1  A    between atoms: C_1  and  C_2
REMARK    2  A    between atoms: C_2  and  O_3
REMARK    3  A    between atoms: O_3  and  C_4
REMARK    4  A    between atoms: C_4  and  C_6
REMARK    5  A    between atoms: C_6  and  C_8
REMARK    6  A    between atoms: C_6  and  S_9
REMARK    7  A    between atoms: S_9  and  C_10
REMARK    8  A    between atoms: C_13  and  C_23
REMARK    9  A    between atoms: N_14  and  C_15
REMARK   10  A    between atoms: C_17  and  C_22
REMARK   11  A    between atoms: C_20  and  C_21
REMARK   12  A    between atoms: C_23  and  C_24
REMARK                            x       y       z     vdW  Elec       q    Type
REMARK                         _______ _______ _______ _____ _____    ______ ____
ROOT
ATOM      1  C   UNL     1      -1.505   1.210  -6.252  0.00  0.00    +0.197 A 
ATOM      2  N   UNL     1      -2.290   2.257  -6.157  0.00  0.00    -0.122 NA
ATOM      3  N   UNL     1      -2.878   2.467  -7.280  0.00  0.00    -0.133 NA
ATOM      4  C   UNL     1      -2.508   1.575  -8.154  0.00  0.00    +0.144 A 
ATOM      5  N   UNL     1      -1.614   0.743  -7.534  0.00  0.00    -0.274 N 
ENDROOT
BRANCH   5   6
ATOM      6  C   UNL     1      -0.952  -0.359  -8.094  0.00  0.00    +0.053 A 
ATOM      7  C   UNL     1      -1.528  -1.621  -8.034  0.00  0.00    +0.030 A 
ATOM      8  C   UNL     1      -0.873  -2.704  -8.587  0.00  0.00    -0.048 A 
ATOM      9  C   UNL     1       0.355  -2.533  -9.199  0.00  0.00    +0.004 A 
ATOM     10  C   UNL     1       0.931  -1.277  -9.260  0.00  0.00    +0.005 A 
ATOM     11  C   UNL     1       0.279  -0.189  -8.714  0.00  0.00    -0.026 A 
ATOM     12  C   UNL     1       0.904   1.180  -8.786  0.00  0.00    +0.046 C 
ATOM     13  C   UNL     1      -1.497  -4.074  -8.523  0.00  0.00    +0.044 C 
ENDBRANCH   5   6
BRANCH   1  14
ATOM     14  S   UNL     1      -0.495   0.536  -4.974  0.00  0.00    -0.071 S 
BRANCH  14  15
ATOM     15  C   UNL     1      -0.887   1.682  -3.629  0.00  0.00    +0.160 C 
ATOM     16  C   UNL     1      -0.389   3.083  -3.990  0.00  0.00    +0.031 C 
BRANCH  15  17
ATOM     17  C   UNL     1      -0.211   1.220  -2.363  0.00  0.00    +0.320 C 
ATOM     18  O   UNL     1       0.783   0.536  -2.424  0.00  0.00    -0.250 OA
BRANCH  17  19
ATOM     19  O   UNL     1      -0.715   1.567  -1.168  0.00  0.00    -0.464 OA
BRANCH  19  21
ATOM     20  C   UNL     1      -0.729   1.579   1.267  0.00  0.00    +0.048 C 
ATOM     21  C   UNL     1      -0.013   1.086   0.008  0.00  0.00    +0.229 C 
ENDBRANCH  19  21
ENDBRANCH  17  19
ENDBRANCH  15  17
ENDBRANCH  14  15
ENDBRANCH   1  14
BRANCH   4  22
ATOM     22  C   UNL     1      -2.973   1.479  -9.585  0.00  0.00    +0.130 C 
BRANCH  22  23
ATOM     23  C   UNL     1      -2.056   2.287 -10.466  0.00  0.00    +0.033 A 
ATOM     24  C   UNL     1      -1.024   1.689 -11.100  0.00  0.00    +0.091 A 
ATOM     25  C   UNL     1      -0.176   2.470 -11.923  0.00  0.00    +0.254 A 
ATOM     26  O   UNL     1       0.760   1.953 -12.506  0.00  0.00    -0.268 OA
ATOM     27  N   UNL     1      -0.416   3.790 -12.056  0.00  0.00    -0.275 N 
ATOM     28  H   UNL     1       0.179   4.348 -12.635  0.00  0.00    +0.173 HD
ATOM     29  C   UNL     1      -1.451   4.360 -11.412  0.00  0.00    +0.327 A 
ATOM     30  O   UNL     1      -1.654   5.552 -11.541  0.00  0.00    -0.247 OA
ATOM     31  N   UNL     1      -2.267   3.628 -10.632  0.00  0.00    -0.311 N 
ATOM     32  H   UNL     1      -3.036   4.069 -10.169  0.00  0.00    +0.170 HD
ENDBRANCH  22  23
ENDBRANCH   4  22
TORSDOF 8
