REMARK  Name = ZINC51137132
REMARK  10 active torsions:
REMARK  status: ('A' for Active; 'I' for Inactive)
REMARK    1  A    between atoms: C_1  and  C_2
REMARK    2  A    between atoms: N_7  and  C_9
REMARK    3  A    between atoms: C_9  and  C_10
REMARK    4  A    between atoms: C_9  and  C_11
REMARK    5  A    between atoms: C_9  and  C_12
REMARK    6  A    between atoms: C_12  and  N_13
REMARK    7  A    between atoms: N_13  and  S_14
REMARK    8  A    between atoms: S_14  and  C_17
REMARK    9  A    between atoms: N_23  and  C_28
REMARK   10  A    between atoms: N_26  and  C_27
REMARK                            x       y       z     vdW  Elec       q    Type
REMARK                         _______ _______ _______ _____ _____    ______ ____
ROOT
ATOM      1  S   UNL     1       2.690  -6.033   1.013  0.00  0.00    +0.058 S 
ATOM      2  O   UNL     1       3.219  -6.183  -0.297  0.00  0.00    -0.153 OA
ATOM      3  O   UNL     1       3.452  -6.312   2.180  0.00  0.00    -0.153 OA
ENDROOT
BRANCH   1   4
ATOM      4  C   UNL     1       1.253  -7.049   1.096  0.00  0.00    +0.107 A 
ATOM      5  C   UNL     1       0.800  -7.504   2.322  0.00  0.00    +0.030 A 
ATOM      6  C   UNL     1      -0.326  -8.301   2.397  0.00  0.00    +0.030 A 
ATOM      7  C   UNL     1      -1.004  -8.647   1.238  0.00  0.00    +0.070 A 
ATOM      8  C   UNL     1      -0.547  -8.188   0.001  0.00  0.00    +0.071 A 
ATOM      9  C   UNL     1       0.580  -7.384  -0.063  0.00  0.00    +0.056 A 
ATOM     10  N   UNL     1      -1.420  -8.691  -0.961  0.00  0.00    -0.295 N 
ATOM     11  C   UNL     1      -2.364  -9.421  -0.339  0.00  0.00    +0.330 A 
ATOM     12  O   UNL     1      -3.280 -10.001  -0.892  0.00  0.00    -0.246 OA
ATOM     13  N   UNL     1      -2.140  -9.414   0.989  0.00  0.00    -0.295 N 
ATOM     14  C   UNL     1      -2.953 -10.096   1.999  0.00  0.00    +0.154 C 
ATOM     15  C   UNL     1      -1.326  -8.462  -2.405  0.00  0.00    +0.154 C 
ENDBRANCH   1   4
BRANCH   1  16
ATOM     16  N   UNL     1       2.186  -4.461   1.142  0.00  0.00    -0.191 NA
ATOM     17  H   UNL     1       2.304  -3.851   0.397  0.00  0.00    +0.148 HD
BRANCH  16  18
ATOM     18  C   UNL     1       1.562  -3.991   2.382  0.00  0.00    +0.093 C 
BRANCH  18  19
ATOM     19  C   UNL     1       1.534  -2.461   2.390  0.00  0.00    -0.057 C 
ATOM     20  C   UNL     1       2.963  -1.924   2.303  0.00  0.00    -0.009 C 
ATOM     21  C   UNL     1       0.882  -1.970   3.685  0.00  0.00    -0.009 C 
BRANCH  19  27
ATOM     22  C   UNL     1      -0.019   1.526   0.010  0.00  0.00    +0.005 C 
ATOM     23  C   UNL     1       0.002  -0.004   0.002  0.00  0.00    -0.031 C 
ATOM     24  C   UNL     1      -1.434  -0.535   0.015  0.00  0.00    -0.001 C 
ATOM     25  C   UNL     1      -1.402  -2.064   0.086  0.00  0.00    -0.018 C 
ATOM     26  C   UNL     1      -0.613  -2.496   1.324  0.00  0.00    -0.078 C 
ATOM     27  N   UNL     1       0.758  -1.980   1.239  0.00  0.00    +0.384 N 
ATOM     28  C   UNL     1       0.740  -0.512   1.242  0.00  0.00    -0.075 C 
ATOM     29  H   UNL     1       1.188  -2.307   0.386  0.00  0.00    -0.081 HD
ENDBRANCH  19  27
ENDBRANCH  18  19
ENDBRANCH  16  18
ENDBRANCH   1  16
TORSDOF 5
