REMARK  Name = ZINC64009076
REMARK  10 active torsions:
REMARK  status: ('A' for Active; 'I' for Inactive)
REMARK    1  A    between atoms: C_1  and  C_2
REMARK    2  A    between atoms: C_4  and  C_35
REMARK    3  A    between atoms: C_5  and  C_33
REMARK    4  A    between atoms: C_6  and  N_15
REMARK    5  A    between atoms: N_8  and  C_9
REMARK    6  A    between atoms: C_16  and  C_18
REMARK    7  A    between atoms: C_18  and  O_19
REMARK    8  A    between atoms: O_19  and  C_20
REMARK    9  A    between atoms: C_20  and  C_22
REMARK   10  A    between atoms: C_25  and  C_27
REMARK                            x       y       z     vdW  Elec       q    Type
REMARK                         _______ _______ _______ _____ _____    ______ ____
ROOT
ATOM      1  N   UNL     1       1.562  -2.503   1.304  0.00  0.00    -0.290 N 
ATOM      2  C   UNL     1       2.313  -2.937   2.336  0.00  0.00    +0.252 C 
ATOM      3  O   UNL     1       3.084  -2.179   2.885  0.00  0.00    -0.272 OA
ATOM      4  H   UNL     1       0.905  -3.092   0.901  0.00  0.00    +0.151 HD
ENDROOT
BRANCH   1   9
ATOM      5  C   UNL     1       0.021   1.643  -0.243  0.00  0.00    +0.033 C 
ATOM      6  C   UNL     1       0.006   0.116  -0.164  0.00  0.00    +0.099 C 
ATOM      7  C   UNL     1       0.875  -0.461  -1.251  0.00  0.00    -0.036 C 
ATOM      8  C   UNL     1       1.855  -1.173  -0.711  0.00  0.00    +0.068 C 
ATOM      9  C   UNL     1       1.739  -1.142   0.790  0.00  0.00    +0.203 C 
ATOM     10  N   UNL     1       0.561  -0.324   1.123  0.00  0.00    -0.300 N 
ATOM     11  C   UNL     1       0.663  -0.261  -2.729  0.00  0.00    +0.042 C 
BRANCH  10  12
ATOM     12  C   UNL     1       0.073  -0.024   2.397  0.00  0.00    +0.032 A 
ATOM     13  C   UNL     1      -1.133   0.652   2.538  0.00  0.00    +0.023 A 
ATOM     14  C   UNL     1      -1.613   0.946   3.799  0.00  0.00    +0.002 A 
ATOM     15  C   UNL     1      -0.896   0.568   4.920  0.00  0.00    +0.000 A 
ATOM     16  C   UNL     1       0.304  -0.105   4.782  0.00  0.00    +0.002 A 
ATOM     17  C   UNL     1       0.788  -0.407   3.524  0.00  0.00    +0.023 A 
ENDBRANCH  10  12
BRANCH   8  18
ATOM     18  C   UNL     1       2.870  -1.866  -1.445  0.00  0.00    +0.098 C 
ATOM     19  N   UNL     1       3.676  -2.416  -2.027  0.00  0.00    -0.191 NA
ENDBRANCH   8  18
ENDBRANCH   1   9
BRANCH   2  20
ATOM     20  C   UNL     1       2.195  -4.364   2.806  0.00  0.00    +0.328 C 
BRANCH  20  21
ATOM     21  O   UNL     1       3.085  -4.579   3.903  0.00  0.00    -0.451 OA
BRANCH  21  22
ATOM     22  C   UNL     1       3.102  -5.814   4.444  0.00  0.00    +0.356 C 
ATOM     23  O   UNL     1       2.380  -6.684   3.997  0.00  0.00    -0.244 OA
BRANCH  22  24
ATOM     24  C   UNL     1       3.991  -6.108   5.572  0.00  0.00    +0.153 C 
ATOM     25  N   UNL     1       4.817  -5.289   6.168  0.00  0.00    -0.146 NA
ATOM     26  N   UNL     1       5.474  -5.810   7.129  0.00  0.00    -0.153 NA
ATOM     27  C   UNL     1       5.201  -7.076   7.345  0.00  0.00    +0.077 C 
ATOM     28  C   UNL     1       4.147  -7.429   6.308  0.00  0.00    +0.122 C 
BRANCH  27  29
ATOM     29  C   UNL     1       5.781  -7.955   8.367  0.00  0.00    -0.002 A 
ATOM     30  C   UNL     1       5.377  -9.294   8.456  0.00  0.00    +0.010 A 
ATOM     31  C   UNL     1       5.927 -10.113   9.418  0.00  0.00    +0.001 A 
ATOM     32  C   UNL     1       6.876  -9.616  10.295  0.00  0.00    +0.000 A 
ATOM     33  C   UNL     1       7.281  -8.295  10.214  0.00  0.00    +0.001 A 
ATOM     34  C   UNL     1       6.745  -7.463   9.255  0.00  0.00    +0.010 A 
ENDBRANCH  27  29
ENDBRANCH  22  24
ENDBRANCH  21  22
ENDBRANCH  20  21
ENDBRANCH   2  20
TORSDOF 8
