REMARK  Name = ZINC43734730
REMARK  6 active torsions:
REMARK  status: ('A' for Active; 'I' for Inactive)
REMARK    1  A    between atoms: C_1  and  C_2
REMARK    2  A    between atoms: C_2  and  C_4
REMARK    3  A    between atoms: C_2  and  N_16
REMARK    4  A    between atoms: N_6  and  C_7
REMARK    5  A    between atoms: C_10  and  N_13
REMARK    6  A    between atoms: C_18  and  C_21
REMARK                            x       y       z     vdW  Elec       q    Type
REMARK                         _______ _______ _______ _____ _____    ______ ____
ROOT
ATOM      1  C   UNL     1      -0.033   1.520   0.013  0.00  0.00    +0.044 C 
ATOM      2  C   UNL     1      -0.002  -0.009   0.002  0.00  0.00    +0.213 C 
ENDROOT
BRANCH   2   3
ATOM      3  N   UNL     1       0.709  -0.491   1.189  0.00  0.00    -0.151 N 
ATOM      4  N   UNL     1       0.209  -1.257   2.098  0.00  0.00    -0.130 NA
ATOM      5  C   UNL     1       1.144  -1.474   3.001  0.00  0.00    +0.205 A 
ATOM      6  N   UNL     1       2.232  -0.805   2.596  0.00  0.00    -0.108 NA
ATOM      7  N   UNL     1       1.932  -0.222   1.485  0.00  0.00    -0.045 NA
BRANCH   5   8
ATOM      8  C   UNL     1       1.016  -2.300   4.228  0.00  0.00    +0.023 A 
ATOM      9  C   UNL     1      -0.185  -2.944   4.515  0.00  0.00    +0.013 A 
ATOM     10  C   UNL     1      -0.299  -3.710   5.657  0.00  0.00    +0.016 A 
ATOM     11  C   UNL     1       0.778  -3.839   6.517  0.00  0.00    +0.018 A 
ATOM     12  C   UNL     1       1.973  -3.201   6.236  0.00  0.00    +0.016 A 
ATOM     13  C   UNL     1       2.099  -2.438   5.093  0.00  0.00    +0.013 A 
ATOM     14 BR   UNL     1       0.615  -4.889   8.081  0.00  0.00    -0.050 Br
ENDBRANCH   5   8
ENDBRANCH   2   3
BRANCH   2  15
ATOM     15  C   UNL     1       0.708  -0.488  -1.238  0.00  0.00    +0.243 C 
ATOM     16  O   UNL     1       1.710  -1.166  -1.140  0.00  0.00    -0.273 OA
ATOM     17  N   UNL     1       0.231  -0.164  -2.456  0.00  0.00    -0.284 N 
ATOM     18  H   UNL     1      -0.606   0.320  -2.535  0.00  0.00    +0.155 HD
BRANCH  17  19
ATOM     19  C   UNL     1       0.942  -0.526  -3.605  0.00  0.00    +0.034 A 
ATOM     20  C   UNL     1       0.954   0.315  -4.710  0.00  0.00    +0.025 A 
ATOM     21  C   UNL     1       1.657  -0.045  -5.843  0.00  0.00    +0.034 A 
ATOM     22  C   UNL     1       2.349  -1.242  -5.878  0.00  0.00    +0.126 A 
ATOM     23  C   UNL     1       2.339  -2.082  -4.780  0.00  0.00    +0.034 A 
ATOM     24  C   UNL     1       1.643  -1.725  -3.641  0.00  0.00    +0.025 A 
BRANCH  22  25
ATOM     25  N   UNL     1       3.101  -1.624  -7.094  0.00  0.00    +0.056 N 
ATOM     26  O   UNL     1       3.110  -0.891  -8.055  0.00  0.00    -0.126 OA
ATOM     27  O   UNL     1       3.706  -2.670  -7.126  0.00  0.00    -0.126 OA
ENDBRANCH  22  25
ENDBRANCH  17  19
ENDBRANCH   2  15
TORSDOF 5
