REMARK  Name = ZINC28852811
REMARK  6 active torsions:
REMARK  status: ('A' for Active; 'I' for Inactive)
REMARK    1  A    between atoms: C_1  and  C_2
REMARK    2  A    between atoms: C_2  and  C_4
REMARK    3  A    between atoms: C_2  and  S_16
REMARK    4  A    between atoms: N_9  and  C_10
REMARK    5  A    between atoms: S_16  and  C_17
REMARK    6  A    between atoms: N_27  and  C_28
REMARK                            x       y       z     vdW  Elec       q    Type
REMARK                         _______ _______ _______ _____ _____    ______ ____
ROOT
ATOM      1  C   UNL     1      -0.019   1.526   0.010  0.00  0.00    +0.029 C 
ATOM      2  C   UNL     1       0.002  -0.004   0.002  0.00  0.00    +0.137 C 
ENDROOT
BRANCH   2   3
ATOM      3  C   UNL     1       0.731  -0.503   1.223  0.00  0.00    +0.233 C 
ATOM      4  O   UNL     1       1.911  -0.775   1.156  0.00  0.00    -0.274 OA
ATOM      5  N   UNL     1       0.071  -0.647   2.389  0.00  0.00    -0.239 N 
ATOM      6  C   UNL     1       0.723  -1.094   3.481  0.00  0.00    +0.306 C 
ATOM      7  O   UNL     1       1.906  -1.367   3.414  0.00  0.00    -0.252 OA
ATOM      8  N   UNL     1       0.064  -1.238   4.648  0.00  0.00    -0.296 N 
ATOM      9  H   UNL     1      -0.872  -0.430   2.443  0.00  0.00    +0.159 HD
ATOM     10  H   UNL     1      -0.880  -1.020   4.702  0.00  0.00    +0.151 HD
BRANCH   8  11
ATOM     11  C   UNL     1       0.772  -1.723   5.835  0.00  0.00    +0.074 C 
ATOM     12  C   UNL     1       1.457  -0.548   6.536  0.00  0.00    +0.022 C 
ATOM     13  C   UNL     1       2.197  -1.055   7.775  0.00  0.00    +0.002 C 
ATOM     14  C   UNL     1       1.200  -1.709   8.733  0.00  0.00    +0.000 C 
ATOM     15  C   UNL     1       0.515  -2.884   8.032  0.00  0.00    +0.002 C 
ATOM     16  C   UNL     1      -0.225  -2.377   6.793  0.00  0.00    +0.022 C 
ENDBRANCH   8  11
ENDBRANCH   2   3
BRANCH   2  17
ATOM     17  S   UNL     1       0.851  -0.589  -1.490  0.00  0.00    -0.075 S 
BRANCH  17  18
ATOM     18  C   UNL     1      -0.189  -0.057  -2.809  0.00  0.00    +0.173 A 
ATOM     19  N   UNL     1      -1.280   0.606  -2.515  0.00  0.00    -0.223 NA
ATOM     20  C   UNL     1      -2.122   1.043  -3.474  0.00  0.00    +0.079 A 
ATOM     21  C   UNL     1      -3.286   1.751  -3.160  0.00  0.00    +0.028 A 
ATOM     22  C   UNL     1      -4.110   2.176  -4.163  0.00  0.00    +0.002 A 
ATOM     23  C   UNL     1      -3.810   1.915  -5.494  0.00  0.00    +0.001 A 
ATOM     24  C   UNL     1      -2.678   1.225  -5.833  0.00  0.00    +0.015 A 
ATOM     25  C   UNL     1      -1.819   0.780  -4.829  0.00  0.00    +0.065 A 
ATOM     26  C   UNL     1      -0.590   0.035  -5.133  0.00  0.00    +0.262 A 
ATOM     27  O   UNL     1      -0.275  -0.222  -6.281  0.00  0.00    -0.267 OA
ATOM     28  N   UNL     1       0.182  -0.350  -4.090  0.00  0.00    -0.290 N 
ATOM     29  C   UNL     1       1.422  -1.090  -4.337  0.00  0.00    +0.154 C 
ENDBRANCH  17  18
ENDBRANCH   2  17
TORSDOF 4
