REMARK  Name = ZINC18046396
REMARK  9 active torsions:
REMARK  status: ('A' for Active; 'I' for Inactive)
REMARK    1  A    between atoms: C_1  and  C_2
REMARK    2  A    between atoms: C_3  and  C_18
REMARK    3  A    between atoms: N_6  and  C_9
REMARK    4  A    between atoms: C_12  and  N_15
REMARK    5  A    between atoms: N_19  and  C_20
REMARK    6  A    between atoms: C_22  and  C_28
REMARK    7  A    between atoms: C_22  and  C_29
REMARK    8  A    between atoms: C_24  and  C_26
REMARK    9  A    between atoms: C_24  and  C_27
REMARK                            x       y       z     vdW  Elec       q    Type
REMARK                         _______ _______ _______ _____ _____    ______ ____
ROOT
ATOM      1  C   UNL     1      -0.122   1.553   0.518  0.00  0.00    +0.066 C 
ATOM      2  C   UNL     1      -0.087   0.051   0.404  0.00  0.00    +0.044 A 
ATOM      3  C   UNL     1      -1.187  -0.780   0.353  0.00  0.00    +0.079 A 
ATOM      4  C   UNL     1      -0.671  -2.154   0.243  0.00  0.00    +0.280 A 
ATOM      5  O   UNL     1      -1.329  -3.175   0.171  0.00  0.00    -0.265 OA
ATOM      6  N   UNL     1       0.675  -2.058   0.235  0.00  0.00    -0.219 N 
ATOM      7  N   UNL     1       1.026  -0.708   0.329  0.00  0.00    -0.294 N 
ATOM      8  H   UNL     1       1.934  -0.368   0.340  0.00  0.00    +0.187 HD
ENDROOT
BRANCH   6   9
ATOM      9  C   UNL     1       1.569  -3.130   0.143  0.00  0.00    +0.067 A 
ATOM     10  C   UNL     1       2.938  -2.897   0.152  0.00  0.00    +0.030 A 
ATOM     11  C   UNL     1       3.818  -3.957   0.061  0.00  0.00    +0.035 A 
ATOM     12  C   UNL     1       3.338  -5.250  -0.038  0.00  0.00    +0.126 A 
ATOM     13  C   UNL     1       1.975  -5.486  -0.047  0.00  0.00    +0.035 A 
ATOM     14  C   UNL     1       1.090  -4.430   0.049  0.00  0.00    +0.030 A 
BRANCH  12  15
ATOM     15  N   UNL     1       4.284  -6.385  -0.135  0.00  0.00    +0.056 N 
ATOM     16  O   UNL     1       5.475  -6.180  -0.128  0.00  0.00    -0.126 OA
ATOM     17  O   UNL     1       3.865  -7.515  -0.222  0.00  0.00    -0.126 OA
ENDBRANCH  12  15
ENDBRANCH   6   9
BRANCH   3  18
ATOM     18  C   UNL     1      -2.597  -0.374   0.401  0.00  0.00    +0.120 C 
ATOM     19  N   UNL     1      -3.533  -1.270   0.343  0.00  0.00    -0.288 NA
BRANCH  19  20
ATOM     20  C   UNL     1      -4.943  -0.863   0.390  0.00  0.00    +0.103 C 
ATOM     21  C   UNL     1      -5.624  -1.546   1.578  0.00  0.00    +0.014 C 
ATOM     22  C   UNL     1      -7.096  -1.142   1.634  0.00  0.00    -0.071 C 
ATOM     23  N   UNL     1      -7.783  -1.397   0.376  0.00  0.00    +0.386 N 
ATOM     24  C   UNL     1      -7.127  -0.971  -0.850  0.00  0.00    -0.071 C 
ATOM     25  C   UNL     1      -5.643  -1.319  -0.890  0.00  0.00    +0.014 C 
ATOM     26  C   UNL     1      -7.318   0.527  -1.104  0.00  0.00    -0.010 C 
ATOM     27  C   UNL     1      -7.805  -1.717  -2.023  0.00  0.00    -0.010 C 
ATOM     28  C   UNL     1      -7.229   0.314   2.077  0.00  0.00    -0.010 C 
ATOM     29  C   UNL     1      -7.770  -2.015   2.718  0.00  0.00    -0.010 C 
ATOM     30  H   UNL     1      -7.968  -2.401   0.309  0.00  0.00    -0.084 HD
ATOM     31  H   UNL     1      -8.705  -0.956   0.418  0.00  0.00    -0.084 HD
ENDBRANCH  19  20
ENDBRANCH   3  18
TORSDOF 4
