REMARK  Name = ZINC17852586
REMARK  7 active torsions:
REMARK  status: ('A' for Active; 'I' for Inactive)
REMARK    1  A    between atoms: C_1  and  C_2
REMARK    2  A    between atoms: C_2  and  C_4
REMARK    3  A    between atoms: C_2  and  N_14
REMARK    4  A    between atoms: C_7  and  S_10
REMARK    5  A    between atoms: S_10  and  N_13
REMARK    6  A    between atoms: C_15  and  C_17
REMARK    7  A    between atoms: N_20  and  C_22
REMARK                            x       y       z     vdW  Elec       q    Type
REMARK                         _______ _______ _______ _____ _____    ______ ____
ROOT
ATOM      1  N   UNL     1      -3.522   4.478   4.784  0.00  0.00    -0.303 N 
ATOM      2  C   UNL     1      -4.600   4.938   5.448  0.00  0.00    +0.266 C 
ATOM      3  O   UNL     1      -5.249   4.186   6.149  0.00  0.00    -0.268 OA
ATOM      4  H   UNL     1      -3.004   5.079   4.225  0.00  0.00    +0.150 HD
ENDROOT
BRANCH   2   5
ATOM      5  C   UNL     1      -4.995   6.357   5.325  0.00  0.00    +0.167 A 
ATOM      6  C   UNL     1      -6.094   6.968   5.954  0.00  0.00    +0.169 A 
ATOM      7  N   UNL     1      -6.085   8.227   5.585  0.00  0.00    -0.155 NA
ATOM      8  N   UNL     1      -4.993   8.399   4.725  0.00  0.00    -0.150 N 
ATOM      9  N   UNL     1      -4.380   7.274   4.601  0.00  0.00    -0.142 NA
BRANCH   8  10
ATOM     10  C   UNL     1      -4.627   9.600   4.101  0.00  0.00    +0.086 A 
ATOM     11  C   UNL     1      -3.515   9.642   3.271  0.00  0.00    +0.029 A 
ATOM     12  C   UNL     1      -3.160  10.825   2.654  0.00  0.00    +0.002 A 
ATOM     13  C   UNL     1      -3.906  11.970   2.870  0.00  0.00    +0.000 A 
ATOM     14  C   UNL     1      -5.011  11.932   3.700  0.00  0.00    +0.002 A 
ATOM     15  C   UNL     1      -5.373  10.751   4.316  0.00  0.00    +0.029 A 
ENDBRANCH   8  10
ENDBRANCH   2   5
BRANCH   1  17
ATOM     16  C   UNL     1      -2.259   2.891   6.150  0.00  0.00    +0.033 C 
ATOM     17  C   UNL     1      -3.131   3.072   4.906  0.00  0.00    +0.100 C 
BRANCH  17  18
ATOM     18  C   UNL     1      -2.353   2.659   3.683  0.00  0.00    -0.027 A 
ATOM     19  C   UNL     1      -2.559   1.412   3.122  0.00  0.00    +0.007 A 
ATOM     20  C   UNL     1      -1.846   1.033   2.000  0.00  0.00    +0.029 A 
ATOM     21  C   UNL     1      -0.927   1.900   1.439  0.00  0.00    +0.105 A 
ATOM     22  C   UNL     1      -0.717   3.145   2.004  0.00  0.00    +0.029 A 
ATOM     23  C   UNL     1      -1.435   3.526   3.122  0.00  0.00    +0.007 A 
BRANCH  21  24
ATOM     24  S   UNL     1      -0.017   1.417   0.010  0.00  0.00    +0.056 S 
ATOM     25  O   UNL     1       0.002  -0.004   0.002  0.00  0.00    -0.153 OA
ATOM     26  O   UNL     1       1.172   2.195   0.003  0.00  0.00    -0.153 OA
BRANCH  24  27
ATOM     27  N   UNL     1      -0.897   1.885  -1.312  0.00  0.00    -0.204 NA
ATOM     28  H   UNL     1      -1.201   1.223  -1.952  0.00  0.00    +0.144 HD
ATOM     29  H   UNL     1      -1.110   2.822  -1.446  0.00  0.00    +0.144 HD
ENDBRANCH  24  27
ENDBRANCH  21  24
ENDBRANCH  17  18
ENDBRANCH   1  17
TORSDOF 6
