REMARK  Name = ZINC52926975
REMARK  11 active torsions:
REMARK  status: ('A' for Active; 'I' for Inactive)
REMARK    1  A    between atoms: C_1  and  C_2
REMARK    2  A    between atoms: C_2  and  C_4
REMARK    3  A    between atoms: C_2  and  N_12
REMARK    4  A    between atoms: C_13  and  C_15
REMARK    5  A    between atoms: C_15  and  N_16
REMARK    6  A    between atoms: C_19  and  N_22
REMARK    7  A    between atoms: C_23  and  O_25
REMARK    8  A    between atoms: O_25  and  C_26
REMARK    9  A    between atoms: C_26  and  C_27
REMARK   10  A    between atoms: C_26  and  C_28
REMARK   11  A    between atoms: C_26  and  C_29
REMARK                            x       y       z     vdW  Elec       q    Type
REMARK                         _______ _______ _______ _____ _____    ______ ____
ROOT
ATOM      1  N   UNL     1      -0.284  -1.565   4.596  0.00  0.00    +0.385 N 
ATOM      2  C   UNL     1      -0.502  -0.189   5.058  0.00  0.00    -0.076 C 
ATOM      3  C   UNL     1      -1.516  -0.186   6.204  0.00  0.00    +0.004 C 
ATOM      4  C   UNL     1      -0.976  -1.034   7.358  0.00  0.00    +0.073 C 
ATOM      5  C   UNL     1      -0.682  -2.447   6.846  0.00  0.00    +0.004 C 
ATOM      6  C   UNL     1       0.301  -2.366   5.677  0.00  0.00    -0.076 C 
ATOM      7  H   UNL     1      -1.167  -1.968   4.319  0.00  0.00    -0.081 HD
ENDROOT
BRANCH   4   8
ATOM      8  N   UNL     1      -1.974  -1.098   8.428  0.00  0.00    -0.278 N 
ATOM      9  C   UNL     1      -1.587  -1.329   9.698  0.00  0.00    +0.401 C 
ATOM     10  O   UNL     1      -0.410  -1.484   9.956  0.00  0.00    -0.226 OA
ATOM     11  H   UNL     1      -2.914  -0.974   8.223  0.00  0.00    +0.152 HD
BRANCH   9  12
ATOM     12  O   UNL     1      -2.505  -1.388  10.682  0.00  0.00    -0.445 OA
BRANCH  12  13
ATOM     13  C   UNL     1      -2.024  -1.636  12.004  0.00  0.00    +0.107 C 
ATOM     14  C   UNL     1      -1.056  -0.524  12.412  0.00  0.00    +0.055 C 
ATOM     15  C   UNL     1      -3.203  -1.668  12.978  0.00  0.00    +0.055 C 
ATOM     16  C   UNL     1      -1.298  -2.983  12.038  0.00  0.00    +0.055 C 
ENDBRANCH  12  13
ENDBRANCH   9  12
ENDBRANCH   4   8
BRANCH   1  17
ATOM     17  C   UNL     1       0.630  -1.555   3.446  0.00  0.00    +0.019 C 
BRANCH  17  19
ATOM     18  N   UNL     1       0.635  -0.703   1.123  0.00  0.00    -0.306 N 
ATOM     19  C   UNL     1      -0.022  -0.836   2.292  0.00  0.00    +0.197 C 
ATOM     20  O   UNL     1      -1.138  -0.377   2.416  0.00  0.00    -0.278 OA
ATOM     21  H   UNL     1       1.528  -1.070   1.024  0.00  0.00    +0.149 HD
BRANCH  18  23
ATOM     22  C   UNL     1       0.240   1.501   0.139  0.00  0.00    +0.038 C 
ATOM     23  C   UNL     1       0.002  -0.004   0.002  0.00  0.00    +0.156 C 
BRANCH  23  24
ATOM     24  C   UNL     1       0.597  -0.491  -1.294  0.00  0.00    +0.236 C 
ATOM     25  O   UNL     1       1.726  -0.934  -1.315  0.00  0.00    -0.274 OA
ATOM     26  N   UNL     1      -0.125  -0.435  -2.430  0.00  0.00    -0.300 N 
ATOM     27  C   UNL     1      -1.449   0.204  -2.445  0.00  0.00    +0.108 C 
ATOM     28  C   UNL     1      -1.473   1.262  -3.553  0.00  0.00    +0.019 C 
ATOM     29  C   UNL     1      -1.073   0.614  -4.881  0.00  0.00    +0.003 C 
ATOM     30  C   UNL     1       0.350   0.061  -4.772  0.00  0.00    +0.019 C 
ATOM     31  C   UNL     1       0.398  -1.005  -3.679  0.00  0.00    +0.108 C 
ENDBRANCH  23  24
ENDBRANCH  18  23
ENDBRANCH  17  19
ENDBRANCH   1  17
TORSDOF 7
