REMARK  Name = ZINC45557093
REMARK  11 active torsions:
REMARK  status: ('A' for Active; 'I' for Inactive)
REMARK    1  A    between atoms: C_1  and  C_2
REMARK    2  A    between atoms: C_2  and  O_3
REMARK    3  A    between atoms: O_3  and  C_4
REMARK    4  A    between atoms: C_4  and  C_6
REMARK    5  A    between atoms: C_7  and  C_29
REMARK    6  A    between atoms: C_8  and  C_28
REMARK    7  A    between atoms: C_10  and  N_11
REMARK    8  A    between atoms: C_12  and  C_14
REMARK    9  A    between atoms: C_14  and  N_15
REMARK   10  A    between atoms: C_18  and  C_22
REMARK   11  A    between atoms: C_18  and  C_23
REMARK                            x       y       z     vdW  Elec       q    Type
REMARK                         _______ _______ _______ _____ _____    ______ ____
ROOT
ATOM      1  N   UNL     1      -3.041  -2.526   2.495  0.00  0.00    -0.278 N 
ATOM      2  C   UNL     1      -3.819  -2.871   3.540  0.00  0.00    +0.236 C 
ATOM      3  O   UNL     1      -4.920  -3.342   3.348  0.00  0.00    -0.274 OA
ATOM      4  H   UNL     1      -2.161  -2.150   2.649  0.00  0.00    +0.155 HD
ENDROOT
BRANCH   1   9
ATOM      5  C   UNL     1      -2.841  -2.416   0.016  0.00  0.00    +0.095 A 
ATOM      6  C   UNL     1      -3.552  -2.716  -1.214  0.00  0.00    +0.008 A 
ATOM      7  C   UNL     1      -4.792  -3.249  -1.056  0.00  0.00    -0.003 A 
ATOM      8  S   UNL     1      -4.977  -3.336   0.712  0.00  0.00    -0.077 S 
ATOM      9  C   UNL     1      -3.499  -2.710   1.200  0.00  0.00    +0.087 A 
ATOM     10  C   UNL     1      -5.773  -3.665  -2.120  0.00  0.00    +0.052 C 
BRANCH   6  11
ATOM     11  C   UNL     1      -2.966  -2.457  -2.551  0.00  0.00    -0.016 A 
ATOM     12  C   UNL     1      -2.693  -1.151  -2.955  0.00  0.00    +0.008 A 
ATOM     13  C   UNL     1      -2.147  -0.917  -4.200  0.00  0.00    +0.001 A 
ATOM     14  C   UNL     1      -1.871  -1.975  -5.047  0.00  0.00    +0.000 A 
ATOM     15  C   UNL     1      -2.140  -3.273  -4.652  0.00  0.00    +0.001 A 
ATOM     16  C   UNL     1      -2.680  -3.520  -3.407  0.00  0.00    +0.008 A 
ENDBRANCH   6  11
BRANCH   5  17
ATOM     17  C   UNL     1      -1.497  -1.838   0.006  0.00  0.00    +0.342 C 
ATOM     18  O   UNL     1      -0.522  -2.566  -0.007  0.00  0.00    -0.245 OA
BRANCH  17  19
ATOM     19  O   UNL     1      -1.339  -0.499   0.012  0.00  0.00    -0.461 OA
BRANCH  19  21
ATOM     20  C   UNL     1      -0.019   1.526   0.010  0.00  0.00    +0.048 C 
ATOM     21  C   UNL     1       0.002  -0.004   0.002  0.00  0.00    +0.229 C 
ENDBRANCH  19  21
ENDBRANCH  17  19
ENDBRANCH   5  17
ENDBRANCH   1   9
BRANCH   2  22
ATOM     22  C   UNL     1      -3.321  -2.671   4.948  0.00  0.00    +0.214 C 
BRANCH  22  23
ATOM     23  N   UNL     1      -4.343  -3.120   5.896  0.00  0.00    -0.215 N 
ATOM     24  C   UNL     1      -5.315  -2.329   6.392  0.00  0.00    +0.254 C 
ATOM     25  O   UNL     1      -5.501  -1.156   6.148  0.00  0.00    -0.272 OA
ATOM     26  C   UNL     1      -6.128  -3.210   7.319  0.00  0.00    +0.168 C 
ATOM     27  N   UNL     1      -5.457  -4.519   7.230  0.00  0.00    -0.279 N 
ATOM     28  C   UNL     1      -4.431  -4.367   6.372  0.00  0.00    +0.310 C 
ATOM     29  O   UNL     1      -3.668  -5.262   6.067  0.00  0.00    -0.252 OA
ATOM     30  C   UNL     1      -7.575  -3.313   6.833  0.00  0.00    +0.050 C 
ATOM     31  H   UNL     1      -5.708  -5.332   7.696  0.00  0.00    +0.152 HD
BRANCH  26  32
ATOM     32  C   UNL     1      -6.078  -2.684   8.731  0.00  0.00    +0.137 A 
ATOM     33  C   UNL     1      -6.157  -3.426   9.850  0.00  0.00    +0.047 A 
ATOM     34  C   UNL     1      -6.068  -2.532  10.941  0.00  0.00    +0.041 A 
ATOM     35  C   UNL     1      -5.939  -1.297  10.424  0.00  0.00    +0.195 A 
ATOM     36  O   UNL     1      -5.940  -1.396   9.085  0.00  0.00    -0.465 OA
ENDBRANCH  26  32
ENDBRANCH  22  23
ENDBRANCH   2  22
TORSDOF 8
