REMARK  Name = ZINC13361456
REMARK  11 active torsions:
REMARK  status: ('A' for Active; 'I' for Inactive)
REMARK    1  A    between atoms: C_1  and  C_2
REMARK    2  A    between atoms: C_2  and  C_4
REMARK    3  A    between atoms: C_2  and  O_28
REMARK    4  A    between atoms: N_6  and  N_7
REMARK    5  A    between atoms: C_8  and  C_9
REMARK    6  A    between atoms: C_8  and  C_10
REMARK    7  A    between atoms: C_13  and  S_16
REMARK    8  A    between atoms: S_16  and  N_19
REMARK    9  A    between atoms: N_19  and  C_20
REMARK   10  A    between atoms: C_23  and  C_26
REMARK   11  A    between atoms: O_28  and  C_29
REMARK                            x       y       z     vdW  Elec       q    Type
REMARK                         _______ _______ _______ _____ _____    ______ ____
ROOT
ATOM      1  C   UNL     1       2.881   1.743  -1.735  0.00  0.00    -0.002 A 
ATOM      2  C   UNL     1       1.659   2.120  -1.173  0.00  0.00    +0.011 A 
ATOM      3  C   UNL     1       0.564   1.290  -1.292  0.00  0.00    +0.029 A 
ATOM      4  C   UNL     1       0.674   0.087  -1.966  0.00  0.00    +0.109 A 
ATOM      5  C   UNL     1       1.881  -0.293  -2.526  0.00  0.00    +0.029 A 
ATOM      6  C   UNL     1       2.985   0.527  -2.414  0.00  0.00    +0.011 A 
ENDROOT
BRANCH   1   8
ATOM      7  N   UNL     1       5.191   2.272  -2.134  0.00  0.00    -0.184 NA
ATOM      8  C   UNL     1       4.057   2.625  -1.611  0.00  0.00    +0.063 C 
ATOM      9  C   UNL     1       3.941   3.937  -0.878  0.00  0.00    +0.068 C 
BRANCH   7  12
ATOM     10  C   UNL     1       7.485   2.743  -2.559  0.00  0.00    +0.273 C 
ATOM     11  O   UNL     1       7.579   1.687  -3.150  0.00  0.00    -0.270 OA
ATOM     12  N   UNL     1       6.308   3.110  -2.016  0.00  0.00    -0.204 N 
ATOM     13  H   UNL     1       6.233   3.954  -1.544  0.00  0.00    +0.177 HD
BRANCH  10  15
ATOM     14  C   UNL     1       8.383   4.994  -3.086  0.00  0.00    +0.062 C 
ATOM     15  C   UNL     1       8.687   3.644  -2.433  0.00  0.00    +0.257 C 
BRANCH  15  16
ATOM     16  O   UNL     1       9.806   3.041  -3.085  0.00  0.00    -0.480 OA
BRANCH  16  17
ATOM     17  C   UNL     1      11.042   3.415  -2.662  0.00  0.00    +0.122 A 
ATOM     18  C   UNL     1      12.170   2.786  -3.170  0.00  0.00    +0.048 A 
ATOM     19  C   UNL     1      13.426   3.172  -2.743  0.00  0.00    +0.042 A 
ATOM     20  C   UNL     1      13.559   4.178  -1.801  0.00  0.00    +0.124 A 
ATOM     21  C   UNL     1      12.435   4.802  -1.289  0.00  0.00    +0.042 A 
ATOM     22  C   UNL     1      11.177   4.422  -1.718  0.00  0.00    +0.048 A 
ATOM     23  F   UNL     1      14.788   4.551  -1.381  0.00  0.00    -0.205 F 
ENDBRANCH  16  17
ENDBRANCH  15  16
ENDBRANCH  10  15
ENDBRANCH   7  12
ENDBRANCH   1   8
BRANCH   4  24
ATOM     24  S   UNL     1      -0.730  -0.968  -2.113  0.00  0.00    +0.072 S 
ATOM     25  O   UNL     1      -0.234  -2.297  -2.188  0.00  0.00    -0.150 OA
ATOM     26  O   UNL     1      -1.654  -0.555  -1.116  0.00  0.00    -0.150 OA
BRANCH  24  27
ATOM     27  N   UNL     1      -1.436  -0.642  -3.576  0.00  0.00    -0.216 N 
ATOM     28  H   UNL     1      -1.494  -1.336  -4.251  0.00  0.00    +0.174 HD
BRANCH  27  29
ATOM     29  C   UNL     1      -1.945   0.625  -3.836  0.00  0.00    +0.048 A 
ATOM     30  C   UNL     1      -2.730   1.267  -2.882  0.00  0.00    +0.025 A 
ATOM     31  C   UNL     1      -3.230   2.518  -3.132  0.00  0.00    +0.017 A 
ATOM     32  C   UNL     1      -2.959   3.146  -4.353  0.00  0.00    +0.063 A 
ATOM     33  C   UNL     1      -2.174   2.496  -5.311  0.00  0.00    +0.017 A 
ATOM     34  C   UNL     1      -1.673   1.247  -5.051  0.00  0.00    +0.025 A 
BRANCH  32  35
ATOM     35  C   UNL     1      -3.499   4.489  -4.628  0.00  0.00    +0.387 C 
ATOM     36  O   UNL     1      -3.262   5.034  -5.688  0.00  0.00    -0.241 OA
ATOM     37  O   UNL     1      -4.255   5.114  -3.704  0.00  0.00    -0.241 OA
ENDBRANCH  32  35
ENDBRANCH  27  29
ENDBRANCH  24  27
ENDBRANCH   4  24
TORSDOF 9
