REMARK  Name = ZINC36275020
REMARK  3 active torsions:
REMARK  status: ('A' for Active; 'I' for Inactive)
REMARK    1  A    between atoms: C_3  and  C_7
REMARK    2  A    between atoms: N_23  and  C_26
REMARK    3  A    between atoms: C_29  and  O_32
REMARK                            x       y       z     vdW  Elec       q    Type
REMARK                         _______ _______ _______ _____ _____    ______ ____
ROOT
ATOM      1  C   UNL     1       3.682   2.030  -0.029  0.00  0.00    +0.164 A 
ATOM      2  N   UNL     1       4.799   1.310  -0.049  0.00  0.00    -0.212 NA
ATOM      3  C   UNL     1       5.995   1.871  -0.069  0.00  0.00    +0.134 A 
ATOM      4  C   UNL     1       6.098   3.291  -0.069  0.00  0.00    +0.051 A 
ATOM      5  C   UNL     1       7.303   4.121  -0.085  0.00  0.00    -0.025 A 
ATOM      6  C   UNL     1       7.126   5.458  -0.081  0.00  0.00    -0.004 A 
ATOM      7  S   UNL     1       5.369   5.692  -0.056  0.00  0.00    -0.073 S 
ATOM      8  C   UNL     1       4.873   3.990  -0.048  0.00  0.00    +0.114 A 
ATOM      9  N   UNL     1       3.717   3.357  -0.034  0.00  0.00    -0.220 NA
ATOM     10  C   UNL     1       8.189   6.515  -0.095  0.00  0.00    +0.043 C 
ATOM     11  C   UNL     1       9.530   5.857   0.263  0.00  0.00    +0.005 C 
ATOM     12  C   UNL     1       9.694   4.588  -0.578  0.00  0.00    +0.005 C 
ATOM     13  C   UNL     1       8.706   3.521  -0.105  0.00  0.00    +0.037 C 
ATOM     14  N   UNL     1       7.135   1.087  -0.090  0.00  0.00    -0.312 N 
ATOM     15  C   UNL     1       7.836   0.753   1.158  0.00  0.00    +0.125 C 
ATOM     16  C   UNL     1       7.957  -0.773   1.258  0.00  0.00    +0.124 C 
ATOM     17  N   UNL     1       8.489  -1.286  -0.013  0.00  0.00    -0.327 N 
ATOM     18  C   UNL     1       7.788  -0.951  -1.261  0.00  0.00    +0.124 C 
ATOM     19  C   UNL     1       7.664   0.570  -1.360  0.00  0.00    +0.125 C 
ENDROOT
BRANCH   1  22
ATOM     20  C   UNL     1      -0.017   1.377   0.029  0.00  0.00    +0.020 A 
ATOM     21  C   UNL     1       1.181   2.071   0.009  0.00  0.00    +0.014 A 
ATOM     22  C   UNL     1       2.371   1.338  -0.007  0.00  0.00    +0.037 A 
ATOM     23  C   UNL     1       2.305  -0.054  -0.002  0.00  0.00    +0.122 A 
ATOM     24  N   UNL     1       1.141  -0.670   0.017  0.00  0.00    -0.263 NA
ATOM     25  C   UNL     1       0.002  -0.005   0.033  0.00  0.00    +0.111 A 
ENDBRANCH   1  22
BRANCH  17  26
ATOM     26  C   UNL     1       9.642  -2.079  -0.034  0.00  0.00    +0.030 A 
ATOM     27  C   UNL     1      10.207  -2.451  -1.246  0.00  0.00    +0.027 A 
ATOM     28  C   UNL     1      11.345  -3.233  -1.266  0.00  0.00    +0.047 A 
ATOM     29  C   UNL     1      11.923  -3.647  -0.075  0.00  0.00    +0.117 A 
ATOM     30  C   UNL     1      11.360  -3.276   1.136  0.00  0.00    +0.047 A 
ATOM     31  C   UNL     1      10.225  -2.489   1.158  0.00  0.00    +0.027 A 
BRANCH  29  32
ATOM     32  O   UNL     1      13.044  -4.417  -0.096  0.00  0.00    -0.507 OA
ATOM     33  H   UNL     1      13.869  -3.911  -0.092  0.00  0.00    +0.292 HD
ENDBRANCH  29  32
ENDBRANCH  17  26
TORSDOF 3
