REMARK  Name = ZINC19660325
REMARK  8 active torsions:
REMARK  status: ('A' for Active; 'I' for Inactive)
REMARK    1  A    between atoms: C_1  and  N_2
REMARK    2  A    between atoms: N_2  and  C_3
REMARK    3  A    between atoms: N_2  and  C_4
REMARK    4  A    between atoms: C_4  and  C_5
REMARK    5  A    between atoms: C_5  and  C_6
REMARK    6  A    between atoms: C_12  and  C_14
REMARK    7  A    between atoms: C_14  and  C_15
REMARK    8  A    between atoms: N_19  and  C_23
REMARK                            x       y       z     vdW  Elec       q    Type
REMARK                         _______ _______ _______ _____ _____    ______ ____
ROOT
ATOM      1  C   UNL     1      -0.769   1.630   1.234  0.00  0.00    +0.127 C 
ENDROOT
BRANCH   1   8
ATOM      2  C   UNL     1      -2.381   1.176   5.958  0.00  0.00    -0.010 C 
ATOM      3  C   UNL     1      -1.287   0.133   5.722  0.00  0.00    +0.022 C 
ATOM      4  C   UNL     1      -0.146   0.768   4.921  0.00  0.00    +0.108 C 
ATOM      5  N   UNL     1      -0.699   1.351   3.691  0.00  0.00    -0.301 N 
ATOM      6  C   UNL     1      -1.813   2.303   3.799  0.00  0.00    +0.108 C 
ATOM      7  C   UNL     1      -2.939   1.646   4.612  0.00  0.00    +0.022 C 
ATOM      8  C   UNL     1      -0.191   1.024   2.486  0.00  0.00    +0.218 C 
ATOM      9  O   UNL     1       0.733   0.241   2.411  0.00  0.00    -0.276 OA
BRANCH   2  10
ATOM     10  C   UNL     1      -3.507   0.555   6.787  0.00  0.00    -0.015 C 
BRANCH  10  11
ATOM     11  C   UNL     1      -4.541   1.630   7.129  0.00  0.00    -0.079 C 
BRANCH  11  13
ATOM     12  C   UNL     1      -5.128   0.594   9.238  0.00  0.00    -0.097 C 
ATOM     13  N   UNL     1      -5.622   1.033   7.926  0.00  0.00    +0.376 N 
ATOM     14  C   UNL     1      -6.745   1.968   8.072  0.00  0.00    -0.097 C 
ATOM     15  H   UNL     1      -5.989   0.147   7.388  0.00  0.00    -0.083 HD
ENDBRANCH  11  13
ENDBRANCH  10  11
ENDBRANCH   2  10
ENDBRANCH   1   8
BRANCH   1  16
ATOM     16  C   UNL     1      -0.016   1.096   0.014  0.00  0.00    +0.170 C 
ATOM     17  C   UNL     1      -0.620   1.636  -1.268  0.00  0.00    +0.248 C 
ATOM     18  O   UNL     1      -1.750   1.466  -1.673  0.00  0.00    -0.273 OA
ATOM     19  N   UNL     1       0.361   2.343  -1.863  0.00  0.00    -0.193 N 
ATOM     20  C   UNL     1       1.489   2.325  -1.142  0.00  0.00    +0.314 C 
ATOM     21  O   UNL     1       2.511   2.892  -1.474  0.00  0.00    -0.252 OA
ATOM     22  N   UNL     1       1.364   1.610  -0.010  0.00  0.00    -0.287 N 
ATOM     23  H   UNL     1       2.054   1.372   0.814  0.00  0.00    +0.151 HD
BRANCH  19  24
ATOM     24  C   UNL     1       0.218   3.014  -3.085  0.00  0.00    +0.045 A 
ATOM     25  C   UNL     1      -0.947   2.868  -3.826  0.00  0.00    +0.024 A 
ATOM     26  C   UNL     1      -1.087   3.534  -5.028  0.00  0.00    +0.002 A 
ATOM     27  C   UNL     1      -0.064   4.336  -5.499  0.00  0.00    +0.000 A 
ATOM     28  C   UNL     1       1.099   4.480  -4.765  0.00  0.00    +0.002 A 
ATOM     29  C   UNL     1       1.243   3.820  -3.560  0.00  0.00    +0.024 A 
ENDBRANCH  19  24
ENDBRANCH   1  16
TORSDOF 6
