REMARK  Name = ZINC30656270
REMARK  4 active torsions:
REMARK  status: ('A' for Active; 'I' for Inactive)
REMARK    1  A    between atoms: C_1  and  C_2
REMARK    2  A    between atoms: C_3  and  C_12
REMARK    3  A    between atoms: C_5  and  C_7
REMARK    4  A    between atoms: C_12  and  N_14
REMARK                            x       y       z     vdW  Elec       q    Type
REMARK                         _______ _______ _______ _____ _____    ______ ____
ROOT
ATOM      1  C   UNL     1       1.195  -2.120  -0.021  0.00  0.00    +0.289 C 
ATOM      2  O   UNL     1       2.263  -2.703  -0.035  0.00  0.00    -0.266 OA
ENDROOT
BRANCH   1   3
ATOM      3  N   UNL     1       0.044  -2.821  -0.014  0.00  0.00    -0.151 NA
ATOM      4  C   UNL     1       0.077  -4.210  -0.022  0.00  0.00    +0.164 A 
ATOM      5  N   UNL     1       1.121  -5.013  -0.043  0.00  0.00    -0.339 N 
ATOM      6  C   UNL     1       0.996  -6.338  -0.043  0.00  0.00    +0.028 A 
ATOM      7  C   UNL     1      -0.276  -6.816  -0.034  0.00  0.00    +0.012 A 
ATOM      8  S   UNL     1      -1.248  -5.334  -0.016  0.00  0.00    -0.057 S 
ATOM      9  C   UNL     1      -0.718  -8.240  -0.038  0.00  0.00    +0.044 C 
ATOM     10  C   UNL     1       0.485  -9.116  -0.423  0.00  0.00    +0.006 C 
ATOM     11  C   UNL     1       1.698  -8.677   0.403  0.00  0.00    +0.006 C 
ATOM     12  C   UNL     1       2.178  -7.300  -0.059  0.00  0.00    +0.054 C 
ATOM     13  H   UNL     1       2.138  -4.594  -0.061  0.00  0.00    +0.167 HD
ENDBRANCH   1   3
BRANCH   1  16
ATOM     14  C   UNL     1       3.752  -0.415  -0.036  0.00  0.00    +0.054 C 
ATOM     15  C   UNL     1       2.327   0.076  -0.020  0.00  0.00    +0.019 A 
ATOM     16  C   UNL     1       1.160  -0.648  -0.013  0.00  0.00    +0.138 A 
ATOM     17  N   UNL     1       0.002  -0.004   0.002  0.00  0.00    -0.231 NA
ATOM     18  C   UNL     1      -0.016   1.319   0.009  0.00  0.00    +0.144 A 
ATOM     19  S   UNL     1       1.728   1.705  -0.005  0.00  0.00    -0.069 S 
BRANCH  18  20
ATOM     20  C   UNL     1      -1.169   2.232   0.020  0.00  0.00    +0.160 A 
ATOM     21  C   UNL     1      -2.481   1.864   0.020  0.00  0.00    +0.052 A 
ATOM     22  C   UNL     1      -3.236   3.052   0.034  0.00  0.00    +0.042 A 
ATOM     23  C   UNL     1      -2.359   4.077   0.035  0.00  0.00    +0.196 A 
ATOM     24  O   UNL     1      -1.113   3.579   0.026  0.00  0.00    -0.461 OA
ENDBRANCH  18  20
ENDBRANCH   1  16
TORSDOF 3
