REMARK  Name = ZINC03663948
REMARK  11 active torsions:
REMARK  status: ('A' for Active; 'I' for Inactive)
REMARK    1  A    between atoms: C_1  and  C_2
REMARK    2  A    between atoms: C_2  and  O_3
REMARK    3  A    between atoms: O_3  and  C_4
REMARK    4  A    between atoms: C_4  and  C_6
REMARK    5  A    between atoms: C_7  and  N_36
REMARK    6  A    between atoms: N_8  and  C_26
REMARK    7  A    between atoms: C_11  and  C_13
REMARK    8  A    between atoms: C_16  and  S_19
REMARK    9  A    between atoms: S_19  and  C_20
REMARK   10  A    between atoms: C_29  and  S_32
REMARK   11  A    between atoms: S_32  and  N_35
REMARK                            x       y       z     vdW  Elec       q    Type
REMARK                         _______ _______ _______ _____ _____    ______ ____
ROOT
ATOM      1  C   UNL     1      -1.441   1.496   3.623  0.00  0.00    +0.084 C 
ATOM      2  C   UNL     1      -0.771   0.942   4.670  0.00  0.00    +0.103 C 
ATOM      3  N   UNL     1      -0.751   1.579   5.888  0.00  0.00    -0.261 N 
ATOM      4  C   UNL     1      -1.035   2.917   5.980  0.00  0.00    +0.024 C 
ATOM      5  C   UNL     1      -1.711   3.546   4.995  0.00  0.00    +0.025 C 
ATOM      6  C   UNL     1      -2.171   2.798   3.771  0.00  0.00    +0.094 C 
ATOM      7  C   UNL     1      -2.006   4.918   5.080  0.00  0.00    +0.162 C 
ATOM      8  O   UNL     1      -2.599   5.458   4.168  0.00  0.00    -0.292 OA
ATOM      9  C   UNL     1      -1.600   5.730   6.280  0.00  0.00    +0.080 C 
ATOM     10  C   UNL     1      -1.539   4.811   7.505  0.00  0.00    +0.014 C 
ATOM     11  C   UNL     1      -0.570   3.666   7.205  0.00  0.00    +0.052 C 
ENDROOT
BRANCH   6  12
ATOM     12  C   UNL     1      -3.648   2.527   3.890  0.00  0.00    -0.035 A 
ATOM     13  C   UNL     1      -4.125   1.745   4.926  0.00  0.00    +0.005 A 
ATOM     14  C   UNL     1      -5.479   1.498   5.041  0.00  0.00    +0.015 A 
ATOM     15  C   UNL     1      -6.361   2.028   4.107  0.00  0.00    +0.008 A 
ATOM     16  C   UNL     1      -5.878   2.809   3.064  0.00  0.00    +0.015 A 
ATOM     17  C   UNL     1      -4.524   3.056   2.959  0.00  0.00    +0.005 A 
BRANCH  15  18
ATOM     18  S   UNL     1      -8.089   1.709   4.245  0.00  0.00    -0.129 S 
ATOM     19  C   UNL     1      -8.226   0.671   5.726  0.00  0.00    +0.090 C 
ENDBRANCH  15  18
ENDBRANCH   6  12
BRANCH   3  20
ATOM     20  C   UNL     1      -0.438   0.855   7.045  0.00  0.00    +0.040 A 
ATOM     21  C   UNL     1      -1.445   0.234   7.772  0.00  0.00    +0.026 A 
ATOM     22  C   UNL     1      -1.132  -0.484   8.909  0.00  0.00    +0.030 A 
ATOM     23  C   UNL     1       0.182  -0.576   9.331  0.00  0.00    +0.105 A 
ATOM     24  C   UNL     1       1.187   0.045   8.612  0.00  0.00    +0.030 A 
ATOM     25  C   UNL     1       0.881   0.760   7.471  0.00  0.00    +0.026 A 
BRANCH  23  26
ATOM     26  S   UNL     1       0.576  -1.486  10.787  0.00  0.00    +0.056 S 
ATOM     27  O   UNL     1      -0.472  -2.427  10.974  0.00  0.00    -0.153 OA
ATOM     28  O   UNL     1       1.937  -1.876  10.666  0.00  0.00    -0.153 OA
BRANCH  26  29
ATOM     29  N   UNL     1       0.498  -0.431  12.060  0.00  0.00    -0.204 NA
ATOM     30  H   UNL     1       0.250  -0.751  12.942  0.00  0.00    +0.144 HD
ATOM     31  H   UNL     1       0.700   0.508  11.925  0.00  0.00    +0.144 HD
ENDBRANCH  26  29
ENDBRANCH  23  26
ENDBRANCH   3  20
BRANCH   2  32
ATOM     32  N   UNL     1      -0.115  -0.251   4.510  0.00  0.00    -0.346 N 
ATOM     33  H   UNL     1       0.383  -0.425   3.696  0.00  0.00    +0.143 HD
ATOM     34  H   UNL     1      -0.148  -0.920   5.211  0.00  0.00    +0.143 HD
ENDBRANCH   2  32
BRANCH   1  35
ATOM     35  C   UNL     1      -1.446   0.840   2.383  0.00  0.00    +0.339 C 
ATOM     36  O   UNL     1      -0.933  -0.260   2.274  0.00  0.00    -0.245 OA
BRANCH  35  37
ATOM     37  O   UNL     1      -2.018   1.428   1.310  0.00  0.00    -0.462 OA
BRANCH  37  39
ATOM     38  C   UNL     1      -2.676   1.523  -1.014  0.00  0.00    +0.048 C 
ATOM     39  C   UNL     1      -1.986   0.704   0.079  0.00  0.00    +0.229 C 
ENDBRANCH  37  39
ENDBRANCH  35  37
ENDBRANCH   1  35
TORSDOF 9
