REMARK  Name = ZINC09233430
REMARK  7 active torsions:
REMARK  status: ('A' for Active; 'I' for Inactive)
REMARK    1  A    between atoms: C_4  and  C_7
REMARK    2  A    between atoms: C_7  and  C_8
REMARK    3  A    between atoms: C_13  and  C_14
REMARK    4  A    between atoms: C_13  and  N_60
REMARK    5  A    between atoms: C_15  and  C_25
REMARK    6  A    between atoms: N_27  and  N_28
REMARK    7  A    between atoms: C_29  and  C_30
REMARK                            x       y       z     vdW  Elec       q    Type
REMARK                         _______ _______ _______ _____ _____    ______ ____
ROOT
ATOM      1  C   UNL     1      -0.497   5.389   0.046  0.00  0.00    +0.063 A 
ATOM      2  C   UNL     1       0.764   5.914   0.053  0.00  0.00    +0.170 A 
ATOM      3  N   UNL     1       1.647   4.901   0.040  0.00  0.00    -0.124 NA
ATOM      4  N   UNL     1       1.016   3.778   0.031  0.00  0.00    -0.058 NA
ATOM      5  N   UNL     1      -0.360   4.045   0.038  0.00  0.00    -0.194 N 
ATOM      6  C   UNL     1      -1.393   3.100   0.031  0.00  0.00    +0.240 A 
ATOM      7  C   UNL     1      -1.224   1.645   0.017  0.00  0.00    +0.206 A 
ATOM      8  N   UNL     1      -2.408   1.094   0.020  0.00  0.00    -0.032 NA
ATOM      9  O   UNL     1      -3.369   2.134   0.030  0.00  0.00    -0.239 OA
ATOM     10  N   UNL     1      -2.669   3.366   0.034  0.00  0.00    -0.027 NA
ATOM     11  N   UNL     1      -0.011   0.966   0.007  0.00  0.00    -0.337 N 
ATOM     12  H   UNL     1       0.002  -0.004   0.002  0.00  0.00    +0.144 HD
ATOM     13  H   UNL     1       0.822   1.462   0.002  0.00  0.00    +0.144 HD
ENDROOT
BRANCH   2  14
ATOM     14  C   UNL     1       1.100   7.350   0.067  0.00  0.00    +0.285 C 
ATOM     15  O   UNL     1       0.213   8.182   0.077  0.00  0.00    -0.267 OA
ATOM     16  N   UNL     1       2.390   7.741   0.067  0.00  0.00    -0.202 N 
ATOM     17  H   UNL     1       3.097   7.077   0.059  0.00  0.00    +0.178 HD
BRANCH  16  18
ATOM     18  N   UNL     1       2.709   9.105   0.080  0.00  0.00    -0.187 NA
ATOM     19  C   UNL     1       3.954   9.481   0.081  0.00  0.00    +0.145 C 
BRANCH  19  20
ATOM     20  C   UNL     1       4.288  10.909   0.094  0.00  0.00    +0.032 A 
ATOM     21  C   UNL     1       5.533  11.514   0.097  0.00  0.00    +0.017 A 
ATOM     22  C   UNL     1       5.592  12.888   0.110  0.00  0.00    +0.008 A 
ATOM     23  C   UNL     1       4.437  13.603   0.120  0.00  0.00    +0.046 A 
ATOM     24  S   UNL     1       3.195  12.321   0.103  0.00  0.00    -0.096 S 
ENDBRANCH  19  20
ENDBRANCH  16  18
ENDBRANCH   2  14
BRANCH   1  25
ATOM     25  C   UNL     1      -1.792   6.161   0.050  0.00  0.00    -0.020 C 
BRANCH  25  31
ATOM     26  C   UNL     1      -2.700   7.949   3.825  0.00  0.00    -0.010 C 
ATOM     27  C   UNL     1      -3.841   7.465   2.927  0.00  0.00    -0.015 C 
ATOM     28  C   UNL     1      -3.336   7.349   1.487  0.00  0.00    -0.078 C 
ATOM     29  C   UNL     1      -1.087   6.871   2.254  0.00  0.00    -0.078 C 
ATOM     30  C   UNL     1      -1.526   6.973   3.717  0.00  0.00    -0.015 C 
ATOM     31  N   UNL     1      -2.223   6.377   1.446  0.00  0.00    +0.383 N 
ATOM     32  H   UNL     1      -2.546   5.484   1.837  0.00  0.00    -0.081 HD
BRANCH  26  33
ATOM     33  C   UNL     1      -3.183   8.011   5.276  0.00  0.00    +0.038 C 
BRANCH  33  37
ATOM     34  C   UNL     1      -0.115   9.689   7.729  0.00  0.00    +0.000 A 
ATOM     35  C   UNL     1      -1.054  10.513   7.137  0.00  0.00    +0.000 A 
ATOM     36  C   UNL     1      -2.047   9.970   6.344  0.00  0.00    +0.003 A 
ATOM     37  C   UNL     1      -2.100   8.603   6.141  0.00  0.00    -0.047 A 
ATOM     38  C   UNL     1      -1.163   7.779   6.737  0.00  0.00    +0.003 A 
ATOM     39  C   UNL     1      -0.168   8.323   7.527  0.00  0.00    +0.000 A 
ENDBRANCH  33  37
ENDBRANCH  26  33
ENDBRANCH  25  31
ENDBRANCH   1  25
TORSDOF 7
