REMARK  Name = ZINC66307902
REMARK  7 active torsions:
REMARK  status: ('A' for Active; 'I' for Inactive)
REMARK    1  A    between atoms: C_1  and  C_2
REMARK    2  A    between atoms: C_2  and  C_3
REMARK    3  A    between atoms: C_2  and  O_4
REMARK    4  A    between atoms: O_4  and  C_5
REMARK    5  A    between atoms: C_10  and  N_11
REMARK    6  A    between atoms: C_12  and  C_14
REMARK    7  A    between atoms: C_16  and  N_24
REMARK                            x       y       z     vdW  Elec       q    Type
REMARK                         _______ _______ _______ _____ _____    ______ ____
ROOT
ATOM      1  N   UNL     1       1.981  -1.191   3.403  0.00  0.00    -0.278 N 
ATOM      2  C   UNL     1       2.573  -1.633   4.530  0.00  0.00    +0.252 C 
ATOM      3  O   UNL     1       1.926  -1.742   5.554  0.00  0.00    -0.270 OA
ATOM      4  H   UNL     1       2.509  -1.048   2.602  0.00  0.00    +0.155 HD
ENDROOT
BRANCH   2   5
ATOM      5  C   UNL     1       4.005  -1.986   4.521  0.00  0.00    +0.084 A 
ATOM      6  C   UNL     1       4.752  -1.857   3.347  0.00  0.00    +0.049 A 
ATOM      7  C   UNL     1       6.090  -2.188   3.344  0.00  0.00    +0.131 A 
ATOM      8  C   UNL     1       6.699  -2.649   4.498  0.00  0.00    +0.082 A 
ATOM      9  C   UNL     1       5.972  -2.783   5.670  0.00  0.00    +0.165 A 
ATOM     10  C   UNL     1       4.624  -2.446   5.691  0.00  0.00    +0.174 A 
ATOM     11  O   UNL     1       3.895  -2.558   6.832  0.00  0.00    -0.484 OA
ATOM     12  C   UNL     1       4.450  -3.369   7.874  0.00  0.00    +0.270 C 
ATOM     13  C   UNL     1       5.928  -2.992   8.039  0.00  0.00    +0.270 C 
ATOM     14  O   UNL     1       6.592  -3.242   6.792  0.00  0.00    -0.485 OA
BRANCH   7  15
ATOM     15  N   UNL     1       6.879  -2.049   2.099  0.00  0.00    +0.057 N 
ATOM     16  O   UNL     1       6.350  -1.647   1.089  0.00  0.00    -0.126 OA
ATOM     17  O   UNL     1       8.053  -2.338   2.092  0.00  0.00    -0.126 OA
ENDBRANCH   7  15
ENDBRANCH   2   5
BRANCH   1  23
ATOM     18  C   UNL     1      -0.139  -1.176   2.234  0.00  0.00    +0.142 A 
ATOM     19  C   UNL     1      -1.502  -0.930   2.227  0.00  0.00    +0.047 A 
ATOM     20  C   UNL     1      -2.122  -0.443   3.363  0.00  0.00    +0.004 A 
ATOM     21  C   UNL     1      -1.386  -0.201   4.508  0.00  0.00    +0.002 A 
ATOM     22  C   UNL     1      -0.025  -0.444   4.523  0.00  0.00    +0.027 A 
ATOM     23  C   UNL     1       0.603  -0.938   3.389  0.00  0.00    +0.076 A 
BRANCH  18  24
ATOM     24  O   UNL     1       0.473  -1.654   1.117  0.00  0.00    -0.488 OA
BRANCH  24  26
ATOM     25  C   UNL     1      -0.402  -0.447  -0.785  0.00  0.00    +0.051 C 
ATOM     26  C   UNL     1      -0.332  -1.790  -0.056  0.00  0.00    +0.167 C 
ATOM     27  C   UNL     1       0.287  -2.841  -0.980  0.00  0.00    +0.051 C 
ENDBRANCH  24  26
ENDBRANCH  18  24
ENDBRANCH   1  23
TORSDOF 5
