REMARK  Name = ZINC09670732
REMARK  9 active torsions:
REMARK  status: ('A' for Active; 'I' for Inactive)
REMARK    1  A    between atoms: C_1  and  C_2
REMARK    2  A    between atoms: C_2  and  C_3
REMARK    3  A    between atoms: C_3  and  C_4
REMARK    4  A    between atoms: C_4  and  C_6
REMARK    5  A    between atoms: C_4  and  N_12
REMARK    6  A    between atoms: C_13  and  C_15
REMARK    7  A    between atoms: C_15  and  N_64
REMARK    8  A    between atoms: N_18  and  S_21
REMARK    9  A    between atoms: S_21  and  C_24
REMARK                            x       y       z     vdW  Elec       q    Type
REMARK                         _______ _______ _______ _____ _____    ______ ____
ROOT
ATOM      1  C   UNL     1       4.192   0.222  -3.579  0.00  0.00    -0.061 C 
ATOM      2  C   UNL     1       4.911  -0.104  -2.266  0.00  0.00    +0.091 C 
ATOM      3  N   UNL     1       4.254  -1.267  -1.650  0.00  0.00    -0.180 NA
ATOM      4  C   UNL     1       4.050  -2.469  -2.473  0.00  0.00    +0.091 C 
ATOM      5  C   UNL     1       3.360  -2.047  -3.780  0.00  0.00    -0.061 C 
ATOM      6  N   UNL     1       4.171  -0.991  -4.424  0.00  0.00    +0.387 N 
ATOM      7  H   UNL     1       5.132  -1.334  -4.538  0.00  0.00    -0.081 HD
ENDROOT
BRANCH   3   8
ATOM      8  S   UNL     1       3.762  -1.226  -0.069  0.00  0.00    +0.061 S 
ATOM      9  O   UNL     1       4.559  -0.245   0.579  0.00  0.00    -0.153 OA
ATOM     10  O   UNL     1       3.704  -2.575   0.373  0.00  0.00    -0.153 OA
BRANCH   8  11
ATOM     11  C   UNL     1       2.107  -0.621  -0.054  0.00  0.00    +0.109 A 
ATOM     12  C   UNL     1       1.048  -1.505  -0.147  0.00  0.00    +0.032 A 
ATOM     13  C   UNL     1      -0.251  -1.034  -0.137  0.00  0.00    +0.051 A 
ATOM     14  C   UNL     1      -0.496   0.328  -0.033  0.00  0.00    +0.162 A 
ATOM     15  C   UNL     1       0.569   1.216   0.064  0.00  0.00    +0.164 A 
ATOM     16  C   UNL     1       1.870   0.737   0.051  0.00  0.00    +0.078 A 
ATOM     17  O   UNL     1       0.351   2.555   0.175  0.00  0.00    -0.485 OA
ATOM     18  C   UNL     1      -0.950   3.028  -0.192  0.00  0.00    +0.270 C 
ATOM     19  C   UNL     1      -1.996   2.108   0.452  0.00  0.00    +0.270 C 
ATOM     20  O   UNL     1      -1.780   0.778  -0.033  0.00  0.00    -0.485 OA
ENDBRANCH   8  11
ENDBRANCH   3   8
BRANCH   6  21
ATOM     21  C   UNL     1       3.615  -0.670  -5.755  0.00  0.00    +0.019 C 
BRANCH  21  23
ATOM     22  N   UNL     1       1.454   0.010  -6.748  0.00  0.00    -0.310 N 
ATOM     23  C   UNL     1       2.181  -0.223  -5.637  0.00  0.00    +0.197 C 
ATOM     24  O   UNL     1       1.681  -0.072  -4.542  0.00  0.00    -0.278 OA
ATOM     25  H   UNL     1       1.854  -0.111  -7.623  0.00  0.00    +0.149 HD
BRANCH  22  26
ATOM     26  C   UNL     1       0.060   0.445  -6.633  0.00  0.00    +0.103 C 
BRANCH  26  27
ATOM     27  C   UNL     1      -0.334   1.202  -7.875  0.00  0.00    -0.027 A 
ATOM     28  C   UNL     1       0.100   0.771  -9.114  0.00  0.00    +0.005 A 
ATOM     29  C   UNL     1      -0.265   1.464 -10.254  0.00  0.00    +0.000 A 
ATOM     30  C   UNL     1      -1.055   2.593 -10.152  0.00  0.00    +0.000 A 
ATOM     31  C   UNL     1      -1.485   3.028  -8.912  0.00  0.00    +0.000 A 
ATOM     32  C   UNL     1      -1.123   2.332  -7.773  0.00  0.00    +0.005 A 
ENDBRANCH  26  27
BRANCH  26  33
ATOM     33  C   UNL     1      -0.845  -0.779  -6.474  0.00  0.00    +0.027 C 
BRANCH  33  35
ATOM     34  C   UNL     1      -1.433  -2.703  -4.992  0.00  0.00    +0.004 C 
ATOM     35  C   UNL     1      -0.528  -1.479  -5.151  0.00  0.00    -0.001 C 
ENDBRANCH  33  35
ENDBRANCH  26  33
ENDBRANCH  22  26
ENDBRANCH  21  23
ENDBRANCH   6  21
TORSDOF 8
