REMARK  Name = ZINC18963746
REMARK  9 active torsions:
REMARK  status: ('A' for Active; 'I' for Inactive)
REMARK    1  A    between atoms: C_1  and  C_2
REMARK    2  A    between atoms: C_2  and  O_3
REMARK    3  A    between atoms: O_3  and  C_4
REMARK    4  A    between atoms: C_4  and  C_6
REMARK    5  A    between atoms: C_7  and  C_19
REMARK    6  A    between atoms: C_12  and  C_14
REMARK    7  A    between atoms: C_19  and  O_20
REMARK    8  A    between atoms: O_20  and  C_21
REMARK    9  A    between atoms: C_24  and  C_28
REMARK                            x       y       z     vdW  Elec       q    Type
REMARK                         _______ _______ _______ _____ _____    ______ ____
ROOT
ATOM      1  C   UNL     1       4.184  -1.490   1.063  0.00  0.00    +0.084 C 
ATOM      2  C   UNL     1       3.712  -0.852  -0.030  0.00  0.00    +0.061 C 
ATOM      3  N   UNL     1       4.476  -0.719  -1.154  0.00  0.00    -0.269 N 
ATOM      4  C   UNL     1       5.721  -1.199  -1.266  0.00  0.00    +0.305 C 
ATOM      5  O   UNL     1       6.324  -1.031  -2.308  0.00  0.00    -0.252 OA
ATOM      6  N   UNL     1       6.327  -1.864  -0.263  0.00  0.00    -0.285 N 
ATOM      7  C   UNL     1       5.585  -2.062   0.995  0.00  0.00    +0.179 C 
ATOM      8  H   UNL     1       4.096  -0.249  -1.913  0.00  0.00    +0.156 HD
ATOM      9  H   UNL     1       7.229  -2.203  -0.366  0.00  0.00    +0.151 HD
ENDROOT
BRANCH   7  10
ATOM     10  C   UNL     1       5.501  -3.543   1.256  0.00  0.00    +0.130 A 
ATOM     11  C   UNL     1       5.631  -4.140   2.454  0.00  0.00    +0.047 A 
ATOM     12  C   UNL     1       5.483  -5.529   2.239  0.00  0.00    +0.041 A 
ATOM     13  C   UNL     1       5.270  -5.699   0.922  0.00  0.00    +0.195 A 
ATOM     14  O   UNL     1       5.277  -4.492   0.332  0.00  0.00    -0.466 OA
ENDBRANCH   7  10
BRANCH   1  15
ATOM     15  C   UNL     1       3.396  -1.623   2.229  0.00  0.00    +0.339 C 
ATOM     16  O   UNL     1       2.235  -1.257   2.225  0.00  0.00    -0.245 OA
BRANCH  15  17
ATOM     17  O   UNL     1       3.930  -2.157   3.347  0.00  0.00    -0.462 OA
BRANCH  17  19
ATOM     18  C   UNL     1       3.852  -2.886   5.650  0.00  0.00    +0.048 C 
ATOM     19  C   UNL     1       3.076  -2.262   4.489  0.00  0.00    +0.229 C 
ENDBRANCH  17  19
ENDBRANCH  15  17
ENDBRANCH   1  15
BRANCH   2  20
ATOM     20  C   UNL     1       2.321  -0.272  -0.007  0.00  0.00    +0.280 C 
BRANCH  20  21
ATOM     21  O   UNL     1       2.083   0.445  -1.220  0.00  0.00    -0.485 OA
BRANCH  21  22
ATOM     22  C   UNL     1       0.867   1.033  -1.360  0.00  0.00    +0.139 A 
ATOM     23  C   UNL     1      -0.078   0.920  -0.348  0.00  0.00    +0.048 A 
ATOM     24  C   UNL     1      -1.314   1.511  -0.488  0.00  0.00    +0.022 A 
ATOM     25  C   UNL     1      -1.614   2.233  -1.646  0.00  0.00    +0.053 A 
ATOM     26  C   UNL     1      -0.661   2.345  -2.662  0.00  0.00    +0.042 A 
ATOM     27  C   UNL     1       0.572   1.747  -2.516  0.00  0.00    +0.084 A 
ATOM     28 CL   UNL     1       1.757   1.885  -3.776  0.00  0.00    -0.080 Cl
BRANCH  25  29
ATOM     29  C   UNL     1      -2.897   2.853  -1.793  0.00  0.00    +0.099 C 
ATOM     30  N   UNL     1      -3.915   3.345  -1.910  0.00  0.00    -0.191 NA
ENDBRANCH  25  29
ENDBRANCH  21  22
ENDBRANCH  20  21
ENDBRANCH   2  20
TORSDOF 8
