REMARK  Name = ZINC39531186
REMARK  10 active torsions:
REMARK  status: ('A' for Active; 'I' for Inactive)
REMARK    1  A    between atoms: C_4  and  C_7
REMARK    2  A    between atoms: C_7  and  C_8
REMARK    3  A    between atoms: C_11  and  C_14
REMARK    4  A    between atoms: C_14  and  C_16
REMARK    5  A    between atoms: C_14  and  N_28
REMARK    6  A    between atoms: C_16  and  N_17
REMARK    7  A    between atoms: N_17  and  S_18
REMARK    8  A    between atoms: S_18  and  O_21
REMARK    9  A    between atoms: O_21  and  C_22
REMARK   10  A    between atoms: C_32  and  O_35
REMARK                            x       y       z     vdW  Elec       q    Type
REMARK                         _______ _______ _______ _____ _____    ______ ____
ROOT
ATOM      1  C   UNL     1       5.543  -1.107   5.922  0.00  0.00    +0.065 C 
ENDROOT
BRANCH   1   2
ATOM      2  N   UNL     1       4.766  -1.605   7.065  0.00  0.00    -0.299 NA
ATOM      3  C   UNL     1       3.473  -0.913   7.163  0.00  0.00    +0.066 C 
ATOM      4  C   UNL     1       2.671  -1.501   8.327  0.00  0.00    -0.063 C 
ATOM      5  N   UNL     1       3.429  -1.338   9.575  0.00  0.00    +0.398 N 
ATOM      6  C   UNL     1       4.707  -2.054   9.470  0.00  0.00    +0.073 C 
ATOM      7  C   UNL     1       5.526  -1.472   8.316  0.00  0.00    +0.096 C 
ATOM      8  H   UNL     1       3.605  -0.358   9.736  0.00  0.00    -0.082 HD
ATOM      9  H   UNL     1       2.895  -1.714  10.344  0.00  0.00    -0.082 HD
BRANCH   6  10
ATOM     10  O   UNL     1       5.436  -1.909  10.691  0.00  0.00    -0.409 OA
ATOM     11  H   UNL     1       5.013  -2.328  11.454  0.00  0.00    +0.207 HD
ENDBRANCH   6  10
ENDBRANCH   1   2
BRANCH   1  15
ATOM     12  C   UNL     1       3.340  -1.740   2.317  0.00  0.00    -0.043 A 
ATOM     13  C   UNL     1       4.050  -0.568   2.496  0.00  0.00    +0.004 A 
ATOM     14  C   UNL     1       4.763  -0.363   3.663  0.00  0.00    +0.005 A 
ATOM     15  C   UNL     1       4.765  -1.330   4.650  0.00  0.00    -0.032 A 
ATOM     16  C   UNL     1       4.054  -2.502   4.471  0.00  0.00    +0.005 A 
ATOM     17  C   UNL     1       3.338  -2.705   3.307  0.00  0.00    +0.004 A 
BRANCH  12  18
ATOM     18  C   UNL     1       2.563  -1.964   1.045  0.00  0.00    +0.070 C 
BRANCH  18  22
ATOM     19  C   UNL     1      -1.405  -0.453   1.514  0.00  0.00    +0.000 A 
ATOM     20  C   UNL     1      -0.404   0.370   1.032  0.00  0.00    +0.000 A 
ATOM     21  C   UNL     1       0.880  -0.119   0.881  0.00  0.00    +0.004 A 
ATOM     22  C   UNL     1       1.163  -1.431   1.211  0.00  0.00    -0.043 A 
ATOM     23  C   UNL     1       0.163  -2.254   1.694  0.00  0.00    +0.004 A 
ATOM     24  C   UNL     1      -1.121  -1.766   1.844  0.00  0.00    +0.000 A 
ENDBRANCH  18  22
ENDBRANCH  12  18
ENDBRANCH   1  15
BRANCH   1  25
ATOM     25  C   UNL     1       6.874  -1.858   5.844  0.00  0.00    -0.087 C 
BRANCH  25  26
ATOM     26  N   UNL     1       7.683  -1.306   4.754  0.00  0.00    +0.494 NA
BRANCH  26  27
ATOM     27  S   UNL     1       9.128  -2.011   4.357  0.00  0.00    +0.067 S 
ATOM     28  O   UNL     1       9.905  -2.042   5.546  0.00  0.00    -0.159 OA
ATOM     29  O   UNL     1       8.818  -3.184   3.618  0.00  0.00    -0.159 OA
BRANCH  27  30
ATOM     30  O   UNL     1       9.839  -1.068   3.397  0.00  0.00    -0.362 OA
BRANCH  30  31
ATOM     31  C   UNL     1      10.347   0.045   3.990  0.00  0.00    +0.154 A 
ATOM     32  C   UNL     1       9.538   1.154   4.193  0.00  0.00    +0.048 A 
ATOM     33  C   UNL     1      10.056   2.284   4.796  0.00  0.00    +0.004 A 
ATOM     34  C   UNL     1      11.379   2.310   5.197  0.00  0.00    +0.000 A 
ATOM     35  C   UNL     1      12.187   1.206   4.997  0.00  0.00    +0.004 A 
ATOM     36  C   UNL     1      11.672   0.071   4.399  0.00  0.00    +0.048 A 
ENDBRANCH  30  31
ENDBRANCH  27  30
ENDBRANCH  26  27
ENDBRANCH  25  26
ENDBRANCH   1  25
TORSDOF 10
