REMARK  Name = ZINC24097543
REMARK  10 active torsions:
REMARK  status: ('A' for Active; 'I' for Inactive)
REMARK    1  A    between atoms: C_1  and  C_2
REMARK    2  A    between atoms: C_5  and  O_9
REMARK    3  A    between atoms: C_6  and  C_8
REMARK    4  A    between atoms: O_9  and  C_10
REMARK    5  A    between atoms: C_10  and  C_11
REMARK    6  A    between atoms: C_11  and  C_13
REMARK    7  A    between atoms: C_11  and  O_31
REMARK    8  A    between atoms: C_13  and  N_14
REMARK    9  A    between atoms: C_17  and  C_21
REMARK   10  A    between atoms: C_17  and  C_22
REMARK                            x       y       z     vdW  Elec       q    Type
REMARK                         _______ _______ _______ _____ _____    ______ ____
ROOT
ATOM      1  N   UNL     1       0.226  -8.427  -2.284  0.00  0.00    -0.221 N 
ATOM      2  C   UNL     1       1.347  -9.150  -2.092  0.00  0.00    +0.251 C 
ATOM      3  O   UNL     1       2.486  -8.738  -2.042  0.00  0.00    -0.272 OA
ATOM      4  C   UNL     1       0.887 -10.588  -1.952  0.00  0.00    +0.135 C 
ATOM      5  N   UNL     1      -0.576 -10.499  -2.094  0.00  0.00    -0.281 N 
ATOM      6  C   UNL     1      -0.866  -9.199  -2.279  0.00  0.00    +0.310 C 
ATOM      7  O   UNL     1      -1.995  -8.773  -2.428  0.00  0.00    -0.252 OA
ATOM      8  C   UNL     1       1.262 -11.142  -0.576  0.00  0.00    +0.047 C 
ATOM      9  H   UNL     1      -1.208 -11.235  -2.058  0.00  0.00    +0.152 HD
ENDROOT
BRANCH   4  10
ATOM     10  C   UNL     1       1.475 -11.442  -3.047  0.00  0.00    -0.012 A 
ATOM     11  C   UNL     1       2.709 -11.123  -3.582  0.00  0.00    +0.010 A 
ATOM     12  C   UNL     1       3.253 -11.903  -4.586  0.00  0.00    +0.050 A 
ATOM     13  C   UNL     1       2.561 -13.007  -5.058  0.00  0.00    +0.166 A 
ATOM     14  C   UNL     1       1.318 -13.328  -4.518  0.00  0.00    +0.167 A 
ATOM     15  C   UNL     1       0.782 -12.545  -3.509  0.00  0.00    +0.055 A 
ATOM     16  O   UNL     1       0.846 -14.445  -5.144  0.00  0.00    -0.453 OA
ATOM     17  C   UNL     1       1.623 -14.567  -6.350  0.00  0.00    +0.466 C 
ATOM     18  O   UNL     1       2.868 -13.923  -6.022  0.00  0.00    -0.453 OA
ENDBRANCH   4  10
BRANCH   1  19
ATOM     19  C   UNL     1       0.207  -6.973  -2.468  0.00  0.00    +0.152 C 
BRANCH  19  20
ATOM     20  C   UNL     1       0.079  -6.289  -1.105  0.00  0.00    +0.170 C 
BRANCH  20  21
ATOM     21  O   UNL     1      -1.133  -6.705  -0.474  0.00  0.00    -0.387 OA
ATOM     22  H   UNL     1      -1.932  -6.492  -0.977  0.00  0.00    +0.210 HD
ENDBRANCH  20  21
BRANCH  20  23
ATOM     23  C   UNL     1       0.058  -4.771  -1.298  0.00  0.00    +0.262 C 
BRANCH  23  24
ATOM     24  O   UNL     1       0.057  -4.129  -0.021  0.00  0.00    -0.489 OA
BRANCH  24  29
ATOM     25  C   UNL     1      -0.018   1.503   0.010  0.00  0.00    +0.044 C 
ATOM     26  C   UNL     1       0.002  -0.004   0.002  0.00  0.00    -0.050 A 
ATOM     27  C   UNL     1       0.006  -0.688  -1.200  0.00  0.00    +0.007 A 
ATOM     28  C   UNL     1       0.024  -2.069  -1.210  0.00  0.00    +0.046 A 
ATOM     29  C   UNL     1       0.039  -2.770  -0.013  0.00  0.00    +0.124 A 
ATOM     30  C   UNL     1       0.036  -2.082   1.191  0.00  0.00    -0.009 A 
ATOM     31  C   UNL     1       0.023  -0.701   1.196  0.00  0.00    +0.010 A 
ATOM     32  C   UNL     1       0.052  -2.841   2.493  0.00  0.00    +0.047 C 
ENDBRANCH  24  29
ENDBRANCH  23  24
ENDBRANCH  20  23
ENDBRANCH  19  20
ENDBRANCH   1  19
TORSDOF 7
