REMARK  Name = ZINC18250489
REMARK  10 active torsions:
REMARK  status: ('A' for Active; 'I' for Inactive)
REMARK    1  A    between atoms: C_1  and  C_2
REMARK    2  A    between atoms: C_2  and  O_3
REMARK    3  A    between atoms: O_3  and  C_4
REMARK    4  A    between atoms: C_7  and  N_10
REMARK    5  A    between atoms: C_14  and  N_18
REMARK    6  A    between atoms: N_18  and  C_19
REMARK    7  A    between atoms: C_19  and  C_20
REMARK    8  A    between atoms: C_20  and  C_21
REMARK    9  A    between atoms: C_24  and  S_27
REMARK   10  A    between atoms: S_27  and  N_30
REMARK                            x       y       z     vdW  Elec       q    Type
REMARK                         _______ _______ _______ _____ _____    ______ ____
ROOT
ATOM      1  N   UNL     1      -3.494  -8.694   1.292  0.00  0.00    +0.387 N 
ATOM      2  H   UNL     1      -3.209  -9.662   1.325  0.00  0.00    -0.085 HD
ATOM      3  H   UNL     1      -3.105  -8.202   2.083  0.00  0.00    -0.085 HD
ENDROOT
BRANCH   1   8
ATOM      4  N   UNL     1      -1.989  -5.992  -0.010  0.00  0.00    -0.212 N 
ATOM      5  C   UNL     1      -0.960  -6.843  -0.112  0.00  0.00    +0.225 C 
ATOM      6  O   UNL     1       0.206  -6.526  -0.209  0.00  0.00    -0.275 OA
ATOM      7  C   UNL     1      -1.484  -8.262  -0.087  0.00  0.00    +0.090 C 
ATOM      8  C   UNL     1      -3.010  -8.082   0.048  0.00  0.00    +0.026 C 
ATOM      9  C   UNL     1      -3.187  -6.580   0.091  0.00  0.00    +0.213 C 
ATOM     10  O   UNL     1      -4.247  -6.001   0.198  0.00  0.00    -0.277 OA
BRANCH   4  14
ATOM     11  C   UNL     1      -1.498  -1.849   0.008  0.00  0.00    +0.121 A 
ATOM     12  C   UNL     1      -1.937  -2.500   1.151  0.00  0.00    +0.047 A 
ATOM     13  C   UNL     1      -2.100  -3.871   1.146  0.00  0.00    +0.027 A 
ATOM     14  C   UNL     1      -1.824  -4.598  -0.004  0.00  0.00    +0.044 A 
ATOM     15  C   UNL     1      -1.384  -3.946  -1.148  0.00  0.00    +0.027 A 
ATOM     16  C   UNL     1      -1.226  -2.574  -1.143  0.00  0.00    +0.047 A 
BRANCH  11  17
ATOM     17  O   UNL     1      -1.338  -0.499   0.013  0.00  0.00    -0.492 OA
BRANCH  17  19
ATOM     18  C   UNL     1      -1.398   1.685   1.048  0.00  0.00    +0.048 C 
ATOM     19  C   UNL     1      -1.635   0.184   1.233  0.00  0.00    +0.225 C 
ENDBRANCH  17  19
ENDBRANCH  11  17
ENDBRANCH   4  14
ENDBRANCH   1   8
BRANCH   1  20
ATOM     20  C   UNL     1      -4.960  -8.614   1.339  0.00  0.00    -0.077 C 
BRANCH  20  21
ATOM     21  C   UNL     1      -5.465  -9.252   2.635  0.00  0.00    +0.016 C 
BRANCH  21  22
ATOM     22  C   UNL     1      -6.969  -9.170   2.683  0.00  0.00    -0.049 A 
ATOM     23  C   UNL     1      -7.583  -8.070   3.251  0.00  0.00    +0.005 A 
ATOM     24  C   UNL     1      -8.963  -7.995   3.295  0.00  0.00    +0.029 A 
ATOM     25  C   UNL     1      -9.728  -9.020   2.770  0.00  0.00    +0.105 A 
ATOM     26  C   UNL     1      -9.114 -10.120   2.201  0.00  0.00    +0.029 A 
ATOM     27  C   UNL     1      -7.734 -10.193   2.154  0.00  0.00    +0.005 A 
BRANCH  25  28
ATOM     28  S   UNL     1     -11.487  -8.924   2.827  0.00  0.00    +0.056 S 
ATOM     29  O   UNL     1     -11.968 -10.260   2.761  0.00  0.00    -0.153 OA
ATOM     30  O   UNL     1     -11.812  -8.050   3.898  0.00  0.00    -0.153 OA
BRANCH  28  31
ATOM     31  N   UNL     1     -11.982  -8.174   1.436  0.00  0.00    -0.204 NA
ATOM     32  H   UNL     1     -11.327  -7.883   0.782  0.00  0.00    +0.144 HD
ATOM     33  H   UNL     1     -12.926  -8.024   1.276  0.00  0.00    +0.144 HD
ENDBRANCH  28  31
ENDBRANCH  25  28
ENDBRANCH  21  22
ENDBRANCH  20  21
ENDBRANCH   1  20
TORSDOF 9
