REMARK  Name = ZINC24705245
REMARK  8 active torsions:
REMARK  status: ('A' for Active; 'I' for Inactive)
REMARK    1  A    between atoms: N_12  and  C_13
REMARK    2  A    between atoms: C_13  and  C_14
REMARK    3  A    between atoms: C_14  and  C_15
REMARK    4  A    between atoms: C_15  and  C_16
REMARK    5  A    between atoms: C_16  and  C_17
REMARK    6  A    between atoms: C_17  and  C_18
REMARK    7  A    between atoms: N_20  and  N_21
REMARK    8  A    between atoms: C_22  and  C_24
REMARK                            x       y       z     vdW  Elec       q    Type
REMARK                         _______ _______ _______ _____ _____    ______ ____
ROOT
ATOM      1  C   UNL     1      -8.517   0.788  -0.143  0.00  0.00    +0.097 C 
ENDROOT
BRANCH   1   2
ATOM      2  C   UNL     1      -7.071   1.209  -0.107  0.00  0.00    +0.229 C 
ATOM      3  O   UNL     1      -6.783   2.387  -0.075  0.00  0.00    -0.274 OA
ATOM      4  N   UNL     1      -6.097   0.277  -0.110  0.00  0.00    -0.234 N 
ATOM      5  H   UNL     1      -6.359  -0.791  -0.139  0.00  0.00    +0.173 HD
BRANCH   4   6
ATOM      6  N   UNL     1      -4.753   0.669  -0.076  0.00  0.00    -0.230 N 
ATOM      7  C   UNL     1      -3.779  -0.263  -0.080  0.00  0.00    +0.267 C 
ATOM      8  O   UNL     1      -4.068  -1.445  -0.112  0.00  0.00    -0.268 OA
ATOM      9  H   UNL     1      -4.491   1.737  -0.048  0.00  0.00    +0.173 HD
BRANCH   7  10
ATOM     10  C   UNL     1      -2.372   0.146  -0.044  0.00  0.00    +0.076 A 
ATOM     11  C   UNL     1      -1.234  -0.640  -0.041  0.00  0.00    +0.024 A 
ATOM     12  C   UNL     1       0.002  -0.004   0.002  0.00  0.00    -0.036 A 
ATOM     13  C   UNL     1      -0.016   1.348   0.009  0.00  0.00    -0.006 A 
ATOM     14  S   UNL     1      -1.678   1.791   0.005  0.00  0.00    -0.088 S 
ATOM     15  C   UNL     1       1.189   2.263   0.003  0.00  0.00    +0.043 C 
ATOM     16  C   UNL     1       1.901   2.086   1.355  0.00  0.00    +0.005 C 
ATOM     17  C   UNL     1       2.734   0.827   1.351  0.00  0.00    +0.001 C 
ATOM     18  C   UNL     1       1.980  -0.478   1.400  0.00  0.00    +0.005 C 
ATOM     19  C   UNL     1       1.309  -0.801   0.064  0.00  0.00    +0.036 C 
ENDBRANCH   7  10
ENDBRANCH   4   6
ENDBRANCH   1   2
BRANCH   1  20
ATOM     20  C   UNL     1      -9.411   2.030  -0.131  0.00  0.00    +0.009 C 
BRANCH  20  21
ATOM     21  C   UNL     1     -10.879   1.603  -0.168  0.00  0.00    +0.002 C 
BRANCH  21  22
ATOM     22  C   UNL     1     -11.772   2.845  -0.156  0.00  0.00    +0.019 C 
BRANCH  22  23
ATOM     23  C   UNL     1     -13.241   2.418  -0.193  0.00  0.00    +0.103 C 
BRANCH  23  35
ATOM     24  C   UNL     1     -17.002   6.976  -0.161  0.00  0.00    +0.001 A 
ATOM     25  C   UNL     1     -18.336   6.612  -0.193  0.00  0.00    +0.002 A 
ATOM     26  C   UNL     1     -18.677   5.267  -0.229  0.00  0.00    +0.030 A 
ATOM     27  C   UNL     1     -17.694   4.322  -0.232  0.00  0.00    +0.123 A 
ATOM     28  C   UNL     1     -16.334   4.659  -0.193  0.00  0.00    +0.043 A 
ATOM     29  C   UNL     1     -16.007   6.023  -0.163  0.00  0.00    +0.013 A 
ATOM     30  C   UNL     1     -15.467   3.470  -0.210  0.00  0.00    +0.150 C 
ATOM     31  N   UNL     1     -16.007   2.294  -0.246  0.00  0.00    -0.113 NA
ATOM     32  S   UNL     1     -17.661   2.550  -0.271  0.00  0.00    +0.101 S 
ATOM     33  O   UNL     1     -18.144   2.136  -1.541  0.00  0.00    -0.146 OA
ATOM     34  O   UNL     1     -18.190   2.080   0.961  0.00  0.00    -0.146 OA
ATOM     35  N   UNL     1     -14.096   3.607  -0.182  0.00  0.00    -0.327 N 
ATOM     36  H   UNL     1     -13.644   4.609  -0.151  0.00  0.00    +0.148 HD
ENDBRANCH  23  35
ENDBRANCH  22  23
ENDBRANCH  21  22
ENDBRANCH  20  21
ENDBRANCH   1  20
TORSDOF 8
