REMARK  Name = ZINC19862842
REMARK  6 active torsions:
REMARK  status: ('A' for Active; 'I' for Inactive)
REMARK    1  A    between atoms: C_4  and  C_7
REMARK    2  A    between atoms: C_9  and  C_29
REMARK    3  A    between atoms: C_11  and  C_13
REMARK    4  A    between atoms: N_19  and  C_24
REMARK    5  A    between atoms: C_24  and  C_25
REMARK    6  A    between atoms: N_27  and  N_28
REMARK                            x       y       z     vdW  Elec       q    Type
REMARK                         _______ _______ _______ _____ _____    ______ ____
ROOT
ATOM      1  C   UNL     1       3.759  -0.967  -0.040  0.00  0.00    +0.072 A 
ATOM      2  C   UNL     1       2.524  -0.327  -0.019  0.00  0.00    +0.037 A 
ATOM      3  C   UNL     1       2.481   1.069  -0.016  0.00  0.00    -0.014 A 
ATOM      4  C   UNL     1       3.689   1.770  -0.024  0.00  0.00    +0.037 A 
ATOM      5  C   UNL     1       4.885   1.059  -0.040  0.00  0.00    +0.072 A 
ATOM      6  N   UNL     1       4.886  -0.267  -0.047  0.00  0.00    -0.247 NA
ENDROOT
BRANCH   5   7
ATOM      7  C   UNL     1       6.173   1.793  -0.048  0.00  0.00    +0.002 A 
ATOM      8  C   UNL     1       6.186   3.182   0.065  0.00  0.00    +0.014 A 
ATOM      9  C   UNL     1       7.385   3.867   0.059  0.00  0.00    +0.048 A 
ATOM     10  C   UNL     1       8.579   3.175  -0.060  0.00  0.00    +0.143 A 
ATOM     11  C   UNL     1       8.572   1.784  -0.174  0.00  0.00    +0.079 A 
ATOM     12  C   UNL     1       7.374   1.093  -0.163  0.00  0.00    +0.037 A 
ATOM     13  N   UNL     1       9.790   1.100  -0.295  0.00  0.00    -0.256 N 
ATOM     14  C   UNL     1      10.936   1.744   0.017  0.00  0.00    +0.258 C 
ATOM     15  O   UNL     1      12.004   1.182  -0.107  0.00  0.00    -0.271 OA
ATOM     16  C   UNL     1      10.882   3.164   0.520  0.00  0.00    +0.325 C 
ATOM     17  O   UNL     1       9.765   3.839  -0.065  0.00  0.00    -0.481 OA
BRANCH  13  18
ATOM     18  C   UNL     1       9.820  -0.292  -0.751  0.00  0.00    +0.210 C 
BRANCH  18  19
ATOM     19  C   UNL     1       9.946  -0.326  -2.252  0.00  0.00    +0.244 C 
ATOM     20  O   UNL     1      10.005   0.711  -2.879  0.00  0.00    -0.273 OA
ATOM     21  N   UNL     1       9.993  -1.508  -2.898  0.00  0.00    -0.252 N 
ATOM     22  H   UNL     1       9.939  -2.448  -2.329  0.00  0.00    +0.169 HD
BRANCH  21  23
ATOM     23  N   UNL     1      10.107  -1.539  -4.259  0.00  0.00    -0.254 NA
ATOM     24  H   UNL     1      10.130  -2.584  -4.601  0.00  0.00    +0.140 HD
ATOM     25  H   UNL     1       9.247  -1.023  -4.711  0.00  0.00    +0.140 HD
ENDBRANCH  21  23
ENDBRANCH  18  19
ENDBRANCH  13  18
ENDBRANCH   5   7
BRANCH   3  26
ATOM     26  C   UNL     1       1.184   1.790   0.000  0.00  0.00    -0.018 A 
ATOM     27  C   UNL     1      -0.013   1.076   0.008  0.00  0.00    +0.010 A 
ATOM     28  C   UNL     1      -1.216   1.751   0.017  0.00  0.00    +0.020 A 
ATOM     29  C   UNL     1      -1.236   3.135   0.030  0.00  0.00    +0.041 A 
ATOM     30  C   UNL     1      -0.050   3.849   0.023  0.00  0.00    +0.020 A 
ATOM     31  C   UNL     1       1.159   3.183   0.008  0.00  0.00    +0.010 A 
ATOM     32 CL   UNL     1      -2.754   3.978   0.048  0.00  0.00    -0.084 Cl
ENDBRANCH   3  26
BRANCH   1  36
ATOM     33  C   UNL     1       3.923  -5.215  -0.065  0.00  0.00    +0.000 A 
ATOM     34  C   UNL     1       5.095  -4.481  -0.073  0.00  0.00    +0.001 A 
ATOM     35  C   UNL     1       5.048  -3.101  -0.065  0.00  0.00    +0.010 A 
ATOM     36  C   UNL     1       3.816  -2.449  -0.049  0.00  0.00    +0.000 A 
ATOM     37  C   UNL     1       2.639  -3.195  -0.036  0.00  0.00    +0.010 A 
ATOM     38  C   UNL     1       2.698  -4.573  -0.049  0.00  0.00    +0.001 A 
ENDBRANCH   1  36
TORSDOF 6
