REMARK  Name = ZINC11634802
REMARK  4 active torsions:
REMARK  status: ('A' for Active; 'I' for Inactive)
REMARK    1  A    between atoms: C_6  and  C_7
REMARK    2  A    between atoms: C_13  and  C_15
REMARK    3  A    between atoms: C_15  and  O_16
REMARK    4  A    between atoms: O_16  and  C_17
REMARK                            x       y       z     vdW  Elec       q    Type
REMARK                         _______ _______ _______ _____ _____    ______ ____
ROOT
ATOM      1  C   UNL     1      -3.676  -0.780   0.018  0.00  0.00    +0.250 A 
ATOM      2  N   UNL     1      -3.807  -2.085   0.011  0.00  0.00    -0.106 NA
ATOM      3  N   UNL     1      -5.057  -2.389   0.016  0.00  0.00    -0.092 NA
ATOM      4  C   UNL     1      -5.773  -1.291   0.026  0.00  0.00    +0.315 A 
ATOM      5  O   UNL     1      -4.918  -0.251   0.034  0.00  0.00    -0.405 OA
ATOM      6  N   UNL     1      -7.157  -1.215   0.034  0.00  0.00    -0.236 N 
ATOM      7  C   UNL     1      -7.894  -2.343   0.031  0.00  0.00    +0.258 C 
ATOM      8  O   UNL     1      -7.346  -3.425   0.021  0.00  0.00    -0.272 OA
ATOM      9  H   UNL     1      -7.596  -0.349   0.042  0.00  0.00    +0.159 HD
ENDROOT
BRANCH   1  15
ATOM     10  C   UNL     1      -2.417   1.368   0.025  0.00  0.00    +0.017 A 
ATOM     11  C   UNL     1      -1.228   2.067   0.019  0.00  0.00    +0.050 A 
ATOM     12  C   UNL     1      -0.017   1.388   0.010  0.00  0.00    +0.162 A 
ATOM     13  C   UNL     1       0.002  -0.004   0.002  0.00  0.00    +0.163 A 
ATOM     14  C   UNL     1      -1.187  -0.711   0.004  0.00  0.00    +0.062 A 
ATOM     15  C   UNL     1      -2.405  -0.028   0.015  0.00  0.00    +0.042 A 
ATOM     16  O   UNL     1       1.181  -0.685  -0.006  0.00  0.00    -0.485 OA
ATOM     17  C   UNL     1       2.347   0.054  -0.386  0.00  0.00    +0.270 C 
ATOM     18  C   UNL     1       2.334   1.392   0.366  0.00  0.00    +0.270 C 
ATOM     19  O   UNL     1       1.144   2.099   0.002  0.00  0.00    -0.485 OA
ENDBRANCH   1  15
BRANCH   7  20
ATOM     20  C   UNL     1      -9.399  -2.261   0.040  0.00  0.00    +0.325 C 
BRANCH  20  21
ATOM     21  O   UNL     1      -9.949  -3.580   0.034  0.00  0.00    -0.481 OA
BRANCH  21  22
ATOM     22  C   UNL     1     -11.304  -3.684   0.041  0.00  0.00    +0.140 A 
ATOM     23  C   UNL     1     -12.088  -2.540   0.053  0.00  0.00    +0.048 A 
ATOM     24  C   UNL     1     -13.466  -2.647   0.060  0.00  0.00    +0.023 A 
ATOM     25  C   UNL     1     -14.063  -3.895   0.055  0.00  0.00    +0.043 A 
ATOM     26  C   UNL     1     -13.284  -5.038   0.043  0.00  0.00    +0.043 A 
ATOM     27  C   UNL     1     -11.905  -4.935   0.030  0.00  0.00    +0.084 A 
ATOM     28 CL   UNL     1     -10.927  -6.369   0.008  0.00  0.00    -0.080 Cl
ATOM     29 CL   UNL     1     -15.794  -4.027   0.063  0.00  0.00    -0.083 Cl
ENDBRANCH  21  22
ENDBRANCH  20  21
ENDBRANCH   7  20
TORSDOF 4
