REMARK  Name = ZINC63695953
REMARK  5 active torsions:
REMARK  status: ('A' for Active; 'I' for Inactive)
REMARK    1  A    between atoms: C_5  and  N_12
REMARK    2  A    between atoms: C_16  and  C_19
REMARK    3  A    between atoms: N_21  and  C_22
REMARK    4  A    between atoms: C_22  and  C_23
REMARK    5  A    between atoms: C_23  and  C_24
REMARK                            x       y       z     vdW  Elec       q    Type
REMARK                         _______ _______ _______ _____ _____    ______ ____
ROOT
ATOM      1  N   UNL     1       5.390   0.768   1.157  0.00  0.00    -0.265 NA
ATOM      2  C   UNL     1       6.438  -0.255   1.059  0.00  0.00    +0.088 C 
ATOM      3  C   UNL     1       7.393  -0.124   2.248  0.00  0.00    +0.016 C 
ATOM      4  C   UNL     1       6.606  -0.295   3.550  0.00  0.00    +0.015 C 
ATOM      5  C   UNL     1       5.490   0.752   3.604  0.00  0.00    +0.089 C 
ATOM      6  C   UNL     1       4.590   0.595   2.376  0.00  0.00    +0.100 C 
ENDROOT
BRANCH   1  11
ATOM      7  C   UNL     1      -0.017   1.404   0.010  0.00  0.00    +0.022 A 
ATOM      8  C   UNL     1       1.108   2.145   0.003  0.00  0.00    +0.029 A 
ATOM      9  C   UNL     1       2.417   1.477  -0.013  0.00  0.00    +0.061 A 
ATOM     10  N   UNL     1       3.639   1.925  -0.023  0.00  0.00    -0.351 N 
ATOM     11  C   UNL     1       4.535   0.762  -0.038  0.00  0.00    +0.252 C 
ATOM     12  N   UNL     1       3.672  -0.426  -0.036  0.00  0.00    -0.351 N 
ATOM     13  C   UNL     1       2.438  -0.012  -0.021  0.00  0.00    +0.063 A 
ATOM     14  C   UNL     1       1.149  -0.715  -0.012  0.00  0.00    +0.047 A 
ATOM     15  C   UNL     1       0.002  -0.004   0.002  0.00  0.00    +0.043 A 
ATOM     16 CL   UNL     1      -1.509  -0.859   0.012  0.00  0.00    -0.083 Cl
ATOM     17  H   UNL     1       3.908   2.857  -0.021  0.00  0.00    +0.163 HD
ATOM     18  H   UNL     1       3.968  -1.350  -0.044  0.00  0.00    +0.163 HD
ENDBRANCH   1  11
BRANCH   5  19
ATOM     19  C   UNL     1       4.674   0.553   4.856  0.00  0.00    +0.217 C 
ATOM     20  O   UNL     1       3.488   0.314   4.774  0.00  0.00    -0.275 OA
ATOM     21  N   UNL     1       5.262   0.643   6.065  0.00  0.00    -0.315 N 
ATOM     22  H   UNL     1       6.211   0.835   6.130  0.00  0.00    +0.149 HD
BRANCH  21  23
ATOM     23  C   UNL     1       4.469   0.450   7.281  0.00  0.00    +0.108 C 
BRANCH  23  24
ATOM     24  C   UNL     1       5.371   0.602   8.508  0.00  0.00    +0.049 C 
BRANCH  24  25
ATOM     25  C   UNL     1       4.555   0.404   9.759  0.00  0.00    -0.072 C 
ATOM     26  C   UNL     1       4.540  -0.775  10.293  0.00  0.00    -0.028 C 
ATOM     27  C   UNL     1       3.767  -1.128  11.530  0.00  0.00    +0.027 C 
ATOM     28  C   UNL     1       3.372   0.143  12.285  0.00  0.00    +0.004 C 
ATOM     29  C   UNL     1       2.733   1.120  11.290  0.00  0.00    +0.005 C 
ATOM     30  C   UNL     1       3.816   1.587  10.312  0.00  0.00    +0.030 C 
ENDBRANCH  24  25
ENDBRANCH  23  24
ENDBRANCH  21  23
ENDBRANCH   5  19
TORSDOF 5
