REMARK  Name = ZINC01959939
REMARK  8 active torsions:
REMARK  status: ('A' for Active; 'I' for Inactive)
REMARK    1  A    between atoms: C_6  and  N_7
REMARK    2  A    between atoms: C_8  and  C_10
REMARK    3  A    between atoms: C_10  and  C_11
REMARK    4  A    between atoms: C_11  and  C_12
REMARK    5  A    between atoms: N_14  and  N_15
REMARK    6  A    between atoms: C_16  and  C_17
REMARK    7  A    between atoms: C_20  and  O_24
REMARK    8  A    between atoms: C_22  and  O_23
REMARK                            x       y       z     vdW  Elec       q    Type
REMARK                         _______ _______ _______ _____ _____    ______ ____
ROOT
ATOM      1  C   UNL     1       4.857   1.790  -0.224  0.00  0.00    +0.233 C 
ATOM      2  O   UNL     1       5.028   0.613   0.019  0.00  0.00    -0.274 OA
ATOM      3  N   UNL     1       5.918   2.601  -0.405  0.00  0.00    -0.207 N 
ATOM      4  H   UNL     1       5.782   3.541  -0.599  0.00  0.00    +0.177 HD
ENDROOT
BRANCH   3   5
ATOM      5  N   UNL     1       7.218   2.086  -0.314  0.00  0.00    -0.188 NA
ATOM      6  C   UNL     1       8.240   2.867  -0.489  0.00  0.00    +0.142 C 
BRANCH   6   7
ATOM      7  C   UNL     1       9.606   2.325  -0.393  0.00  0.00    +0.036 A 
ATOM      8  C   UNL     1      10.708   3.164  -0.581  0.00  0.00    +0.016 A 
ATOM      9  C   UNL     1      11.984   2.653  -0.490  0.00  0.00    +0.046 A 
ATOM     10  C   UNL     1      12.181   1.305  -0.211  0.00  0.00    +0.120 A 
ATOM     11  C   UNL     1      11.093   0.465  -0.023  0.00  0.00    +0.091 A 
ATOM     12  C   UNL     1       9.806   0.967  -0.107  0.00  0.00    +0.129 A 
BRANCH  12  13
ATOM     13  O   UNL     1       8.741   0.146   0.083  0.00  0.00    -0.506 OA
ATOM     14  H   UNL     1       8.420  -0.275  -0.727  0.00  0.00    +0.292 HD
ENDBRANCH  12  13
BRANCH  10  15
ATOM     15  O   UNL     1      13.442   0.810  -0.123  0.00  0.00    -0.507 OA
ATOM     16  H   UNL     1      13.817   0.846   0.768  0.00  0.00    +0.292 HD
ENDBRANCH  10  15
ENDBRANCH   6   7
ENDBRANCH   3   5
BRANCH   1  17
ATOM     17  C   UNL     1       3.459   2.344  -0.322  0.00  0.00    +0.107 C 
BRANCH  17  18
ATOM     18  C   UNL     1       2.448   1.223  -0.076  0.00  0.00    +0.105 C 
BRANCH  18  20
ATOM     19  N   UNL     1      -0.011   0.966   0.007  0.00  0.00    -0.285 N 
ATOM     20  C   UNL     1       1.050   1.777  -0.174  0.00  0.00    +0.218 C 
ATOM     21  O   UNL     1       0.879   2.953  -0.417  0.00  0.00    -0.275 OA
ATOM     22  H   UNL     1       0.122   0.012   0.124  0.00  0.00    +0.155 HD
BRANCH  19  28
ATOM     23  C   UNL     1      -1.528   2.769   0.536  0.00  0.00    +0.024 A 
ATOM     24  C   UNL     1      -2.805   3.295   0.544  0.00  0.00    +0.017 A 
ATOM     25  C   UNL     1      -3.864   2.553   0.051  0.00  0.00    +0.018 A 
ATOM     26  C   UNL     1      -3.645   1.284  -0.456  0.00  0.00    +0.017 A 
ATOM     27  C   UNL     1      -2.369   0.756  -0.472  0.00  0.00    +0.024 A 
ATOM     28  C   UNL     1      -1.305   1.499   0.022  0.00  0.00    +0.033 A 
ATOM     29 BR   UNL     1      -5.612   3.273   0.071  0.00  0.00    -0.050 Br
ENDBRANCH  19  28
ENDBRANCH  18  20
ENDBRANCH  17  18
ENDBRANCH   1  17
TORSDOF 8
