REMARK  Name = ZINC08729104
REMARK  12 active torsions:
REMARK  status: ('A' for Active; 'I' for Inactive)
REMARK    1  A    between atoms: C_1  and  C_2
REMARK    2  A    between atoms: C_2  and  C_4
REMARK    3  A    between atoms: C_2  and  N_17
REMARK    4  A    between atoms: C_4  and  C_6
REMARK    5  A    between atoms: C_7  and  N_16
REMARK    6  A    between atoms: N_8  and  C_15
REMARK    7  A    between atoms: N_11  and  C_14
REMARK    8  A    between atoms: N_17  and  C_18
REMARK    9  A    between atoms: C_21  and  C_24
REMARK   10  A    between atoms: C_24  and  C_25
REMARK   11  A    between atoms: C_24  and  C_26
REMARK   12  A    between atoms: C_24  and  C_27
REMARK                            x       y       z     vdW  Elec       q    Type
REMARK                         _______ _______ _______ _____ _____    ______ ____
ROOT
ATOM      1  C   UNL     1       1.242  -1.947   0.843  0.00  0.00    +0.191 C 
ATOM      2  O   UNL     1       0.240  -2.631   0.781  0.00  0.00    -0.290 OA
ENDROOT
BRANCH   1   3
ATOM      3  C   UNL     1       1.206  -0.603   0.413  0.00  0.00    +0.122 A 
ATOM      4  C   UNL     1       0.051  -0.061  -0.177  0.00  0.00    +0.116 A 
ATOM      5  N   UNL     1       0.065   1.245  -0.576  0.00  0.00    -0.284 N 
ATOM      6  C   UNL     1       1.154   2.013  -0.416  0.00  0.00    +0.333 A 
ATOM      7  O   UNL     1       1.116   3.169  -0.788  0.00  0.00    -0.246 OA
ATOM      8  N   UNL     1       2.285   1.550   0.141  0.00  0.00    -0.263 N 
ATOM      9  C   UNL     1       2.374   0.274   0.569  0.00  0.00    +0.269 A 
ATOM     10  O   UNL     1       3.401  -0.143   1.073  0.00  0.00    -0.267 OA
ATOM     11  C   UNL     1       3.438   2.443   0.286  0.00  0.00    +0.157 C 
ATOM     12  C   UNL     1      -1.131   1.818  -1.198  0.00  0.00    +0.155 C 
BRANCH   4  13
ATOM     13  N   UNL     1      -1.062  -0.824  -0.347  0.00  0.00    -0.344 N 
ATOM     14  H   UNL     1      -1.935  -0.404  -0.397  0.00  0.00    +0.144 HD
ATOM     15  H   UNL     1      -0.982  -1.788  -0.419  0.00  0.00    +0.144 HD
ENDBRANCH   4  13
ENDBRANCH   1   3
BRANCH   1  17
ATOM     16  C   UNL     1       2.711  -2.103   2.834  0.00  0.00    +0.036 C 
ATOM     17  C   UNL     1       2.523  -2.533   1.378  0.00  0.00    +0.139 C 
BRANCH  17  18
ATOM     18  N   UNL     1       2.458  -3.995   1.305  0.00  0.00    -0.334 N 
ATOM     19  H   UNL     1       1.598  -4.443   1.307  0.00  0.00    +0.147 HD
BRANCH  18  20
ATOM     20  C   UNL     1       3.636  -4.743   1.234  0.00  0.00    +0.028 A 
ATOM     21  C   UNL     1       4.868  -4.102   1.225  0.00  0.00    +0.023 A 
ATOM     22  C   UNL     1       6.031  -4.845   1.159  0.00  0.00    +0.006 A 
ATOM     23  C   UNL     1       5.968  -6.225   1.091  0.00  0.00    -0.042 A 
ATOM     24  C   UNL     1       4.743  -6.866   1.093  0.00  0.00    +0.006 A 
ATOM     25  C   UNL     1       3.577  -6.129   1.165  0.00  0.00    +0.023 A 
BRANCH  23  26
ATOM     26  C   UNL     1       7.239  -7.032   1.013  0.00  0.00    -0.013 C 
ATOM     27  C   UNL     1       7.245  -7.850  -0.280  0.00  0.00    +0.015 C 
ATOM     28  C   UNL     1       8.444  -6.089   1.027  0.00  0.00    +0.015 C 
ATOM     29  C   UNL     1       7.317  -7.976   2.215  0.00  0.00    +0.015 C 
ENDBRANCH  23  26
ENDBRANCH  18  20
ENDBRANCH  17  18
ENDBRANCH   1  17
TORSDOF 6
