REMARK  Name = ZINC36566740
REMARK  14 active torsions:
REMARK  status: ('A' for Active; 'I' for Inactive)
REMARK    1  A    between atoms: C_1  and  C_2
REMARK    2  A    between atoms: C_2  and  C_3
REMARK    3  A    between atoms: C_3  and  N_4
REMARK    4  A    between atoms: N_4  and  C_5
REMARK    5  A    between atoms: C_5  and  C_7
REMARK    6  A    between atoms: C_5  and  C_14
REMARK    7  A    between atoms: C_10  and  O_13
REMARK    8  A    between atoms: N_16  and  C_17
REMARK    9  A    between atoms: C_17  and  C_18
REMARK   10  A    between atoms: C_17  and  C_19
REMARK   11  A    between atoms: C_17  and  C_20
REMARK   12  A    between atoms: C_21  and  C_23
REMARK   13  A    between atoms: C_25  and  N_32
REMARK   14  A    between atoms: C_27  and  N_29
REMARK                            x       y       z     vdW  Elec       q    Type
REMARK                         _______ _______ _______ _____ _____    ______ ____
ROOT
ATOM      1  N   UNL     1      -0.559  -3.724  -0.554  0.00  0.00    -0.282 N 
ATOM      2  C   UNL     1      -1.631  -3.865  -1.360  0.00  0.00    +0.248 C 
ATOM      3  O   UNL     1      -1.560  -3.537  -2.528  0.00  0.00    -0.270 OA
ENDROOT
BRANCH   2   4
ATOM      4  C   UNL     1      -2.892  -4.417  -0.822  0.00  0.00    +0.041 A 
ATOM      5  C   UNL     1      -3.280  -4.133   0.488  0.00  0.00    +0.046 A 
ATOM      6  C   UNL     1      -4.459  -4.651   0.983  0.00  0.00    +0.129 A 
ATOM      7  C   UNL     1      -5.255  -5.452   0.184  0.00  0.00    +0.065 A 
ATOM      8  C   UNL     1      -4.876  -5.738  -1.115  0.00  0.00    +0.129 A 
ATOM      9  C   UNL     1      -3.703  -5.221  -1.625  0.00  0.00    +0.046 A 
BRANCH   8  10
ATOM     10  N   UNL     1      -5.735  -6.596  -1.963  0.00  0.00    +0.057 N 
ATOM     11  O   UNL     1      -6.765  -7.046  -1.519  0.00  0.00    -0.126 OA
ATOM     12  O   UNL     1      -5.405  -6.847  -3.099  0.00  0.00    -0.126 OA
ENDBRANCH   8  10
BRANCH   6  13
ATOM     13  N   UNL     1      -4.872  -4.350   2.372  0.00  0.00    +0.057 N 
ATOM     14  O   UNL     1      -4.177  -3.651   3.071  0.00  0.00    -0.126 OA
ATOM     15  O   UNL     1      -5.904  -4.804   2.808  0.00  0.00    -0.126 OA
ENDBRANCH   6  13
ENDBRANCH   2   4
BRANCH   1  16
ATOM     16  C   UNL     1       0.775  -3.549  -1.134  0.00  0.00    +0.109 C 
BRANCH  16  18
ATOM     17  C   UNL     1       2.911  -4.704  -1.721  0.00  0.00    +0.005 C 
ATOM     18  C   UNL     1       1.536  -4.875  -1.072  0.00  0.00    +0.016 C 
ENDBRANCH  16  18
ENDBRANCH   1  16
BRANCH   1  19
ATOM     19  C   UNL     1      -0.729  -3.747   0.901  0.00  0.00    +0.192 C 
BRANCH  19  20
ATOM     20  C   UNL     1       0.578  -4.119   1.553  0.00  0.00    -0.018 A 
ATOM     21  C   UNL     1       1.490  -3.133   1.883  0.00  0.00    +0.009 A 
ATOM     22  C   UNL     1       2.688  -3.471   2.481  0.00  0.00    +0.046 A 
ATOM     23  C   UNL     1       2.977  -4.801   2.749  0.00  0.00    +0.117 A 
ATOM     24  C   UNL     1       2.061  -5.788   2.417  0.00  0.00    +0.046 A 
ATOM     25  C   UNL     1       0.861  -5.444   1.825  0.00  0.00    +0.009 A 
BRANCH  23  26
ATOM     26  O   UNL     1       4.156  -5.136   3.337  0.00  0.00    -0.507 OA
ATOM     27  H   UNL     1       4.123  -5.153   4.303  0.00  0.00    +0.292 HD
ENDBRANCH  23  26
ENDBRANCH  19  20
BRANCH  19  28
ATOM     28  C   UNL     1      -1.158  -2.384   1.378  0.00  0.00    +0.238 C 
ATOM     29  O   UNL     1      -1.308  -1.482   0.581  0.00  0.00    -0.273 OA
ATOM     30  N   UNL     1      -1.376  -2.167   2.690  0.00  0.00    -0.309 N 
ATOM     31  H   UNL     1      -1.256  -2.888   3.327  0.00  0.00    +0.149 HD
BRANCH  30  32
ATOM     32  C   UNL     1      -1.794  -0.841   3.154  0.00  0.00    +0.026 C 
ATOM     33  C   UNL     1      -3.120  -0.464   2.492  0.00  0.00    +0.031 C 
ATOM     34  C   UNL     1      -1.971  -0.865   4.673  0.00  0.00    +0.031 C 
ATOM     35  C   UNL     1      -0.726   0.190   2.781  0.00  0.00    +0.031 C 
ENDBRANCH  30  32
ENDBRANCH  19  28
ENDBRANCH   1  19
TORSDOF 10
