REMARK  Name = ZINC08839372
REMARK  5 active torsions:
REMARK  status: ('A' for Active; 'I' for Inactive)
REMARK    1  A    between atoms: C_10  and  C_11
REMARK    2  A    between atoms: C_11  and  N_12
REMARK    3  A    between atoms: N_15  and  C_16
REMARK    4  A    between atoms: C_16  and  C_17
REMARK    5  A    between atoms: N_20  and  C_24
REMARK                            x       y       z     vdW  Elec       q    Type
REMARK                         _______ _______ _______ _____ _____    ______ ____
ROOT
ATOM      1  N   UNL     1      -1.951   6.021   1.415  0.00  0.00    -0.295 N 
ATOM      2  C   UNL     1      -3.123   6.636   1.673  0.00  0.00    +0.300 C 
ATOM      3  O   UNL     1      -3.740   7.170   0.772  0.00  0.00    -0.253 OA
ATOM      4  N   UNL     1      -3.609   6.658   2.930  0.00  0.00    -0.296 N 
ATOM      5  H   UNL     1      -1.458   5.595   2.134  0.00  0.00    +0.151 HD
ATOM      6  H   UNL     1      -3.116   6.232   3.648  0.00  0.00    +0.150 HD
ENDROOT
BRANCH   1   7
ATOM      7  C   UNL     1      -1.422   5.996   0.049  0.00  0.00    +0.141 C 
BRANCH   7  17
ATOM      8  C   UNL     1      -0.013   1.076   0.008  0.00  0.00    +0.001 A 
ATOM      9  C   UNL     1      -1.235   1.746   0.018  0.00  0.00    +0.001 A 
ATOM     10  C   UNL     1      -1.289   3.105   0.031  0.00  0.00    +0.009 A 
ATOM     11  C   UNL     1      -0.096   3.849   0.024  0.00  0.00    -0.013 A 
ATOM     12  C   UNL     1       1.147   3.167   0.008  0.00  0.00    -0.018 A 
ATOM     13  C   UNL     1       1.163   1.762   0.000  0.00  0.00    +0.008 A 
ATOM     14  C   UNL     1       2.340   3.910   0.000  0.00  0.00    +0.008 A 
ATOM     15  C   UNL     1       2.286   5.271   0.008  0.00  0.00    +0.001 A 
ATOM     16  C   UNL     1       1.064   5.940   0.023  0.00  0.00    +0.006 A 
ATOM     17  C   UNL     1      -0.111   5.253   0.032  0.00  0.00    -0.023 A 
ENDBRANCH   7  17
ENDBRANCH   1   7
BRANCH   4  18
ATOM     18  C   UNL     1      -4.883   7.327   3.210  0.00  0.00    +0.152 C 
BRANCH  18  19
ATOM     19  C   UNL     1      -5.203   7.207   4.702  0.00  0.00    +0.213 C 
ATOM     20  C   UNL     1      -6.576   7.836   5.011  0.00  0.00    +0.163 C 
ATOM     21  N   UNL     1      -6.255   8.925   5.950  0.00  0.00    -0.234 N 
ATOM     22  C   UNL     1      -4.932   8.940   6.163  0.00  0.00    +0.408 C 
ATOM     23  O   UNL     1      -4.388   9.738   6.901  0.00  0.00    -0.226 OA
ATOM     24  O   UNL     1      -4.265   7.995   5.490  0.00  0.00    -0.444 OA
BRANCH  21  25
ATOM     25  C   UNL     1      -7.183   9.801   6.528  0.00  0.00    +0.040 A 
ATOM     26  C   UNL     1      -8.532   9.687   6.221  0.00  0.00    +0.026 A 
ATOM     27  C   UNL     1      -9.446  10.548   6.796  0.00  0.00    +0.040 A 
ATOM     28  C   UNL     1      -9.016  11.532   7.670  0.00  0.00    +0.124 A 
ATOM     29  C   UNL     1      -7.670  11.652   7.973  0.00  0.00    +0.040 A 
ATOM     30  C   UNL     1      -6.754  10.789   7.404  0.00  0.00    +0.026 A 
ATOM     31  F   UNL     1      -9.911  12.377   8.228  0.00  0.00    -0.205 F 
ENDBRANCH  21  25
ENDBRANCH  18  19
ENDBRANCH   4  18
TORSDOF 5
