REMARK  Name = ZINC09912518
REMARK  10 active torsions:
REMARK  status: ('A' for Active; 'I' for Inactive)
REMARK    1  A    between atoms: C_1  and  C_2
REMARK    2  A    between atoms: C_2  and  O_3
REMARK    3  A    between atoms: O_3  and  C_4
REMARK    4  A    between atoms: C_7  and  S_10
REMARK    5  A    between atoms: S_10  and  N_13
REMARK    6  A    between atoms: N_13  and  C_14
REMARK    7  A    between atoms: C_14  and  C_15
REMARK    8  A    between atoms: C_15  and  C_16
REMARK    9  A    between atoms: N_18  and  N_19
REMARK   10  A    between atoms: C_20  and  C_22
REMARK                            x       y       z     vdW  Elec       q    Type
REMARK                         _______ _______ _______ _____ _____    ______ ____
ROOT
ATOM      1  C   UNL     1       9.397   1.985  -0.078  0.00  0.00    +0.115 C 
ENDROOT
BRANCH   1   2
ATOM      2  N   UNL     1      10.802   1.570  -0.094  0.00  0.00    -0.189 NA
ATOM      3  H   UNL     1      11.039   0.653   0.116  0.00  0.00    +0.148 HD
BRANCH   2   4
ATOM      4  S   UNL     1      11.985   2.666  -0.470  0.00  0.00    +0.058 S 
ATOM      5  O   UNL     1      13.223   1.976  -0.375  0.00  0.00    -0.153 OA
ATOM      6  O   UNL     1      11.567   3.321  -1.660  0.00  0.00    -0.153 OA
BRANCH   4  10
ATOM      7  C   UNL     1      11.995   5.800   2.798  0.00  0.00    +0.121 A 
ATOM      8  C   UNL     1      12.792   4.671   2.916  0.00  0.00    +0.047 A 
ATOM      9  C   UNL     1      12.787   3.716   1.917  0.00  0.00    +0.032 A 
ATOM     10  C   UNL     1      11.989   3.885   0.801  0.00  0.00    +0.105 A 
ATOM     11  C   UNL     1      11.198   5.013   0.678  0.00  0.00    +0.032 A 
ATOM     12  C   UNL     1      11.195   5.968   1.677  0.00  0.00    +0.047 A 
BRANCH   7  13
ATOM     13  O   UNL     1      11.998   6.741   3.779  0.00  0.00    -0.492 OA
BRANCH  13  15
ATOM     14  C   UNL     1      11.289   8.819   4.788  0.00  0.00    +0.048 C 
ATOM     15  C   UNL     1      11.153   7.878   3.590  0.00  0.00    +0.225 C 
ENDBRANCH  13  15
ENDBRANCH   7  13
ENDBRANCH   4  10
ENDBRANCH   2   4
ENDBRANCH   1   2
BRANCH   1  16
ATOM     16  C   UNL     1       8.499   0.746  -0.076  0.00  0.00    +0.114 C 
BRANCH  16  17
ATOM     17  C   UNL     1       7.054   1.173  -0.060  0.00  0.00    +0.230 C 
ATOM     18  O   UNL     1       6.770   2.352  -0.050  0.00  0.00    -0.274 OA
ATOM     19  N   UNL     1       6.077   0.244  -0.055  0.00  0.00    -0.234 N 
ATOM     20  H   UNL     1       6.304  -0.699  -0.063  0.00  0.00    +0.173 HD
BRANCH  19  21
ATOM     21  N   UNL     1       4.734   0.641  -0.040  0.00  0.00    -0.230 N 
ATOM     22  C   UNL     1       3.757  -0.287  -0.036  0.00  0.00    +0.267 C 
ATOM     23  O   UNL     1       4.042  -1.470  -0.045  0.00  0.00    -0.268 OA
ATOM     24  H   UNL     1       4.506   1.584  -0.033  0.00  0.00    +0.173 HD
BRANCH  22  25
ATOM     25  C   UNL     1       2.352   0.128  -0.020  0.00  0.00    +0.076 A 
ATOM     26  C   UNL     1       1.209  -0.657  -0.013  0.00  0.00    +0.022 A 
ATOM     27  C   UNL     1       0.002  -0.004   0.002  0.00  0.00    +0.024 A 
ATOM     28  C   UNL     1      -0.016   1.356   0.009  0.00  0.00    +0.056 A 
ATOM     29  S   UNL     1       1.666   1.775  -0.004  0.00  0.00    -0.077 S 
ATOM     30 BR   UNL     1      -1.514   2.510   0.023  0.00  0.00    -0.043 Br
ENDBRANCH  22  25
ENDBRANCH  19  21
ENDBRANCH  16  17
ENDBRANCH   1  16
TORSDOF 9
