REMARK  Name = ZINC56530517
REMARK  4 active torsions:
REMARK  status: ('A' for Active; 'I' for Inactive)
REMARK    1  A    between atoms: C_1  and  C_2
REMARK    2  A    between atoms: C_5  and  N_22
REMARK    3  A    between atoms: C_7  and  N_8
REMARK    4  A    between atoms: C_15  and  C_17
REMARK                            x       y       z     vdW  Elec       q    Type
REMARK                         _______ _______ _______ _____ _____    ______ ____
ROOT
ATOM      1  N   UNL     1      -0.241   0.330   2.489  0.00  0.00    -0.269 N 
ATOM      2  C   UNL     1      -0.245  -0.456   3.584  0.00  0.00    +0.307 C 
ATOM      3  O   UNL     1      -0.246  -1.666   3.463  0.00  0.00    -0.252 OA
ATOM      4  N   UNL     1      -0.247   0.098   4.812  0.00  0.00    -0.282 N 
ATOM      5  C   UNL     1      -0.355   1.539   5.104  0.00  0.00    +0.110 C 
ATOM      6  C   UNL     1       0.295   1.711   6.500  0.00  0.00    +0.021 C 
ATOM      7  C   UNL     1      -0.161   0.413   7.217  0.00  0.00    +0.024 C 
ATOM      8  C   UNL     1      -0.148  -0.634   6.083  0.00  0.00    +0.081 C 
ATOM      9  H   UNL     1      -0.172   1.293   2.584  0.00  0.00    +0.156 HD
ENDROOT
BRANCH   1  16
ATOM     10  C   UNL     1      -1.641   1.767   0.471  0.00  0.00    +0.045 C 
ATOM     11  C   UNL     1      -1.010   0.424   0.202  0.00  0.00    -0.029 A 
ATOM     12  C   UNL     1      -1.098  -0.141  -1.056  0.00  0.00    +0.007 A 
ATOM     13  C   UNL     1      -0.519  -1.372  -1.303  0.00  0.00    +0.033 A 
ATOM     14  C   UNL     1       0.148  -2.041  -0.294  0.00  0.00    +0.128 A 
ATOM     15  C   UNL     1       0.239  -1.482   0.965  0.00  0.00    +0.056 A 
ATOM     16  C   UNL     1      -0.336  -0.243   1.216  0.00  0.00    +0.040 A 
BRANCH  14  17
ATOM     17  N   UNL     1       0.766  -3.359  -0.563  0.00  0.00    +0.056 N 
ATOM     18  O   UNL     1       0.687  -3.850  -1.665  0.00  0.00    -0.126 OA
ATOM     19  O   UNL     1       1.350  -3.945   0.319  0.00  0.00    -0.126 OA
ENDBRANCH  14  17
ENDBRANCH   1  16
BRANCH   8  20
ATOM     20  C   UNL     1      -1.340  -1.581   6.232  0.00  0.00    +0.010 C 
ATOM     21  C   UNL     1      -1.348  -2.225   7.641  0.00  0.00    +0.005 C 
ATOM     22  C   UNL     1      -2.835  -2.616   7.829  0.00  0.00    +0.000 C 
ATOM     23  C   UNL     1      -3.616  -1.453   7.183  0.00  0.00    +0.000 C 
ATOM     24  C   UNL     1      -2.666  -0.795   6.168  0.00  0.00    +0.005 C 
ENDBRANCH   8  20
TORSDOF 3
