REMARK  Name = ZINC39964322
REMARK  7 active torsions:
REMARK  status: ('A' for Active; 'I' for Inactive)
REMARK    1  A    between atoms: C_1  and  C_2
REMARK    2  A    between atoms: C_5  and  C_19
REMARK    3  A    between atoms: C_6  and  C_18
REMARK    4  A    between atoms: N_8  and  N_9
REMARK    5  A    between atoms: C_10  and  C_12
REMARK    6  A    between atoms: C_20  and  C_21
REMARK    7  A    between atoms: C_20  and  C_23
REMARK                            x       y       z     vdW  Elec       q    Type
REMARK                         _______ _______ _______ _____ _____    ______ ____
ROOT
ATOM      1  C   UNL     1       0.155   2.082  -0.933  0.00  0.00    +0.030 C 
ATOM      2  C   UNL     1      -0.030   0.566  -0.844  0.00  0.00    +0.097 C 
ATOM      3  C   UNL     1       0.887  -0.132  -1.822  0.00  0.00    -0.002 C 
ATOM      4  C   UNL     1       1.939  -0.618  -1.161  0.00  0.00    -0.030 C 
ATOM      5  C   UNL     1       1.801  -0.280   0.305  0.00  0.00    +0.103 C 
ATOM      6  N   UNL     1       0.374   0.079   0.496  0.00  0.00    -0.213 NA
ATOM      7  C   UNL     1       2.163  -1.493   1.165  0.00  0.00    +0.031 C 
ENDROOT
BRANCH   6   8
ATOM      8  N   UNL     1      -0.361  -1.013   0.862  0.00  0.00    -0.243 N 
ATOM      9  C   UNL     1      -1.122  -0.971   1.974  0.00  0.00    +0.258 C 
ATOM     10  O   UNL     1      -1.154   0.038   2.651  0.00  0.00    -0.269 OA
ATOM     11  H   UNL     1      -0.336  -1.818   0.322  0.00  0.00    +0.170 HD
BRANCH   9  12
ATOM     12  C   UNL     1      -1.918  -2.153   2.370  0.00  0.00    +0.038 A 
ATOM     13  C   UNL     1      -1.879  -3.315   1.597  0.00  0.00    +0.013 A 
ATOM     14  C   UNL     1      -2.624  -4.414   1.973  0.00  0.00    +0.001 A 
ATOM     15  C   UNL     1      -3.408  -4.366   3.112  0.00  0.00    +0.000 A 
ATOM     16  C   UNL     1      -3.451  -3.217   3.881  0.00  0.00    +0.001 A 
ATOM     17  C   UNL     1      -2.707  -2.113   3.521  0.00  0.00    +0.013 A 
ENDBRANCH   9  12
ENDBRANCH   6   8
BRANCH   4  18
ATOM     18  C   UNL     1       3.050  -1.360  -1.761  0.00  0.00    +0.023 C 
ATOM     19  C   UNL     1       2.805  -2.472  -2.489  0.00  0.00    +0.072 C 
BRANCH  19  20
ATOM     20  C   UNL     1       1.406  -3.028  -2.568  0.00  0.00    +0.216 C 
ATOM     21  N   UNL     1       1.424  -4.475  -2.319  0.00  0.00    -0.359 N 
ATOM     22  C   UNL     1       0.959  -5.060  -3.385  0.00  0.00    +0.060 A 
ATOM     23  C   UNL     1       0.737  -6.470  -3.733  0.00  0.00    +0.027 A 
ATOM     24  C   UNL     1       0.230  -6.785  -4.942  0.00  0.00    +0.002 A 
ATOM     25  C   UNL     1      -0.102  -5.811  -5.901  0.00  0.00    +0.002 A 
ATOM     26  C   UNL     1       0.063  -4.491  -5.684  0.00  0.00    +0.027 A 
ATOM     27  C   UNL     1       0.608  -4.030  -4.400  0.00  0.00    +0.060 A 
ATOM     28  N   UNL     1       0.869  -2.847  -3.923  0.00  0.00    -0.359 N 
ATOM     29  H   UNL     1       1.726  -4.914  -1.509  0.00  0.00    +0.162 HD
ATOM     30  H   UNL     1       0.733  -2.002  -4.378  0.00  0.00    +0.162 HD
ENDBRANCH  19  20
BRANCH  19  31
ATOM     31  C   UNL     1       3.874  -3.123  -3.184  0.00  0.00    +0.099 C 
ATOM     32  N   UNL     1       4.723  -3.639  -3.735  0.00  0.00    -0.191 NA
ENDBRANCH  19  31
ENDBRANCH   4  18
TORSDOF 5
