REMARK  Name = ZINC15524929
REMARK  6 active torsions:
REMARK  status: ('A' for Active; 'I' for Inactive)
REMARK    1  A    between atoms: C_3  and  C_8
REMARK    2  A    between atoms: C_9  and  C_10
REMARK    3  A    between atoms: N_12  and  N_13
REMARK    4  A    between atoms: C_14  and  C_16
REMARK    5  A    between atoms: C_20  and  S_22
REMARK    6  A    between atoms: S_22  and  N_25
REMARK                            x       y       z     vdW  Elec       q    Type
REMARK                         _______ _______ _______ _____ _____    ______ ____
ROOT
ATOM      1  N   UNL     1      -1.191   1.869   0.018  0.00  0.00    -0.230 N 
ATOM      2  C   UNL     1      -0.014   1.211   0.009  0.00  0.00    +0.260 C 
ATOM      3  O   UNL     1       0.002  -0.004   0.002  0.00  0.00    -0.269 OA
ATOM      4  H   UNL     1      -1.204   2.839   0.023  0.00  0.00    +0.173 HD
ENDROOT
BRANCH   2   5
ATOM      5  C   UNL     1       1.256   1.968   0.001  0.00  0.00    +0.040 A 
ATOM      6  C   UNL     1       1.240   3.364   0.003  0.00  0.00    +0.013 A 
ATOM      7  C   UNL     1       2.429   4.064   0.000  0.00  0.00    +0.003 A 
ATOM      8  C   UNL     1       3.635   3.385  -0.014  0.00  0.00    +0.028 A 
ATOM      9  C   UNL     1       3.657   2.002  -0.022  0.00  0.00    +0.106 A 
ATOM     10  C   UNL     1       2.475   1.290  -0.015  0.00  0.00    +0.041 A 
BRANCH   9  11
ATOM     11  S   UNL     1       5.198   1.148  -0.042  0.00  0.00    +0.061 S 
ATOM     12  O   UNL     1       6.162   2.037   0.505  0.00  0.00    -0.153 OA
ATOM     13  O   UNL     1       4.955  -0.142   0.504  0.00  0.00    -0.153 OA
BRANCH  11  14
ATOM     14  N   UNL     1       5.611   0.919  -1.629  0.00  0.00    -0.172 NA
ATOM     15  C   UNL     1       5.193  -0.291  -2.354  0.00  0.00    +0.137 C 
ATOM     16  C   UNL     1       4.537   0.143  -3.674  0.00  0.00    +0.177 C 
ATOM     17  O   UNL     1       5.421   1.025  -4.370  0.00  0.00    -0.377 OA
ATOM     18  C   UNL     1       5.700   2.243  -3.674  0.00  0.00    +0.177 C 
ATOM     19  C   UNL     1       6.411   1.918  -2.355  0.00  0.00    +0.137 C 
ENDBRANCH  11  14
ENDBRANCH   9  11
ENDBRANCH   2   5
BRANCH   1  22
ATOM     20  C   UNL     1      -3.571   1.810   0.029  0.00  0.00    +0.253 C 
ATOM     21  O   UNL     1      -3.587   3.027   0.035  0.00  0.00    -0.269 OA
ATOM     22  N   UNL     1      -2.394   1.152   0.020  0.00  0.00    -0.231 N 
ATOM     23  H   UNL     1      -2.381   0.182   0.014  0.00  0.00    +0.173 HD
BRANCH  20  25
ATOM     24  C   UNL     1      -6.005   1.719   0.040  0.00  0.00    +0.013 C 
ATOM     25  C   UNL     1      -4.829   1.061   0.031  0.00  0.00    +0.069 C 
BRANCH  24  28
ATOM     26  C   UNL     1      -9.673   0.932   0.053  0.00  0.00    +0.002 A 
ATOM     27  C   UNL     1      -8.492   1.645   0.051  0.00  0.00    +0.008 A 
ATOM     28  C   UNL     1      -7.270   0.966   0.042  0.00  0.00    -0.024 A 
ATOM     29  C   UNL     1      -7.255  -0.432   0.028  0.00  0.00    +0.023 A 
ATOM     30  C   UNL     1      -8.444  -1.131   0.036  0.00  0.00    +0.018 A 
ATOM     31  C   UNL     1      -9.651  -0.451   0.045  0.00  0.00    +0.015 A 
ATOM     32 BR   UNL     1      -8.428  -3.022   0.025  0.00  0.00    -0.050 Br
ENDBRANCH  24  28
ENDBRANCH  20  25
ENDBRANCH   1  22
TORSDOF 6
