REMARK  Name = ZINC14754174
REMARK  12 active torsions:
REMARK  status: ('A' for Active; 'I' for Inactive)
REMARK    1  A    between atoms: C_1  and  C_2
REMARK    2  A    between atoms: C_3  and  C_8
REMARK    3  A    between atoms: C_8  and  N_9
REMARK    4  A    between atoms: N_17  and  C_26
REMARK    5  A    between atoms: N_20  and  C_21
REMARK    6  A    between atoms: C_21  and  C_22
REMARK    7  A    between atoms: C_22  and  C_23
REMARK    8  A    between atoms: C_23  and  C_24
REMARK    9  A    between atoms: C_23  and  C_25
REMARK   10  A    between atoms: C_26  and  C_27
REMARK   11  A    between atoms: C_27  and  C_28
REMARK   12  A    between atoms: C_28  and  C_29
REMARK                            x       y       z     vdW  Elec       q    Type
REMARK                         _______ _______ _______ _____ _____    ______ ____
ROOT
ATOM      1  N   UNL     1       1.365   0.106  -3.107  0.00  0.00    -0.297 NA
ATOM      2  C   UNL     1       1.011  -0.817  -2.020  0.00  0.00    +0.087 C 
ATOM      3  C   UNL     1       1.039  -2.256  -2.543  0.00  0.00    +0.051 C 
ATOM      4  C   UNL     1       2.428  -2.567  -3.092  0.00  0.00    +0.118 C 
ATOM      5  C   UNL     1       2.812  -1.559  -4.171  0.00  0.00    +0.051 C 
ATOM      6  C   UNL     1       2.727  -0.142  -3.595  0.00  0.00    +0.087 C 
ATOM      7  C   UNL     1       2.476  -3.973  -3.642  0.00  0.00    +0.247 C 
ATOM      8  O   UNL     1       1.819  -4.429  -4.553  0.00  0.00    -0.273 OA
ATOM      9  N   UNL     1       3.406  -4.615  -2.904  0.00  0.00    -0.224 N 
ATOM     10  C   UNL     1       3.941  -3.811  -1.977  0.00  0.00    +0.312 C 
ATOM     11  O   UNL     1       4.800  -4.162  -1.192  0.00  0.00    -0.252 OA
ATOM     12  N   UNL     1       3.421  -2.569  -2.012  0.00  0.00    -0.271 N 
ENDROOT
BRANCH   1  13
ATOM     13  C   UNL     1       1.203   1.503  -2.684  0.00  0.00    +0.139 C 
BRANCH  13  16
ATOM     14  C   UNL     1      -1.115   1.886  -4.753  0.00  0.00    +0.065 C 
ATOM     15  C   UNL     1      -1.246   1.933  -3.252  0.00  0.00    +0.035 A 
ATOM     16  C   UNL     1      -0.246   1.768  -2.365  0.00  0.00    +0.050 A 
ATOM     17  N   UNL     1      -0.798   1.886  -1.119  0.00  0.00    -0.349 N 
ATOM     18  H   UNL     1      -0.330   1.816  -0.272  0.00  0.00    +0.166 HD
ATOM     19  C   UNL     1      -2.118   2.120  -1.288  0.00  0.00    +0.171 A 
ATOM     20  N   UNL     1      -2.377   2.151  -2.566  0.00  0.00    -0.350 N 
ATOM     21  H   UNL     1      -3.251   2.305  -2.958  0.00  0.00    +0.166 HD
ENDBRANCH  13  16
ENDBRANCH   1  13
BRANCH  12  22
ATOM     22  C   UNL     1       3.776  -1.444  -1.143  0.00  0.00    +0.110 C 
BRANCH  22  23
ATOM     23  C   UNL     1       3.353  -1.756   0.294  0.00  0.00    +0.022 C 
BRANCH  23  24
ATOM     24  C   UNL     1       3.599  -0.530   1.175  0.00  0.00    -0.016 C 
ATOM     25  C   UNL     1       3.062  -0.797   2.583  0.00  0.00    +0.007 C 
ATOM     26  C   UNL     1       5.102  -0.248   1.248  0.00  0.00    +0.007 C 
ENDBRANCH  23  24
ENDBRANCH  22  23
ENDBRANCH  12  22
BRANCH   9  27
ATOM     27  C   UNL     1       3.783  -6.018  -3.094  0.00  0.00    +0.118 C 
BRANCH  27  28
ATOM     28  C   UNL     1       4.935  -6.106  -4.097  0.00  0.00    +0.024 C 
BRANCH  28  29
ATOM     29  C   UNL     1       5.329  -7.571  -4.295  0.00  0.00    +0.037 C 
BRANCH  29  30
ATOM     30  C   UNL     1       6.463  -7.657  -5.283  0.00  0.00    -0.044 A 
ATOM     31  C   UNL     1       6.214  -7.781  -6.641  0.00  0.00    +0.023 A 
ATOM     32  C   UNL     1       7.280  -7.857  -7.518  0.00  0.00    +0.111 A 
ATOM     33  N   UNL     1       8.521  -7.813  -7.075  0.00  0.00    -0.263 NA
ATOM     34  C   UNL     1       8.796  -7.695  -5.791  0.00  0.00    +0.111 A 
ATOM     35  C   UNL     1       7.781  -7.607  -4.856  0.00  0.00    +0.023 A 
ENDBRANCH  29  30
ENDBRANCH  28  29
ENDBRANCH  27  28
ENDBRANCH   9  27
TORSDOF 9
