REMARK  Name = ZINC19351881
REMARK  12 active torsions:
REMARK  status: ('A' for Active; 'I' for Inactive)
REMARK    1  A    between atoms: C_1  and  C_2
REMARK    2  A    between atoms: C_2  and  O_3
REMARK    3  A    between atoms: O_3  and  C_4
REMARK    4  A    between atoms: C_4  and  C_6
REMARK    5  A    between atoms: C_7  and  C_19
REMARK    6  A    between atoms: C_12  and  C_14
REMARK    7  A    between atoms: C_19  and  O_20
REMARK    8  A    between atoms: O_20  and  C_21
REMARK    9  A    between atoms: C_21  and  C_23
REMARK   10  A    between atoms: C_23  and  C_24
REMARK   11  A    between atoms: C_24  and  C_25
REMARK   12  A    between atoms: C_25  and  C_27
REMARK                            x       y       z     vdW  Elec       q    Type
REMARK                         _______ _______ _______ _____ _____    ______ ____
ROOT
ATOM      1  C   UNL     1       1.210   1.929  -0.109  0.00  0.00    +0.084 C 
ATOM      2  C   UNL     1       2.391   1.304   0.087  0.00  0.00    +0.061 C 
ATOM      3  N   UNL     1       3.554   2.011   0.190  0.00  0.00    -0.269 N 
ATOM      4  C   UNL     1       3.621   3.346   0.108  0.00  0.00    +0.305 C 
ATOM      5  O   UNL     1       4.704   3.888   0.212  0.00  0.00    -0.252 OA
ATOM      6  N   UNL     1       2.527   4.109  -0.085  0.00  0.00    -0.285 N 
ATOM      7  C   UNL     1       1.221   3.440  -0.216  0.00  0.00    +0.179 C 
ATOM      8  H   UNL     1       4.506   1.484   0.348  0.00  0.00    +0.156 HD
ATOM      9  H   UNL     1       2.592   5.205  -0.146  0.00  0.00    +0.151 HD
ENDROOT
BRANCH   7  10
ATOM     10  C   UNL     1       0.315   3.989   0.856  0.00  0.00    +0.130 A 
ATOM     11  C   UNL     1      -0.951   4.409   0.676  0.00  0.00    +0.047 A 
ATOM     12  C   UNL     1      -1.422   4.839   1.938  0.00  0.00    +0.041 A 
ATOM     13  C   UNL     1      -0.416   4.656   2.813  0.00  0.00    +0.195 A 
ATOM     14  O   UNL     1       0.631   4.135   2.153  0.00  0.00    -0.466 OA
ENDBRANCH   7  10
BRANCH   1  15
ATOM     15  C   UNL     1       0.004   1.197  -0.216  0.00  0.00    +0.339 C 
ATOM     16  O   UNL     1      -0.475   0.971  -1.312  0.00  0.00    -0.245 OA
BRANCH  15  17
ATOM     17  O   UNL     1      -0.618   0.754   0.896  0.00  0.00    -0.462 OA
BRANCH  17  19
ATOM     18  C   UNL     1      -2.389  -0.390   2.077  0.00  0.00    +0.048 C 
ATOM     19  C   UNL     1      -1.834   0.027   0.714  0.00  0.00    +0.229 C 
ENDBRANCH  17  19
ENDBRANCH  15  17
ENDBRANCH   1  15
BRANCH   2  20
ATOM     20  C   UNL     1       2.425  -0.199   0.194  0.00  0.00    +0.283 C 
BRANCH  20  21
ATOM     21  O   UNL     1       3.162  -0.747  -0.931  0.00  0.00    -0.459 OA
BRANCH  21  22
ATOM     22  C   UNL     1       3.286  -2.083  -0.986  0.00  0.00    +0.308 C 
ATOM     23  O   UNL     1       2.795  -2.771  -0.123  0.00  0.00    -0.251 OA
BRANCH  22  24
ATOM     24  C   UNL     1       4.037  -2.724  -2.125  0.00  0.00    +0.128 C 
BRANCH  24  25
ATOM     25  C   UNL     1       4.029  -4.243  -1.949  0.00  0.00    +0.091 C 
BRANCH  25  26
ATOM     26  C   UNL     1       4.780  -4.884  -3.087  0.00  0.00    +0.170 C 
ATOM     27  O   UNL     1       5.274  -4.193  -3.955  0.00  0.00    -0.291 OA
BRANCH  26  28
ATOM     28  C   UNL     1       4.910  -6.288  -3.145  0.00  0.00    +0.056 A 
ATOM     29  C   UNL     1       5.551  -7.071  -4.101  0.00  0.00    +0.020 A 
ATOM     30  C   UNL     1       5.530  -8.427  -3.910  0.00  0.00    +0.028 A 
ATOM     31  C   UNL     1       4.887  -8.936  -2.822  0.00  0.00    +0.079 A 
ATOM     32  S   UNL     1       4.290  -7.522  -2.016  0.00  0.00    -0.074 S 
ATOM     33 CL   UNL     1       4.709 -10.599  -2.355  0.00  0.00    -0.076 Cl
ENDBRANCH  26  28
ENDBRANCH  25  26
ENDBRANCH  24  25
ENDBRANCH  22  24
ENDBRANCH  21  22
ENDBRANCH  20  21
ENDBRANCH   2  20
TORSDOF 11
