REMARK  Name = ZINC39746424
REMARK  9 active torsions:
REMARK  status: ('A' for Active; 'I' for Inactive)
REMARK    1  A    between atoms: C_1  and  C_2
REMARK    2  A    between atoms: C_2  and  C_3
REMARK    3  A    between atoms: C_2  and  C_4
REMARK    4  A    between atoms: C_4  and  C_6
REMARK    5  A    between atoms: C_4  and  C_13
REMARK    6  A    between atoms: C_13  and  O_15
REMARK    7  A    between atoms: O_15  and  C_16
REMARK    8  A    between atoms: C_16  and  C_17
REMARK    9  A    between atoms: C_17  and  C_19
REMARK                            x       y       z     vdW  Elec       q    Type
REMARK                         _______ _______ _______ _____ _____    ______ ____
ROOT
ATOM      1  C   UNL     1      -0.832  -4.136   0.930  0.00  0.00    +0.311 C 
ENDROOT
BRANCH   1   2
ATOM      2  C   UNL     1      -0.116  -4.709   2.126  0.00  0.00    +0.200 C 
ATOM      3  O   UNL     1       0.363  -3.968   2.958  0.00  0.00    -0.288 OA
BRANCH   2   4
ATOM      4  C   UNL     1       0.002  -6.166   2.284  0.00  0.00    +0.023 A 
ATOM      5  C   UNL     1      -0.576  -7.053   1.268  0.00  0.00    +0.013 A 
ATOM      6  C   UNL     1      -0.497  -8.398   1.363  0.00  0.00    +0.026 A 
ATOM      7  C   UNL     1       0.154  -9.002   2.459  0.00  0.00    +0.056 A 
ATOM      8  N   UNL     1       0.386 -10.248   2.819  0.00  0.00    -0.268 N 
ATOM      9  C   UNL     1       1.074 -10.235   3.997  0.00  0.00    +0.308 C 
ATOM     10  O   UNL     1       1.444 -11.222   4.599  0.00  0.00    -0.252 OA
ATOM     11  N   UNL     1       1.288  -8.931   4.402  0.00  0.00    -0.268 N 
ATOM     12  C   UNL     1       0.756  -8.133   3.516  0.00  0.00    +0.057 A 
ATOM     13  C   UNL     1       0.653  -6.676   3.373  0.00  0.00    +0.036 A 
ATOM     14  H   UNL     1       1.753  -8.655   5.207  0.00  0.00    +0.156 HD
ATOM     15  H   UNL     1       0.113 -11.040   2.329  0.00  0.00    +0.156 HD
ENDBRANCH   2   4
ENDBRANCH   1   2
BRANCH   1  16
ATOM     16  O   UNL     1      -0.813  -2.709   1.002  0.00  0.00    -0.456 OA
BRANCH  16  17
ATOM     17  C   UNL     1      -1.413  -2.041   0.005  0.00  0.00    +0.315 C 
ATOM     18  O   UNL     1      -1.936  -2.647  -0.900  0.00  0.00    -0.250 OA
BRANCH  17  19
ATOM     19  C   UNL     1      -1.433  -0.534   0.013  0.00  0.00    +0.130 C 
BRANCH  19  20
ATOM     20  C   UNL     1      -2.162  -0.034  -1.208  0.00  0.00    -0.033 A 
ATOM     21  C   UNL     1      -1.700  -0.360  -2.470  0.00  0.00    +0.006 A 
ATOM     22  C   UNL     1      -2.368   0.098  -3.590  0.00  0.00    +0.020 A 
ATOM     23  C   UNL     1      -3.499   0.881  -3.448  0.00  0.00    +0.041 A 
ATOM     24  C   UNL     1      -3.961   1.207  -2.185  0.00  0.00    +0.020 A 
ATOM     25  C   UNL     1      -3.296   0.744  -1.066  0.00  0.00    +0.006 A 
ATOM     26 CL   UNL     1      -4.339   1.457  -4.855  0.00  0.00    -0.084 Cl
ENDBRANCH  19  20
BRANCH  19  28
ATOM     27  C   UNL     1      -0.019   1.526   0.010  0.00  0.00    +0.008 C 
ATOM     28  C   UNL     1       0.002  -0.004   0.002  0.00  0.00    +0.001 C 
ATOM     29  C   UNL     1       0.742  -0.511   1.242  0.00  0.00    +0.008 C 
ENDBRANCH  19  28
ENDBRANCH  17  19
ENDBRANCH  16  17
ENDBRANCH   1  16
TORSDOF 7
