REMARK  Name = ZINC40811596
REMARK  7 active torsions:
REMARK  status: ('A' for Active; 'I' for Inactive)
REMARK    1  A    between atoms: C_1  and  C_2
REMARK    2  A    between atoms: C_6  and  C_7
REMARK    3  A    between atoms: N_9  and  C_10
REMARK    4  A    between atoms: N_9  and  C_11
REMARK    5  A    between atoms: N_14  and  C_17
REMARK    6  A    between atoms: N_22  and  N_23
REMARK    7  A    between atoms: C_24  and  C_26
REMARK                            x       y       z     vdW  Elec       q    Type
REMARK                         _______ _______ _______ _____ _____    ______ ____
ROOT
ATOM      1  C   UNL     1       0.653   1.486   0.072  0.00  0.00    +0.048 C 
ATOM      2  C   UNL     1       0.699  -0.020   0.078  0.00  0.00    +0.009 A 
ATOM      3  C   UNL     1       0.936  -0.858  -1.018  0.00  0.00    +0.042 A 
ATOM      4  C   UNL     1       0.888  -2.155  -0.564  0.00  0.00    +0.115 A 
ATOM      5  O   UNL     1       0.638  -2.124   0.743  0.00  0.00    -0.454 OA
ATOM      6  C   UNL     1       0.524  -0.842   1.157  0.00  0.00    +0.193 A 
ATOM      7  C   UNL     1       1.092  -3.348  -1.464  0.00  0.00    +0.075 C 
ATOM      8  C   UNL     1       0.836  -2.938  -2.916  0.00  0.00    +0.014 C 
ATOM      9  C   UNL     1       1.673  -1.709  -3.287  0.00  0.00    +0.058 C 
ATOM     10  C   UNL     1       1.202  -0.538  -2.438  0.00  0.00    +0.070 C 
ATOM     11  N   UNL     1       1.044   0.655  -2.924  0.00  0.00    -0.184 NA
ENDROOT
BRANCH   6  12
ATOM     12  C   UNL     1       0.254  -0.406   2.531  0.00  0.00    +0.282 C 
ATOM     13  O   UNL     1       0.302   0.777   2.815  0.00  0.00    -0.267 OA
ATOM     14  N   UNL     1      -0.048  -1.314   3.480  0.00  0.00    -0.295 N 
ATOM     15  C   UNL     1      -0.031  -2.743   3.157  0.00  0.00    +0.132 C 
BRANCH  14  16
ATOM     16  C   UNL     1      -0.392  -0.874   4.834  0.00  0.00    +0.073 C 
ATOM     17  C   UNL     1      -1.802  -1.355   5.186  0.00  0.00    +0.004 C 
ATOM     18  C   UNL     1      -2.124  -0.960   6.629  0.00  0.00    -0.077 C 
ATOM     19  N   UNL     1      -1.153  -1.579   7.538  0.00  0.00    +0.378 N 
ATOM     20  C   UNL     1       0.193  -1.067   7.253  0.00  0.00    -0.077 C 
ATOM     21  C   UNL     1       0.604  -1.466   5.834  0.00  0.00    +0.004 C 
ATOM     22  C   UNL     1      -1.512  -1.261   8.927  0.00  0.00    -0.096 C 
ATOM     23  H   UNL     1      -1.165  -2.580   7.411  0.00  0.00    -0.082 HD
ENDBRANCH  14  16
ENDBRANCH   6  12
BRANCH  11  24
ATOM     24  N   UNL     1       1.311   0.901  -4.277  0.00  0.00    -0.203 N 
ATOM     25  C   UNL     1       1.147   2.140  -4.782  0.00  0.00    +0.263 C 
ATOM     26  O   UNL     1       0.767   3.044  -4.062  0.00  0.00    -0.268 OA
ATOM     27  H   UNL     1       1.613   0.180  -4.851  0.00  0.00    +0.178 HD
BRANCH  25  28
ATOM     28  C   UNL     1       1.428   2.400  -6.208  0.00  0.00    +0.038 A 
ATOM     29  C   UNL     1       1.859   1.362  -7.038  0.00  0.00    +0.014 A 
ATOM     30  C   UNL     1       2.119   1.611  -8.369  0.00  0.00    +0.021 A 
ATOM     31  C   UNL     1       1.955   2.886  -8.884  0.00  0.00    +0.041 A 
ATOM     32  C   UNL     1       1.528   3.920  -8.066  0.00  0.00    +0.021 A 
ATOM     33  C   UNL     1       1.259   3.682  -6.734  0.00  0.00    +0.014 A 
ATOM     34 CL   UNL     1       2.285   3.191 -10.560  0.00  0.00    -0.084 Cl
ENDBRANCH  25  28
ENDBRANCH  11  24
TORSDOF 4
