REMARK  Name = ZINC59402719
REMARK  12 active torsions:
REMARK  status: ('A' for Active; 'I' for Inactive)
REMARK    1  A    between atoms: C_1  and  C_2
REMARK    2  A    between atoms: C_5  and  C_32
REMARK    3  A    between atoms: N_13  and  C_14
REMARK    4  A    between atoms: C_14  and  C_15
REMARK    5  A    between atoms: N_17  and  C_18
REMARK    6  A    between atoms: C_18  and  C_20
REMARK    7  A    between atoms: C_18  and  C_29
REMARK    8  A    between atoms: C_23  and  C_26
REMARK    9  A    between atoms: C_26  and  C_27
REMARK   10  A    between atoms: C_26  and  C_28
REMARK   11  A    between atoms: C_29  and  C_30
REMARK   12  A    between atoms: C_29  and  C_31
REMARK                            x       y       z     vdW  Elec       q    Type
REMARK                         _______ _______ _______ _____ _____    ______ ____
ROOT
ATOM      1  C   UNL     1       0.852   0.821   1.991  0.00  0.00    +0.201 C 
ENDROOT
BRANCH   1  12
ATOM      2  C   UNL     1      -0.454   1.522  -0.340  0.00  0.00    +0.028 C 
ATOM      3  C   UNL     1      -0.211   0.020  -0.182  0.00  0.00    +0.072 C 
ATOM      4  C   UNL     1       0.515  -0.523  -1.420  0.00  0.00    +0.039 C 
ATOM      5  C   UNL     1       0.684  -2.034  -1.270  0.00  0.00    +0.108 C 
ATOM      6  C   UNL     1       1.305  -2.366   0.062  0.00  0.00    -0.014 A 
ATOM      7  C   UNL     1       1.929  -3.591   0.224  0.00  0.00    +0.006 A 
ATOM      8  C   UNL     1       2.505  -3.926   1.433  0.00  0.00    +0.000 A 
ATOM      9  C   UNL     1       2.462  -3.038   2.493  0.00  0.00    +0.002 A 
ATOM     10  C   UNL     1       1.842  -1.814   2.340  0.00  0.00    +0.023 A 
ATOM     11  C   UNL     1       1.262  -1.474   1.122  0.00  0.00    +0.034 A 
ATOM     12  N   UNL     1       0.646  -0.226   0.986  0.00  0.00    -0.318 N 
BRANCH   5  13
ATOM     13  C   UNL     1       1.575  -2.547  -2.372  0.00  0.00    +0.218 C 
ATOM     14  O   UNL     1       2.507  -1.875  -2.760  0.00  0.00    -0.275 OA
ATOM     15  N   UNL     1       1.337  -3.753  -2.925  0.00  0.00    -0.329 N 
ATOM     16  H   UNL     1       0.551  -4.259  -2.665  0.00  0.00    +0.145 HD
ATOM     17  H   UNL     1       1.952  -4.115  -3.582  0.00  0.00    +0.145 HD
ENDBRANCH   5  13
ENDBRANCH   1  12
BRANCH   1  18
ATOM     18  C   UNL     1      -0.202   0.705   3.061  0.00  0.00    +0.231 C 
ATOM     19  O   UNL     1      -1.043  -0.166   2.992  0.00  0.00    -0.274 OA
ATOM     20  N   UNL     1      -0.210   1.569   4.096  0.00  0.00    -0.307 N 
ATOM     21  H   UNL     1       0.463   2.265   4.151  0.00  0.00    +0.149 HD
BRANCH  20  22
ATOM     22  C   UNL     1      -1.235   1.456   5.136  0.00  0.00    +0.106 C 
BRANCH  22  23
ATOM     23  C   UNL     1      -0.719   2.058   6.417  0.00  0.00    -0.027 A 
ATOM     24  C   UNL     1       0.020   3.226   6.383  0.00  0.00    +0.006 A 
ATOM     25  C   UNL     1       0.493   3.779   7.559  0.00  0.00    +0.004 A 
ATOM     26  C   UNL     1       0.228   3.164   8.768  0.00  0.00    -0.045 A 
ATOM     27  C   UNL     1      -0.511   1.996   8.802  0.00  0.00    +0.004 A 
ATOM     28  C   UNL     1      -0.988   1.446   7.627  0.00  0.00    +0.006 A 
BRANCH  26  29
ATOM     29  C   UNL     1       0.746   3.766  10.049  0.00  0.00    +0.013 C 
ATOM     30  C   UNL     1      -0.432   4.101  10.967  0.00  0.00    +0.012 C 
ATOM     31  C   UNL     1       1.668   2.764  10.747  0.00  0.00    +0.012 C 
ENDBRANCH  26  29
ENDBRANCH  22  23
BRANCH  22  32
ATOM     32  C   UNL     1      -2.496   2.202   4.694  0.00  0.00    +0.008 C 
ATOM     33  C   UNL     1      -3.020   1.590   3.393  0.00  0.00    +0.009 C 
ATOM     34  C   UNL     1      -3.566   2.084   5.780  0.00  0.00    +0.009 C 
ENDBRANCH  22  32
ENDBRANCH  20  22
ENDBRANCH   1  18
TORSDOF 7
