REMARK  Name = ZINC59502657
REMARK  8 active torsions:
REMARK  status: ('A' for Active; 'I' for Inactive)
REMARK    1  A    between atoms: C_4  and  C_7
REMARK    2  A    between atoms: C_10  and  S_18
REMARK    3  A    between atoms: N_11  and  C_12
REMARK    4  A    between atoms: S_18  and  C_19
REMARK    5  A    between atoms: C_22  and  C_24
REMARK    6  A    between atoms: N_25  and  N_26
REMARK    7  A    between atoms: C_27  and  C_29
REMARK    8  A    between atoms: C_29  and  C_30
REMARK                            x       y       z     vdW  Elec       q    Type
REMARK                         _______ _______ _______ _____ _____    ______ ____
ROOT
ATOM      1  C   UNL     1       3.695  -0.684  -0.037  0.00  0.00    +0.169 A 
ATOM      2  N   UNL     1       4.871  -0.170  -0.314  0.00  0.00    -0.128 NA
ATOM      3  N   UNL     1       5.778  -1.077  -0.236  0.00  0.00    -0.121 NA
ATOM      4  C   UNL     1       5.238  -2.228   0.096  0.00  0.00    +0.204 A 
ATOM      5  N   UNL     1       3.894  -2.019   0.240  0.00  0.00    -0.270 N 
ENDROOT
BRANCH   1   9
ATOM      6  C   UNL     1      -0.017   1.379   0.010  0.00  0.00    +0.000 A 
ATOM      7  C   UNL     1       1.168   2.094   0.002  0.00  0.00    +0.001 A 
ATOM      8  C   UNL     1       2.377   1.429  -0.013  0.00  0.00    +0.011 A 
ATOM      9  C   UNL     1       2.404   0.034  -0.021  0.00  0.00    +0.020 A 
ATOM     10  C   UNL     1       1.204  -0.681  -0.013  0.00  0.00    +0.011 A 
ATOM     11  C   UNL     1       0.002  -0.004   0.002  0.00  0.00    +0.001 A 
ENDBRANCH   1   9
BRANCH   5  12
ATOM     12  C   UNL     1       2.922  -2.965   0.593  0.00  0.00    +0.051 A 
ATOM     13  C   UNL     1       2.223  -2.833   1.785  0.00  0.00    +0.026 A 
ATOM     14  C   UNL     1       1.266  -3.767   2.130  0.00  0.00    +0.002 A 
ATOM     15  C   UNL     1       1.003  -4.832   1.289  0.00  0.00    +0.000 A 
ATOM     16  C   UNL     1       1.697  -4.966   0.101  0.00  0.00    +0.002 A 
ATOM     17  C   UNL     1       2.651  -4.032  -0.253  0.00  0.00    +0.026 A 
ENDBRANCH   5  12
BRANCH   4  18
ATOM     18  S   UNL     1       6.088  -3.755   0.320  0.00  0.00    -0.012 S 
BRANCH  18  19
ATOM     19  C   UNL     1       7.774  -3.356  -0.000  0.00  0.00    +0.169 A 
ATOM     20  C   UNL     1       8.819  -4.226   0.045  0.00  0.00    +0.057 A 
ATOM     21  C   UNL     1       9.975  -3.498  -0.275  0.00  0.00    +0.052 A 
ATOM     22  C   UNL     1       9.582  -2.209  -0.502  0.00  0.00    +0.149 A 
ATOM     23  O   UNL     1       8.243  -2.141  -0.336  0.00  0.00    -0.447 OA
BRANCH  22  24
ATOM     24  C   UNL     1      10.458  -1.096  -0.867  0.00  0.00    +0.176 C 
ATOM     25  N   UNL     1       9.958   0.092  -1.058  0.00  0.00    -0.185 NA
BRANCH  25  26
ATOM     26  N   UNL     1      10.797   1.158  -1.407  0.00  0.00    -0.206 N 
ATOM     27  C   UNL     1      10.280   2.386  -1.604  0.00  0.00    +0.246 C 
ATOM     28  O   UNL     1       9.086   2.569  -1.479  0.00  0.00    -0.273 OA
ATOM     29  H   UNL     1      11.751   1.011  -1.507  0.00  0.00    +0.177 HD
BRANCH  27  30
ATOM     30  C   UNL     1      11.182   3.533  -1.980  0.00  0.00    +0.215 C 
BRANCH  30  31
ATOM     31  C   UNL     1      10.381   4.758  -2.137  0.00  0.00    +0.072 C 
ATOM     32  N   UNL     1       9.762   5.703  -2.258  0.00  0.00    -0.196 NA
ENDBRANCH  30  31
ENDBRANCH  27  30
ENDBRANCH  25  26
ENDBRANCH  22  24
ENDBRANCH  18  19
ENDBRANCH   4  18
TORSDOF 8
