REMARK  Name = ZINC09639569
REMARK  10 active torsions:
REMARK  status: ('A' for Active; 'I' for Inactive)
REMARK    1  A    between atoms: C_1  and  C_2
REMARK    2  A    between atoms: C_5  and  C_36
REMARK    3  A    between atoms: N_8  and  S_10
REMARK    4  A    between atoms: S_10  and  C_13
REMARK    5  A    between atoms: C_16  and  N_19
REMARK    6  A    between atoms: C_20  and  C_22
REMARK    7  A    between atoms: C_22  and  C_23
REMARK    8  A    between atoms: C_23  and  N_24
REMARK    9  A    between atoms: C_25  and  C_27
REMARK   10  A    between atoms: C_30  and  N_33
REMARK                            x       y       z     vdW  Elec       q    Type
REMARK                         _______ _______ _______ _____ _____    ______ ____
ROOT
ATOM      1  N   UNL     1       3.843  -4.106  -4.087  0.00  0.00    -0.285 N 
ATOM      2  C   UNL     1       3.075  -4.847  -4.909  0.00  0.00    +0.219 C 
ATOM      3  O   UNL     1       1.968  -5.194  -4.556  0.00  0.00    -0.275 OA
ATOM      4  H   UNL     1       4.696  -3.763  -4.397  0.00  0.00    +0.155 HD
ENDROOT
BRANCH   1   8
ATOM      5  C   UNL     1       2.555  -3.282  -0.212  0.00  0.00    +0.106 A 
ATOM      6  C   UNL     1       2.227  -4.487  -0.806  0.00  0.00    +0.030 A 
ATOM      7  C   UNL     1       2.652  -4.763  -2.091  0.00  0.00    +0.025 A 
ATOM      8  C   UNL     1       3.410  -3.829  -2.786  0.00  0.00    +0.033 A 
ATOM      9  C   UNL     1       3.738  -2.620  -2.186  0.00  0.00    +0.025 A 
ATOM     10  C   UNL     1       3.305  -2.348  -0.902  0.00  0.00    +0.030 A 
BRANCH   5  11
ATOM     11  S   UNL     1       2.010  -2.934   1.427  0.00  0.00    +0.061 S 
ATOM     12  O   UNL     1       2.904  -1.964   1.955  0.00  0.00    -0.153 OA
ATOM     13  O   UNL     1       1.789  -4.189   2.057  0.00  0.00    -0.153 OA
BRANCH  11  19
ATOM     14  C   UNL     1      -0.638   1.123  -0.087  0.00  0.00    +0.009 C 
ATOM     15  C   UNL     1      -0.407  -0.389  -0.036  0.00  0.00    +0.002 C 
ATOM     16  C   UNL     1      -1.756  -1.109   0.047  0.00  0.00    +0.009 C 
ATOM     17  C   UNL     1      -1.527  -2.622   0.066  0.00  0.00    +0.002 C 
ATOM     18  C   UNL     1      -0.703  -2.995   1.303  0.00  0.00    +0.112 C 
ATOM     19  N   UNL     1       0.531  -2.198   1.306  0.00  0.00    -0.176 NA
ATOM     20  C   UNL     1       0.430  -0.736   1.199  0.00  0.00    +0.112 C 
ATOM     21  C   UNL     1      -0.772  -3.040  -1.197  0.00  0.00    +0.009 C 
ENDBRANCH  11  19
ENDBRANCH   5  11
ENDBRANCH   1   8
BRANCH   2  22
ATOM     22  C   UNL     1       3.592  -5.245  -6.268  0.00  0.00    +0.115 C 
BRANCH  22  23
ATOM     23  C   UNL     1       2.532  -6.077  -6.993  0.00  0.00    +0.113 C 
BRANCH  23  24
ATOM     24  N   UNL     1       3.035  -6.464  -8.314  0.00  0.00    -0.311 N 
ATOM     25  C   UNL     1       2.267  -7.206  -9.136  0.00  0.00    +0.244 C 
ATOM     26  O   UNL     1       1.157  -7.554  -8.782  0.00  0.00    -0.270 OA
ATOM     27  H   UNL     1       3.920  -6.186  -8.596  0.00  0.00    +0.149 HD
BRANCH  25  28
ATOM     28  C   UNL     1       2.774  -7.596 -10.469  0.00  0.00    +0.037 A 
ATOM     29  C   UNL     1       4.050  -7.203 -10.876  0.00  0.00    +0.015 A 
ATOM     30  C   UNL     1       4.517  -7.572 -12.121  0.00  0.00    +0.033 A 
ATOM     31  C   UNL     1       3.724  -8.328 -12.965  0.00  0.00    +0.126 A 
ATOM     32  C   UNL     1       2.458  -8.721 -12.568  0.00  0.00    +0.033 A 
ATOM     33  C   UNL     1       1.981  -8.365 -11.323  0.00  0.00    +0.015 A 
BRANCH  31  34
ATOM     34  N   UNL     1       4.231  -8.719 -14.299  0.00  0.00    +0.056 N 
ATOM     35  O   UNL     1       5.337  -8.378 -14.649  0.00  0.00    -0.126 OA
ATOM     36  O   UNL     1       3.541  -9.381 -15.039  0.00  0.00    -0.126 OA
ENDBRANCH  31  34
ENDBRANCH  25  28
ENDBRANCH  23  24
ENDBRANCH  22  23
ENDBRANCH   2  22
TORSDOF 8
