REMARK  Name = ZINC05356437
REMARK  6 active torsions:
REMARK  status: ('A' for Active; 'I' for Inactive)
REMARK    1  A    between atoms: C_1  and  C_2
REMARK    2  A    between atoms: C_9  and  S_11
REMARK    3  A    between atoms: S_11  and  C_12
REMARK    4  A    between atoms: C_12  and  C_13
REMARK    5  A    between atoms: C_16  and  C_18
REMARK    6  A    between atoms: C_21  and  N_24
REMARK                            x       y       z     vdW  Elec       q    Type
REMARK                         _______ _______ _______ _____ _____    ______ ____
ROOT
ATOM      1  C   UNL     1       0.128  -8.426   1.625  0.00  0.00    +0.228 A 
ATOM      2  N   UNL     1      -0.912  -9.154   1.921  0.00  0.00    -0.111 NA
ATOM      3  N   UNL     1      -0.524 -10.287   2.393  0.00  0.00    -0.107 NA
ATOM      4  C   UNL     1       0.787 -10.320   2.414  0.00  0.00    +0.248 A 
ATOM      5  O   UNL     1       1.225  -9.144   1.923  0.00  0.00    -0.419 OA
ENDROOT
BRANCH   4   6
ATOM      6  C   UNL     1       1.628 -11.442   2.884  0.00  0.00    +0.039 A 
ATOM      7  C   UNL     1       3.019 -11.335   2.854  0.00  0.00    +0.015 A 
ATOM      8  C   UNL     1       3.799 -12.385   3.295  0.00  0.00    +0.033 A 
ATOM      9  C   UNL     1       3.204 -13.542   3.764  0.00  0.00    +0.126 A 
ATOM     10  C   UNL     1       1.825 -13.655   3.796  0.00  0.00    +0.033 A 
ATOM     11  C   UNL     1       1.034 -12.609   3.365  0.00  0.00    +0.015 A 
BRANCH   9  12
ATOM     12  N   UNL     1       4.045 -14.665   4.234  0.00  0.00    +0.056 N 
ATOM     13  O   UNL     1       5.250 -14.570   4.207  0.00  0.00    -0.126 OA
ATOM     14  O   UNL     1       3.528 -15.678   4.645  0.00  0.00    -0.126 OA
ENDBRANCH   9  12
ENDBRANCH   4   6
BRANCH   1  15
ATOM     15  C   UNL     1       0.105  -7.035   1.047  0.00  0.00    +0.175 C 
BRANCH  15  16
ATOM     16  S   UNL     1       0.096  -5.820   2.394  0.00  0.00    -0.078 S 
BRANCH  16  25
ATOM     17  C   UNL     1      -0.018   1.503   0.010  0.00  0.00    +0.044 C 
ATOM     18  C   UNL     1       0.002  -0.004   0.002  0.00  0.00    -0.048 A 
ATOM     19  C   UNL     1       0.006  -0.686  -1.206  0.00  0.00    +0.005 A 
ATOM     20  C   UNL     1       0.024  -2.063  -1.230  0.00  0.00    +0.030 A 
ATOM     21  C   UNL     1       0.040  -2.778  -0.030  0.00  0.00    +0.090 A 
ATOM     22  C   UNL     1       0.037  -2.082   1.190  0.00  0.00    +0.067 A 
ATOM     23  C   UNL     1       0.023  -0.696   1.196  0.00  0.00    +0.031 A 
ATOM     24  N   UNL     1       0.055  -3.047   2.184  0.00  0.00    -0.333 N 
ATOM     25  C   UNL     1       0.069  -4.265   1.566  0.00  0.00    +0.168 A 
ATOM     26  N   UNL     1       0.060  -4.104   0.266  0.00  0.00    -0.222 NA
ATOM     27  H   UNL     1       0.058  -2.887   3.141  0.00  0.00    +0.168 HD
ENDBRANCH  16  25
ENDBRANCH  15  16
ENDBRANCH   1  15
TORSDOF 5
