REMARK  Name = ZINC39722565
REMARK  10 active torsions:
REMARK  status: ('A' for Active; 'I' for Inactive)
REMARK    1  A    between atoms: C_1  and  C_2
REMARK    2  A    between atoms: C_6  and  O_8
REMARK    3  A    between atoms: O_8  and  C_9
REMARK    4  A    between atoms: C_9  and  C_10
REMARK    5  A    between atoms: C_14  and  S_20
REMARK    6  A    between atoms: N_16  and  C_17
REMARK    7  A    between atoms: C_17  and  C_18
REMARK    8  A    between atoms: S_20  and  C_21
REMARK    9  A    between atoms: C_21  and  C_22
REMARK   10  A    between atoms: C_30  and  C_34
REMARK                            x       y       z     vdW  Elec       q    Type
REMARK                         _______ _______ _______ _____ _____    ______ ____
ROOT
ATOM      1  C   UNL     1       0.083  -4.796   3.683  0.00  0.00    +0.238 C 
ATOM      2  N   UNL     1       1.235  -4.289   4.441  0.00  0.00    -0.167 NA
ATOM      3  N   UNL     1       0.906  -3.953   5.582  0.00  0.00    -0.160 NA
ATOM      4  C   UNL     1      -0.529  -4.171   5.808  0.00  0.00    +0.259 C 
ATOM      5  N   UNL     1      -1.106  -4.342   4.449  0.00  0.00    -0.241 NA
ENDROOT
BRANCH   1   6
ATOM      6  C   UNL     1       0.069  -4.202   2.274  0.00  0.00    +0.273 C 
BRANCH   6   7
ATOM      7  O   UNL     1       0.050  -2.776   2.358  0.00  0.00    -0.488 OA
BRANCH   7  13
ATOM      8  C   UNL     1      -0.018   1.503   0.010  0.00  0.00    +0.044 C 
ATOM      9  C   UNL     1       0.002  -0.004   0.002  0.00  0.00    -0.047 A 
ATOM     10  C   UNL     1       0.006  -0.688  -1.200  0.00  0.00    +0.003 A 
ATOM     11  C   UNL     1       0.024  -2.071  -1.211  0.00  0.00    +0.004 A 
ATOM     12  C   UNL     1       0.039  -2.772  -0.020  0.00  0.00    +0.045 A 
ATOM     13  C   UNL     1       0.035  -2.088   1.186  0.00  0.00    +0.121 A 
ATOM     14  C   UNL     1       0.023  -0.700   1.195  0.00  0.00    +0.049 A 
ENDBRANCH   7  13
ENDBRANCH   6   7
ENDBRANCH   1   6
BRANCH   5  15
ATOM     15  C   UNL     1      -2.158  -5.367   4.445  0.00  0.00    +0.116 C 
BRANCH  15  16
ATOM     16  C   UNL     1      -3.427  -4.786   5.012  0.00  0.00    -0.019 C 
ATOM     17  C   UNL     1      -4.537  -4.837   4.319  0.00  0.00    +0.005 C 
ENDBRANCH  15  16
ENDBRANCH   5  15
BRANCH   4  18
ATOM     18  S   UNL     1      -1.264  -2.733   6.634  0.00  0.00    -0.109 S 
BRANCH  18  19
ATOM     19  C   UNL     1      -0.926  -1.356   5.502  0.00  0.00    +0.146 C 
BRANCH  19  20
ATOM     20  C   UNL     1      -1.491  -0.083   6.077  0.00  0.00    +0.120 A 
ATOM     21  N   UNL     1      -1.343   1.066   5.367  0.00  0.00    -0.310 N 
ATOM     22  H   UNL     1      -0.881   1.048   4.514  0.00  0.00    +0.170 HD
ATOM     23  C   UNL     1      -1.833   2.236   5.839  0.00  0.00    +0.259 A 
ATOM     24  O   UNL     1      -1.707   3.272   5.213  0.00  0.00    -0.267 OA
ATOM     25  C   UNL     1      -2.525   2.206   7.139  0.00  0.00    +0.065 A 
ATOM     26  C   UNL     1      -3.065   3.357   7.710  0.00  0.00    +0.016 A 
ATOM     27  C   UNL     1      -3.699   3.284   8.918  0.00  0.00    +0.016 A 
ATOM     28  C   UNL     1      -3.813   2.060   9.590  0.00  0.00    +0.065 A 
ATOM     29  C   UNL     1      -3.280   0.900   9.037  0.00  0.00    +0.043 A 
ATOM     30  C   UNL     1      -2.630   0.964   7.803  0.00  0.00    +0.079 A 
ATOM     31  N   UNL     1      -2.100  -0.141   7.222  0.00  0.00    -0.233 NA
BRANCH  28  32
ATOM     32  C   UNL     1      -4.503   2.001  10.896  0.00  0.00    +0.387 C 
ATOM     33  O   UNL     1      -4.972   3.018  11.386  0.00  0.00    -0.241 OA
ATOM     34  O   UNL     1      -4.604   0.935  11.486  0.00  0.00    -0.241 OA
ENDBRANCH  28  32
ENDBRANCH  19  20
ENDBRANCH  18  19
ENDBRANCH   4  18
TORSDOF 9
