REMARK  Name = ZINC36531310
REMARK  9 active torsions:
REMARK  status: ('A' for Active; 'I' for Inactive)
REMARK    1  A    between atoms: C_1  and  C_2
REMARK    2  A    between atoms: C_7  and  C_8
REMARK    3  A    between atoms: C_8  and  C_10
REMARK    4  A    between atoms: C_8  and  N_19
REMARK    5  A    between atoms: N_12  and  C_13
REMARK    6  A    between atoms: N_19  and  C_20
REMARK    7  A    between atoms: C_21  and  C_23
REMARK    8  A    between atoms: C_27  and  O_30
REMARK    9  A    between atoms: C_28  and  O_29
REMARK                            x       y       z     vdW  Elec       q    Type
REMARK                         _______ _______ _______ _____ _____    ______ ____
ROOT
ATOM      1  C   UNL     1       0.304  -0.462   2.276  0.00  0.00    +0.192 C 
ENDROOT
BRANCH   1   8
ATOM      2  C   UNL     1       2.023   0.497   0.161  0.00  0.00    +0.044 C 
ATOM      3  C   UNL     1       1.174  -0.729  -0.056  0.00  0.00    -0.045 A 
ATOM      4  C   UNL     1       1.221  -1.398  -1.264  0.00  0.00    +0.004 A 
ATOM      5  C   UNL     1       0.443  -2.522  -1.463  0.00  0.00    +0.000 A 
ATOM      6  C   UNL     1      -0.384  -2.978  -0.453  0.00  0.00    +0.000 A 
ATOM      7  C   UNL     1      -0.431  -2.310   0.756  0.00  0.00    +0.006 A 
ATOM      8  C   UNL     1       0.351  -1.187   0.956  0.00  0.00    -0.015 A 
ENDBRANCH   1   8
BRANCH   1   9
ATOM      9  C   UNL     1      -0.949  -0.849   3.018  0.00  0.00    +0.238 C 
ATOM     10  O   UNL     1      -0.879  -1.564   3.995  0.00  0.00    -0.273 OA
ATOM     11  N   UNL     1      -2.148  -0.401   2.595  0.00  0.00    -0.311 N 
ATOM     12  H   UNL     1      -2.213   0.104   1.770  0.00  0.00    +0.149 HD
BRANCH  11  13
ATOM     13  C   UNL     1      -3.352  -0.677   3.383  0.00  0.00    +0.073 C 
ATOM     14  C   UNL     1      -3.900  -2.056   3.010  0.00  0.00    +0.022 C 
ATOM     15  C   UNL     1      -5.158  -2.344   3.832  0.00  0.00    +0.002 C 
ATOM     16  C   UNL     1      -6.215  -1.278   3.538  0.00  0.00    +0.000 C 
ATOM     17  C   UNL     1      -5.667   0.101   3.910  0.00  0.00    +0.002 C 
ATOM     18  C   UNL     1      -4.410   0.389   3.088  0.00  0.00    +0.022 C 
ENDBRANCH  11  13
ENDBRANCH   1   9
BRANCH   1  19
ATOM     19  N   UNL     1       1.477  -0.825   3.076  0.00  0.00    -0.285 N 
ATOM     20  C   UNL     1       1.761  -2.234   3.360  0.00  0.00    +0.133 C 
ATOM     21  C   UNL     1       2.294   0.136   3.549  0.00  0.00    +0.251 C 
ATOM     22  O   UNL     1       2.012   1.308   3.387  0.00  0.00    -0.270 OA
BRANCH  21  23
ATOM     23  C   UNL     1       3.531  -0.233   4.264  0.00  0.00    +0.082 A 
ATOM     24  C   UNL     1       4.353  -1.249   3.767  0.00  0.00    +0.017 A 
ATOM     25  C   UNL     1       5.507  -1.590   4.436  0.00  0.00    +0.005 A 
ATOM     26  C   UNL     1       5.861  -0.932   5.603  0.00  0.00    +0.049 A 
ATOM     27  C   UNL     1       5.057   0.076   6.108  0.00  0.00    +0.159 A 
ATOM     28  C   UNL     1       3.890   0.436   5.439  0.00  0.00    +0.171 A 
BRANCH  28  29
ATOM     29  O   UNL     1       3.103   1.428   5.928  0.00  0.00    -0.503 OA
ATOM     30  H   UNL     1       2.424   1.123   6.545  0.00  0.00    +0.292 HD
ENDBRANCH  28  29
BRANCH  27  31
ATOM     31  O   UNL     1       5.410   0.718   7.254  0.00  0.00    -0.503 OA
ATOM     32  H   UNL     1       5.962   1.499   7.113  0.00  0.00    +0.292 HD
ENDBRANCH  27  31
ENDBRANCH  21  23
ENDBRANCH   1  19
TORSDOF 7
