REMARK  Name = ZINC39287254
REMARK  8 active torsions:
REMARK  status: ('A' for Active; 'I' for Inactive)
REMARK    1  A    between atoms: C_1  and  C_2
REMARK    2  A    between atoms: C_6  and  C_37
REMARK    3  A    between atoms: C_7  and  N_8
REMARK    4  A    between atoms: C_9  and  C_11
REMARK    5  A    between atoms: C_11  and  N_12
REMARK    6  A    between atoms: C_16  and  C_17
REMARK    7  A    between atoms: C_20  and  S_22
REMARK    8  A    between atoms: S_22  and  C_23
REMARK                            x       y       z     vdW  Elec       q    Type
REMARK                         _______ _______ _______ _____ _____    ______ ____
ROOT
ATOM      1  N   UNL     1      -0.748  -0.853   5.577  0.00  0.00    -0.219 N 
ATOM      2  C   UNL     1      -2.003  -1.178   5.837  0.00  0.00    +0.261 C 
ATOM      3  O   UNL     1      -2.921  -0.695   5.197  0.00  0.00    -0.269 OA
ATOM      4  C   UNL     1      -2.252  -2.106   6.885  0.00  0.00    +0.083 C 
ATOM      5  C   UNL     1      -3.451  -2.603   7.348  0.00  0.00    +0.066 C 
ATOM      6  S   UNL     1      -0.588  -2.454   7.436  0.00  0.00    -0.026 S 
ATOM      7  C   UNL     1       0.270  -1.393   6.283  0.00  0.00    +0.286 C 
ATOM      8  O   UNL     1       1.466  -1.204   6.164  0.00  0.00    -0.262 OA
ENDROOT
BRANCH   5   9
ATOM      9  C   UNL     1      -4.641  -2.338   6.647  0.00  0.00    +0.131 A 
ATOM     10  C   UNL     1      -5.923  -2.654   7.067  0.00  0.00    +0.050 A 
ATOM     11  C   UNL     1      -6.792  -2.212   6.068  0.00  0.00    +0.057 A 
ATOM     12  C   UNL     1      -6.028  -1.651   5.085  0.00  0.00    +0.165 A 
ATOM     13  O   UNL     1      -4.736  -1.726   5.444  0.00  0.00    -0.449 OA
BRANCH  12  14
ATOM     14  S   UNL     1      -6.637  -0.937   3.594  0.00  0.00    -0.046 S 
BRANCH  14  15
ATOM     15  C   UNL     1      -6.780   0.830   3.978  0.00  0.00    +0.240 C 
ATOM     16  N   UNL     1      -5.444   1.391   4.319  0.00  0.00    -0.275 NA
ATOM     17  C   UNL     1      -5.810   2.424   5.301  0.00  0.00    +0.128 C 
ATOM     18  C   UNL     1      -4.646   2.756   6.195  0.00  0.00    -0.002 C 
ATOM     19  C   UNL     1      -4.920   2.961   7.492  0.00  0.00    -0.002 C 
ATOM     20  C   UNL     1      -6.280   2.861   8.009  0.00  0.00    +0.002 C 
ATOM     21  C   UNL     1      -7.305   2.343   7.297  0.00  0.00    +0.025 C 
ATOM     22  C   UNL     1      -7.071   1.896   5.962  0.00  0.00    +0.060 C 
ATOM     23  N   UNL     1      -7.612   1.023   5.176  0.00  0.00    -0.256 NA
ATOM     24  H   UNL     1      -4.853   0.689   4.737  0.00  0.00    +0.126 HD
ENDBRANCH  14  15
ENDBRANCH  12  14
ENDBRANCH   5   9
BRANCH   1  25
ATOM     25  C   UNL     1      -0.457   0.101   4.503  0.00  0.00    +0.213 C 
BRANCH  25  27
ATOM     26  N   UNL     1      -0.240   0.062   2.039  0.00  0.00    -0.284 N 
ATOM     27  C   UNL     1      -0.395  -0.629   3.186  0.00  0.00    +0.235 C 
ATOM     28  O   UNL     1      -0.484  -1.839   3.158  0.00  0.00    -0.274 OA
ATOM     29  H   UNL     1      -0.121   1.024   2.065  0.00  0.00    +0.155 HD
BRANCH  26  36
ATOM     30  C   UNL     1       1.773   0.712   0.136  0.00  0.00    +0.045 C 
ATOM     31  C   UNL     1       0.714  -0.323  -0.146  0.00  0.00    -0.029 A 
ATOM     32  C   UNL     1       0.705  -0.991  -1.355  0.00  0.00    +0.005 A 
ATOM     33  C   UNL     1      -0.267  -1.940  -1.614  0.00  0.00    +0.001 A 
ATOM     34  C   UNL     1      -1.232  -2.223  -0.665  0.00  0.00    +0.005 A 
ATOM     35  C   UNL     1      -1.228  -1.559   0.546  0.00  0.00    -0.029 A 
ATOM     36  C   UNL     1      -0.250  -0.609   0.811  0.00  0.00    +0.039 A 
ATOM     37  C   UNL     1      -2.280  -1.868   1.579  0.00  0.00    +0.045 C 
ENDBRANCH  26  36
ENDBRANCH  25  27
ENDBRANCH   1  25
TORSDOF 6
