REMARK  Name = ZINC64985796
REMARK  7 active torsions:
REMARK  status: ('A' for Active; 'I' for Inactive)
REMARK    1  A    between atoms: C_1  and  C_2
REMARK    2  A    between atoms: C_5  and  N_8
REMARK    3  A    between atoms: C_9  and  C_11
REMARK    4  A    between atoms: N_14  and  S_23
REMARK    5  A    between atoms: C_17  and  C_22
REMARK    6  A    between atoms: S_23  and  C_26
REMARK    7  A    between atoms: C_29  and  C_32
REMARK                            x       y       z     vdW  Elec       q    Type
REMARK                         _______ _______ _______ _____ _____    ______ ____
ROOT
ATOM      1  C   UNL     1       0.309  -6.349   1.121  0.00  0.00    +0.278 C 
ATOM      2  C   UNL     1       1.632  -6.741   0.448  0.00  0.00    +0.186 C 
ATOM      3  N   UNL     1       1.740  -8.209   0.500  0.00  0.00    -0.195 N 
ATOM      4  C   UNL     1       1.364  -8.850   1.691  0.00  0.00    +0.093 A 
ATOM      5  C   UNL     1       1.706 -10.175   1.905  0.00  0.00    +0.031 A 
ATOM      6  C   UNL     1       1.330 -10.803   3.079  0.00  0.00    -0.048 A 
ATOM      7  C   UNL     1       0.614 -10.109   4.037  0.00  0.00    +0.007 A 
ATOM      8  C   UNL     1       0.271  -8.786   3.828  0.00  0.00    +0.048 A 
ATOM      9  C   UNL     1       0.645  -8.148   2.655  0.00  0.00    +0.144 A 
ATOM     10  O   UNL     1       0.306  -6.845   2.462  0.00  0.00    -0.476 OA
ATOM     11  C   UNL     1       1.702 -12.244   3.314  0.00  0.00    +0.044 C 
ENDROOT
BRANCH   1  13
ATOM     12  N   UNL     1       0.059  -4.170  -0.021  0.00  0.00    -0.282 N 
ATOM     13  C   UNL     1       0.175  -4.848   1.138  0.00  0.00    +0.260 C 
ATOM     14  O   UNL     1       0.173  -4.251   2.193  0.00  0.00    -0.271 OA
ATOM     15  H   UNL     1      -0.017  -4.651  -0.860  0.00  0.00    +0.155 HD
BRANCH  12  20
ATOM     16  C   UNL     1       0.009   1.503   0.007  0.00  0.00    +0.044 C 
ATOM     17  C   UNL     1       0.022  -0.004  -0.001  0.00  0.00    -0.050 A 
ATOM     18  C   UNL     1       0.777  -0.692   0.931  0.00  0.00    +0.005 A 
ATOM     19  C   UNL     1       0.791  -2.073   0.927  0.00  0.00    +0.023 A 
ATOM     20  C   UNL     1       0.046  -2.771  -0.014  0.00  0.00    +0.034 A 
ATOM     21  C   UNL     1      -0.712  -2.077  -0.948  0.00  0.00    +0.023 A 
ATOM     22  C   UNL     1      -0.726  -0.696  -0.936  0.00  0.00    +0.005 A 
ENDBRANCH  12  20
ENDBRANCH   1  13
BRANCH   3  23
ATOM     23  S   UNL     1       2.287  -9.075  -0.802  0.00  0.00    +0.075 S 
ATOM     24  O   UNL     1       1.763 -10.388  -0.665  0.00  0.00    -0.150 OA
ATOM     25  O   UNL     1       2.046  -8.274  -1.951  0.00  0.00    -0.150 OA
BRANCH  23  26
ATOM     26  C   UNL     1       4.036  -9.210  -0.640  0.00  0.00    +0.109 A 
ATOM     27  C   UNL     1       4.858  -8.244  -1.190  0.00  0.00    +0.029 A 
ATOM     28  C   UNL     1       6.230  -8.351  -1.063  0.00  0.00    +0.005 A 
ATOM     29  C   UNL     1       6.781  -9.423  -0.386  0.00  0.00    -0.050 A 
ATOM     30  C   UNL     1       5.959 -10.388   0.165  0.00  0.00    +0.005 A 
ATOM     31  C   UNL     1       4.586 -10.279   0.041  0.00  0.00    +0.029 A 
ATOM     32  C   UNL     1       8.277  -9.539  -0.248  0.00  0.00    +0.044 C 
ENDBRANCH  23  26
ENDBRANCH   3  23
TORSDOF 4
