REMARK  Name = ZINC38702057
REMARK  8 active torsions:
REMARK  status: ('A' for Active; 'I' for Inactive)
REMARK    1  A    between atoms: C_1  and  C_2
REMARK    2  A    between atoms: C_2  and  C_3
REMARK    3  A    between atoms: C_3  and  O_4
REMARK    4  A    between atoms: O_4  and  C_5
REMARK    5  A    between atoms: C_9  and  C_11
REMARK    6  A    between atoms: C_14  and  C_30
REMARK    7  A    between atoms: N_21  and  C_22
REMARK    8  A    between atoms: C_35  and  O_36
REMARK                            x       y       z     vdW  Elec       q    Type
REMARK                         _______ _______ _______ _____ _____    ______ ____
ROOT
ATOM      1  C   UNL     1      -4.211  -5.722   0.185  0.00  0.00    +0.142 C 
ATOM      2  C   UNL     1      -4.257  -6.466   1.491  0.00  0.00    +0.035 A 
ATOM      3  C   UNL     1      -3.647  -6.724   2.724  0.00  0.00    +0.102 A 
ATOM      4  N   UNL     1      -4.405  -7.591   3.365  0.00  0.00    -0.173 NA
ATOM      5  N   UNL     1      -5.433  -7.905   2.661  0.00  0.00    -0.272 N 
ATOM      6  H   UNL     1      -6.127  -8.526   2.933  0.00  0.00    +0.189 HD
ATOM      7  C   UNL     1      -5.404  -7.236   1.471  0.00  0.00    +0.126 A 
ATOM      8  C   UNL     1      -6.094  -7.009   0.196  0.00  0.00    +0.266 C 
ATOM      9  O   UNL     1      -7.138  -7.541  -0.132  0.00  0.00    -0.268 OA
ATOM     10  N   UNL     1      -5.408  -6.131  -0.560  0.00  0.00    -0.280 N 
ENDROOT
BRANCH  10  11
ATOM     11  C   UNL     1      -5.791  -5.663  -1.895  0.00  0.00    +0.100 C 
ATOM     12  C   UNL     1      -7.176  -4.999  -1.835  0.00  0.00    +0.047 C 
ATOM     13  C   UNL     1      -7.725  -4.793  -3.268  0.00  0.00    +0.168 C 
ATOM     14  S   UNL     1      -6.918  -6.152  -4.208  0.00  0.00    -0.029 S 
ATOM     15  O   UNL     1      -7.905  -7.103  -4.586  0.00  0.00    -0.174 OA
ATOM     16  O   UNL     1      -6.074  -5.588  -5.203  0.00  0.00    -0.174 OA
ATOM     17  C   UNL     1      -5.874  -6.871  -2.871  0.00  0.00    +0.188 C 
ENDBRANCH  10  11
BRANCH   3  18
ATOM     18  C   UNL     1      -2.379  -6.132   3.218  0.00  0.00    +0.045 A 
ATOM     19  C   UNL     1      -1.615  -5.320   2.383  0.00  0.00    +0.033 A 
ATOM     20  C   UNL     1      -0.435  -4.771   2.847  0.00  0.00    +0.042 A 
ATOM     21  C   UNL     1      -0.010  -5.026   4.140  0.00  0.00    +0.023 A 
ATOM     22  C   UNL     1      -0.761  -5.831   4.975  0.00  0.00    +0.047 A 
ATOM     23  C   UNL     1      -1.949  -6.382   4.524  0.00  0.00    +0.126 A 
ATOM     24 CL   UNL     1       0.517  -3.759   1.807  0.00  0.00    -0.084 Cl
BRANCH  23  25
ATOM     25  O   UNL     1      -2.691  -7.169   5.346  0.00  0.00    -0.506 OA
ATOM     26  H   UNL     1      -2.464  -8.108   5.303  0.00  0.00    +0.292 HD
ENDBRANCH  23  25
ENDBRANCH   3  18
BRANCH   1  31
ATOM     27  C   UNL     1      -3.143  -2.103   0.394  0.00  0.00    +0.121 A 
ATOM     28  C   UNL     1      -4.293  -1.506   0.893  0.00  0.00    +0.045 A 
ATOM     29  C   UNL     1      -5.409  -2.275   1.160  0.00  0.00    +0.004 A 
ATOM     30  C   UNL     1      -5.381  -3.639   0.930  0.00  0.00    +0.006 A 
ATOM     31  C   UNL     1      -4.237  -4.236   0.434  0.00  0.00    -0.019 A 
ATOM     32  C   UNL     1      -3.120  -3.470   0.160  0.00  0.00    +0.051 A 
BRANCH  27  33
ATOM     33  O   UNL     1      -2.045  -1.348   0.130  0.00  0.00    -0.492 OA
BRANCH  33  34
ATOM     34  C   UNL     1      -2.140   0.052   0.396  0.00  0.00    +0.229 C 
BRANCH  34  36
ATOM     35  C   UNL     1      -0.918   2.231   0.324  0.00  0.00    +0.007 C 
ATOM     36  C   UNL     1      -0.816   0.731   0.039  0.00  0.00    +0.038 C 
ENDBRANCH  34  36
ENDBRANCH  33  34
ENDBRANCH  27  33
ENDBRANCH   1  31
TORSDOF 7
