REMARK  Name = ZINC58434317
REMARK  6 active torsions:
REMARK  status: ('A' for Active; 'I' for Inactive)
REMARK    1  A    between atoms: C_1  and  C_2
REMARK    2  A    between atoms: C_4  and  C_7
REMARK    3  A    between atoms: C_7  and  N_8
REMARK    4  A    between atoms: C_9  and  C_11
REMARK    5  A    between atoms: C_14  and  C_16
REMARK    6  A    between atoms: C_19  and  N_23
REMARK                            x       y       z     vdW  Elec       q    Type
REMARK                         _______ _______ _______ _____ _____    ______ ____
ROOT
ATOM      1  C   UNL     1       3.066  -5.130  -3.014  0.00  0.00    +0.190 A 
ATOM      2  C   UNL     1       3.467  -6.184  -3.806  0.00  0.00    +0.055 A 
ATOM      3  C   UNL     1       4.866  -6.172  -3.815  0.00  0.00    +0.051 A 
ATOM      4  C   UNL     1       5.263  -5.123  -3.037  0.00  0.00    +0.137 A 
ATOM      5  O   UNL     1       4.171  -4.499  -2.565  0.00  0.00    -0.450 OA
ENDROOT
BRANCH   4   6
ATOM      6  C   UNL     1       6.662  -4.734  -2.764  0.00  0.00    +0.036 A 
ATOM      7  C   UNL     1       7.586  -5.692  -2.340  0.00  0.00    +0.015 A 
ATOM      8  C   UNL     1       8.890  -5.323  -2.088  0.00  0.00    +0.033 A 
ATOM      9  C   UNL     1       9.286  -4.007  -2.253  0.00  0.00    +0.128 A 
ATOM     10  C   UNL     1       8.377  -3.052  -2.672  0.00  0.00    +0.053 A 
ATOM     11  C   UNL     1       7.069  -3.409  -2.935  0.00  0.00    +0.054 A 
ATOM     12 CL   UNL     1       5.931  -2.211  -3.468  0.00  0.00    -0.083 Cl
BRANCH   9  13
ATOM     13  N   UNL     1      10.688  -3.619  -1.980  0.00  0.00    +0.056 N 
ATOM     14  O   UNL     1      11.485  -4.451  -1.613  0.00  0.00    -0.126 OA
ATOM     15  O   UNL     1      11.036  -2.470  -2.123  0.00  0.00    -0.126 OA
ENDBRANCH   9  13
ENDBRANCH   4   6
BRANCH   1  17
ATOM     16  N   UNL     1       1.424  -3.694  -1.928  0.00  0.00    -0.302 N 
ATOM     17  C   UNL     1       1.681  -4.756  -2.717  0.00  0.00    +0.280 C 
ATOM     18  O   UNL     1       0.762  -5.404  -3.183  0.00  0.00    -0.267 OA
ATOM     19  H   UNL     1       2.156  -3.177  -1.557  0.00  0.00    +0.150 HD
BRANCH  16  20
ATOM     20  C   UNL     1       0.039  -3.320  -1.631  0.00  0.00    +0.182 C 
BRANCH  20  24
ATOM     21  C   UNL     1      -0.018   1.503   0.010  0.00  0.00    +0.069 C 
ATOM     22  C   UNL     1       0.002  -0.004   0.002  0.00  0.00    +0.081 A 
ATOM     23  C   UNL     1       0.008  -0.824  -1.141  0.00  0.00    +0.072 A 
ATOM     24  C   UNL     1       0.027  -2.108  -0.735  0.00  0.00    +0.154 A 
ATOM     25  O   UNL     1       0.034  -2.119   0.606  0.00  0.00    -0.358 OA
ATOM     26  N   UNL     1       0.023  -0.775   1.052  0.00  0.00    -0.083 NA
ENDBRANCH  20  24
ENDBRANCH  16  20
ENDBRANCH   1  17
TORSDOF 5
