REMARK  Name = ZINC39533265
REMARK  14 active torsions:
REMARK  status: ('A' for Active; 'I' for Inactive)
REMARK    1  A    between atoms: C_1  and  C_2
REMARK    2  A    between atoms: C_2  and  C_3
REMARK    3  A    between atoms: C_3  and  C_4
REMARK    4  A    between atoms: C_7  and  C_10
REMARK    5  A    between atoms: C_10  and  C_12
REMARK    6  A    between atoms: C_10  and  N_20
REMARK    7  A    between atoms: C_12  and  N_13
REMARK    8  A    between atoms: N_13  and  S_14
REMARK    9  A    between atoms: S_14  and  C_17
REMARK   10  A    between atoms: C_17  and  C_18
REMARK   11  A    between atoms: C_17  and  C_19
REMARK   12  A    between atoms: C_24  and  S_27
REMARK   13  A    between atoms: S_27  and  O_30
REMARK   14  A    between atoms: O_30  and  C_31
REMARK                            x       y       z     vdW  Elec       q    Type
REMARK                         _______ _______ _______ _____ _____    ______ ____
ROOT
ATOM      1  C   UNL     1      -1.276  -6.196   0.061  0.00  0.00    +0.102 C 
ENDROOT
BRANCH   1   2
ATOM      2  N   UNL     1      -2.050  -6.610   1.239  0.00  0.00    -0.296 NA
ATOM      3  C   UNL     1      -1.969  -8.064   1.438  0.00  0.00    +0.066 C 
ATOM      4  C   UNL     1      -2.737  -8.446   2.705  0.00  0.00    -0.064 C 
ATOM      5  N   UNL     1      -4.140  -8.031   2.571  0.00  0.00    +0.398 N 
ATOM      6  C   UNL     1      -4.206  -6.574   2.398  0.00  0.00    +0.130 C 
ATOM      7  C   UNL     1      -3.450  -6.176   1.129  0.00  0.00    +0.095 C 
ATOM      8  H   UNL     1      -4.550  -8.483   1.768  0.00  0.00    -0.083 HD
ATOM      9  H   UNL     1      -4.649  -8.294   3.402  0.00  0.00    -0.083 HD
BRANCH   6  10
ATOM     10  S   UNL     1      -5.940  -6.060   2.256  0.00  0.00    +0.109 S 
ATOM     11  O   UNL     1      -6.033  -4.642   2.267  0.00  0.00    -0.138 OA
ATOM     12  O   UNL     1      -6.595  -6.821   1.250  0.00  0.00    -0.138 OA
BRANCH  10  13
ATOM     13  O   UNL     1      -6.587  -6.502   3.561  0.00  0.00    -0.347 OA
BRANCH  13  14
ATOM     14  C   UNL     1      -6.268  -5.723   4.628  0.00  0.00    +0.156 A 
ATOM     15  C   UNL     1      -5.156  -6.026   5.401  0.00  0.00    +0.048 A 
ATOM     16  C   UNL     1      -4.834  -5.232   6.484  0.00  0.00    +0.004 A 
ATOM     17  C   UNL     1      -5.618  -4.138   6.800  0.00  0.00    +0.000 A 
ATOM     18  C   UNL     1      -6.727  -3.835   6.031  0.00  0.00    +0.004 A 
ATOM     19  C   UNL     1      -7.050  -4.621   4.943  0.00  0.00    +0.048 A 
ENDBRANCH  13  14
ENDBRANCH  10  13
ENDBRANCH   6  10
ENDBRANCH   1   2
BRANCH   1  23
ATOM     20  C   UNL     1      -1.405  -1.941  -0.300  0.00  0.00    -0.047 A 
ATOM     21  C   UNL     1      -1.493  -2.734  -1.429  0.00  0.00    +0.004 A 
ATOM     22  C   UNL     1      -1.451  -4.110  -1.312  0.00  0.00    +0.005 A 
ATOM     23  C   UNL     1      -1.321  -4.695  -0.066  0.00  0.00    -0.029 A 
ATOM     24  C   UNL     1      -1.232  -3.902   1.063  0.00  0.00    +0.005 A 
ATOM     25  C   UNL     1      -1.269  -2.525   0.945  0.00  0.00    +0.004 A 
BRANCH  20  26
ATOM     26  C   UNL     1      -1.450  -0.440  -0.428  0.00  0.00    +0.035 C 
BRANCH  26  28
ATOM     27  C   UNL     1      -0.076   1.623  -0.742  0.00  0.00    +0.004 C 
ATOM     28  C   UNL     1      -0.030   0.099  -0.612  0.00  0.00    +0.001 C 
ENDBRANCH  26  28
ENDBRANCH  20  26
ENDBRANCH   1  23
BRANCH   1  29
ATOM     29  C   UNL     1       0.176  -6.651   0.219  0.00  0.00    +0.129 C 
BRANCH  29  30
ATOM     30  N   UNL     1       0.930  -6.307  -0.989  0.00  0.00    -0.192 NA
ATOM     31  H   UNL     1       0.459  -6.081  -1.806  0.00  0.00    +0.148 HD
BRANCH  30  32
ATOM     32  S   UNL     1       2.585  -6.302  -0.958  0.00  0.00    +0.032 S 
ATOM     33  O   UNL     1       2.971  -5.906  -2.267  0.00  0.00    -0.158 OA
ATOM     34  O   UNL     1       2.925  -5.505   0.169  0.00  0.00    -0.158 OA
BRANCH  32  35
ATOM     35  C   UNL     1       3.051  -8.030  -0.665  0.00  0.00    +0.142 C 
ATOM     36  C   UNL     1       2.509  -8.904  -1.798  0.00  0.00    +0.033 C 
ATOM     37  C   UNL     1       4.576  -8.146  -0.617  0.00  0.00    +0.033 C 
ENDBRANCH  32  35
ENDBRANCH  30  32
ENDBRANCH  29  30
ENDBRANCH   1  29
TORSDOF 11
