REMARK  Name = ZINC66952133
REMARK  7 active torsions:
REMARK  status: ('A' for Active; 'I' for Inactive)
REMARK    1  A    between atoms: C_10  and  C_11
REMARK    2  A    between atoms: C_10  and  O_30
REMARK    3  A    between atoms: C_11  and  N_12
REMARK    4  A    between atoms: N_15  and  C_16
REMARK    5  A    between atoms: C_20  and  O_22
REMARK    6  A    between atoms: O_22  and  C_23
REMARK    7  A    between atoms: C_23  and  C_24
REMARK                            x       y       z     vdW  Elec       q    Type
REMARK                         _______ _______ _______ _____ _____    ______ ____
ROOT
ATOM      1  N   UNL     1       4.874   1.449  -0.549  0.00  0.00    -0.296 N 
ATOM      2  C   UNL     1       5.558   2.325  -1.311  0.00  0.00    +0.304 C 
ATOM      3  O   UNL     1       6.250   1.924  -2.227  0.00  0.00    -0.253 OA
ATOM      4  N   UNL     1       5.475   3.647  -1.058  0.00  0.00    -0.269 N 
ATOM      5  H   UNL     1       4.322   1.770   0.181  0.00  0.00    +0.150 HD
ATOM      6  H   UNL     1       4.985   3.962  -0.283  0.00  0.00    +0.156 HD
ENDROOT
BRANCH   4   7
ATOM      7  C   UNL     1       6.097   4.563  -1.913  0.00  0.00    +0.038 A 
ATOM      8  C   UNL     1       6.628   5.741  -1.403  0.00  0.00    +0.023 A 
ATOM      9  C   UNL     1       7.242   6.646  -2.247  0.00  0.00    +0.005 A 
ATOM     10  C   UNL     1       7.329   6.383  -3.601  0.00  0.00    +0.046 A 
ATOM     11  C   UNL     1       6.800   5.208  -4.117  0.00  0.00    +0.122 A 
ATOM     12  C   UNL     1       6.189   4.294  -3.271  0.00  0.00    +0.069 A 
BRANCH  11  13
ATOM     13  O   UNL     1       6.886   4.950  -5.448  0.00  0.00    -0.489 OA
BRANCH  13  14
ATOM     14  C   UNL     1       7.534   5.933  -6.259  0.00  0.00    +0.260 C 
BRANCH  14  15
ATOM     15  C   UNL     1       7.534   5.471  -7.717  0.00  0.00    +0.156 C 
ATOM     16  C   UNL     1       8.151   6.563  -8.627  0.00  0.00    +0.037 C 
ATOM     17  C   UNL     1       8.640   5.706  -9.826  0.00  0.00    +0.031 C 
ATOM     18  C   UNL     1       9.061   4.389  -9.138  0.00  0.00    +0.160 C 
ATOM     19  O   UNL     1       8.383   4.323  -7.877  0.00  0.00    -0.373 OA
ENDBRANCH  14  15
ENDBRANCH  13  14
ENDBRANCH  11  13
ENDBRANCH   4   7
BRANCH   1  20
ATOM     20  C   UNL     1       4.963   0.013  -0.825  0.00  0.00    +0.145 C 
BRANCH  20  30
ATOM     21  C   UNL     1       4.431  -4.926  -0.698  0.00  0.00    +0.000 A 
ATOM     22  C   UNL     1       4.375  -4.002  -1.725  0.00  0.00    +0.000 A 
ATOM     23  C   UNL     1       4.252  -2.660  -1.433  0.00  0.00    +0.007 A 
ATOM     24  C   UNL     1       4.186  -2.227  -0.114  0.00  0.00    -0.011 A 
ATOM     25  C   UNL     1       4.247  -3.147   0.909  0.00  0.00    -0.041 A 
ATOM     26  C   UNL     1       4.366  -4.498   0.612  0.00  0.00    +0.004 A 
ATOM     27  C   UNL     1       4.197  -2.749   2.361  0.00  0.00    +0.035 C 
ATOM     28  C   UNL     1       3.643  -1.333   2.511  0.00  0.00    +0.008 C 
ATOM     29  C   UNL     1       4.423  -0.406   1.573  0.00  0.00    +0.041 C 
ATOM     30  C   UNL     1       4.045  -0.748   0.133  0.00  0.00    +0.107 C 
BRANCH  30  31
ATOM     31  O   UNL     1       2.691  -0.358  -0.104  0.00  0.00    -0.382 OA
ATOM     32  H   UNL     1       2.384  -0.529  -1.005  0.00  0.00    +0.211 HD
ENDBRANCH  30  31
ENDBRANCH  20  30
ENDBRANCH   1  20
TORSDOF 7
