REMARK  Name = ZINC06101544
REMARK  5 active torsions:
REMARK  status: ('A' for Active; 'I' for Inactive)
REMARK    1  A    between atoms: C_3  and  S_18
REMARK    2  A    between atoms: C_6  and  N_7
REMARK    3  A    between atoms: C_8  and  C_9
REMARK    4  A    between atoms: C_11  and  N_15
REMARK    5  A    between atoms: S_18  and  N_21
REMARK                            x       y       z     vdW  Elec       q    Type
REMARK                         _______ _______ _______ _____ _____    ______ ____
ROOT
ATOM      1  C   UNL     1       1.424   6.286  -0.837  0.00  0.00    +0.029 A 
ATOM      2  C   UNL     1       1.415   7.665  -0.822  0.00  0.00    +0.031 A 
ATOM      3  C   UNL     1       2.267   8.356   0.023  0.00  0.00    +0.109 A 
ATOM      4  C   UNL     1       3.128   7.670   0.860  0.00  0.00    +0.031 A 
ATOM      5  C   UNL     1       3.144   6.291   0.859  0.00  0.00    +0.029 A 
ATOM      6  C   UNL     1       2.288   5.587   0.009  0.00  0.00    +0.064 A 
ENDROOT
BRANCH   3   7
ATOM      7  S   UNL     1       2.253  10.118   0.031  0.00  0.00    +0.074 S 
ATOM      8  O   UNL     1       0.976  10.517  -0.446  0.00  0.00    -0.150 OA
ATOM      9  O   UNL     1       2.753  10.522   1.298  0.00  0.00    -0.150 OA
BRANCH   7  10
ATOM     10  N   UNL     1       3.358  10.621  -1.096  0.00  0.00    -0.198 N 
ATOM     11  C   UNL     1       3.151  10.345  -2.443  0.00  0.00    +0.160 A 
ATOM     12  C   UNL     1       4.077  10.772  -3.396  0.00  0.00    +0.050 A 
ATOM     13  C   UNL     1       3.829  10.468  -4.724  0.00  0.00    +0.045 A 
ATOM     14  C   UNL     1       2.668   9.765  -5.027  0.00  0.00    +0.152 A 
ATOM     15  N   UNL     1       1.845   9.405  -4.062  0.00  0.00    -0.136 NA
ATOM     16  N   UNL     1       2.073   9.680  -2.829  0.00  0.00    -0.131 NA
ATOM     17 CL   UNL     1       2.303   9.362  -6.675  0.00  0.00    -0.060 Cl
ATOM     18  H   UNL     1       4.149  11.108  -0.816  0.00  0.00    +0.175 HD
ENDBRANCH   7  10
ENDBRANCH   3   7
BRANCH   6  19
ATOM     19  N   UNL     1       2.299   4.218   0.002  0.00  0.00    -0.255 NA
ATOM     20  C   UNL     1       1.175   3.557   0.009  0.00  0.00    +0.123 C 
BRANCH  20  21
ATOM     21  C   UNL     1       1.187   2.087   0.002  0.00  0.00    +0.042 A 
ATOM     22  C   UNL     1      -0.017   1.374   0.010  0.00  0.00    +0.046 A 
ATOM     23  C   UNL     1       0.002  -0.004   0.002  0.00  0.00    +0.127 A 
ATOM     24  C   UNL     1       1.207  -0.687  -0.013  0.00  0.00    +0.036 A 
ATOM     25  C   UNL     1       2.403   0.005  -0.021  0.00  0.00    +0.054 A 
ATOM     26  C   UNL     1       2.405   1.391  -0.013  0.00  0.00    +0.188 A 
ATOM     27  O   UNL     1       3.579   2.071  -0.020  0.00  0.00    -0.287 OA
BRANCH  23  28
ATOM     28  N   UNL     1      -1.272  -0.758   0.010  0.00  0.00    +0.056 N 
ATOM     29  O   UNL     1      -2.333  -0.161   0.023  0.00  0.00    -0.126 OA
ATOM     30  O   UNL     1      -1.258  -1.976   0.003  0.00  0.00    -0.126 OA
ENDBRANCH  23  28
ENDBRANCH  20  21
ENDBRANCH   6  19
TORSDOF 5
