REMARK  Name = ZINC08562649
REMARK  7 active torsions:
REMARK  status: ('A' for Active; 'I' for Inactive)
REMARK    1  A    between atoms: C_1  and  C_2
REMARK    2  A    between atoms: C_2  and  C_4
REMARK    3  A    between atoms: C_2  and  O_17
REMARK    4  A    between atoms: N_6  and  N_7
REMARK    5  A    between atoms: C_8  and  C_10
REMARK    6  A    between atoms: O_17  and  C_18
REMARK    7  A    between atoms: C_21  and  N_24
REMARK                            x       y       z     vdW  Elec       q    Type
REMARK                         _______ _______ _______ _____ _____    ______ ____
ROOT
ATOM      1  C   UNL     1       0.625  -0.279  -1.346  0.00  0.00    +0.270 C 
ATOM      2  O   UNL     1      -0.046  -0.750  -2.240  0.00  0.00    -0.270 OA
ATOM      3  N   UNL     1       1.926   0.005  -1.557  0.00  0.00    -0.231 N 
ATOM      4  H   UNL     1       2.462   0.381  -0.842  0.00  0.00    +0.173 HD
ENDROOT
BRANCH   3   5
ATOM      5  N   UNL     1       2.503  -0.244  -2.809  0.00  0.00    -0.230 N 
ATOM      6  C   UNL     1       3.803   0.039  -3.020  0.00  0.00    +0.261 C 
ATOM      7  O   UNL     1       4.476   0.511  -2.124  0.00  0.00    -0.269 OA
ATOM      8  H   UNL     1       1.966  -0.621  -3.524  0.00  0.00    +0.173 HD
BRANCH   6   9
ATOM      9  C   UNL     1       4.412  -0.223  -4.341  0.00  0.00    +0.052 A 
ATOM     10  C   UNL     1       3.644  -0.770  -5.371  0.00  0.00    +0.014 A 
ATOM     11  C   UNL     1       4.217  -1.008  -6.602  0.00  0.00    +0.001 A 
ATOM     12  C   UNL     1       5.553  -0.716  -6.817  0.00  0.00    +0.001 A 
ATOM     13  C   UNL     1       6.321  -0.179  -5.800  0.00  0.00    +0.016 A 
ATOM     14  C   UNL     1       5.759   0.069  -4.563  0.00  0.00    +0.030 A 
ATOM     15 BR   UNL     1       6.812   0.803  -3.174  0.00  0.00    -0.050 Br
ENDBRANCH   6   9
ENDBRANCH   3   5
BRANCH   1  17
ATOM     16  C   UNL     1       0.003   1.495   0.272  0.00  0.00    +0.062 C 
ATOM     17  C   UNL     1       0.005  -0.011   0.001  0.00  0.00    +0.257 C 
BRANCH  17  18
ATOM     18  O   UNL     1      -1.339  -0.499   0.012  0.00  0.00    -0.480 OA
BRANCH  18  19
ATOM     19  C   UNL     1      -1.869  -0.818   1.222  0.00  0.00    +0.122 A 
ATOM     20  C   UNL     1      -1.153  -0.567   2.383  0.00  0.00    +0.048 A 
ATOM     21  C   UNL     1      -1.697  -0.888   3.612  0.00  0.00    +0.036 A 
ATOM     22  C   UNL     1      -2.949  -1.468   3.684  0.00  0.00    +0.126 A 
ATOM     23  C   UNL     1      -3.663  -1.724   2.528  0.00  0.00    +0.036 A 
ATOM     24  C   UNL     1      -3.126  -1.400   1.297  0.00  0.00    +0.048 A 
BRANCH  22  25
ATOM     25  N   UNL     1      -3.527  -1.815   5.002  0.00  0.00    +0.056 N 
ATOM     26  O   UNL     1      -4.631  -2.326   5.067  0.00  0.00    -0.126 OA
ATOM     27  O   UNL     1      -2.900  -1.591   6.021  0.00  0.00    -0.126 OA
ENDBRANCH  22  25
ENDBRANCH  18  19
ENDBRANCH  17  18
ENDBRANCH   1  17
TORSDOF 6
