REMARK  Name = ZINC13109796
REMARK  15 active torsions:
REMARK  status: ('A' for Active; 'I' for Inactive)
REMARK    1  A    between atoms: C_1  and  C_2
REMARK    2  A    between atoms: C_2  and  C_3
REMARK    3  A    between atoms: C_5  and  C_28
REMARK    4  A    between atoms: C_6  and  C_11
REMARK    5  A    between atoms: C_11  and  O_12
REMARK    6  A    between atoms: O_12  and  C_13
REMARK    7  A    between atoms: C_13  and  C_15
REMARK    8  A    between atoms: C_18  and  C_27
REMARK    9  A    between atoms: N_20  and  C_23
REMARK   10  A    between atoms: C_23  and  C_24
REMARK   11  A    between atoms: C_24  and  C_25
REMARK   12  A    between atoms: C_24  and  C_26
REMARK   13  A    between atoms: C_28  and  O_30
REMARK   14  A    between atoms: O_30  and  C_31
REMARK   15  A    between atoms: C_31  and  C_32
REMARK                            x       y       z     vdW  Elec       q    Type
REMARK                         _______ _______ _______ _____ _____    ______ ____
ROOT
ATOM      1  C   UNL     1       2.578   5.768  -0.386  0.00  0.00    +0.283 C 
ENDROOT
BRANCH   1   4
ATOM      2  C   UNL     1       1.170   9.282   0.341  0.00  0.00    +0.113 C 
ATOM      3  C   UNL     1       2.148   8.145   0.124  0.00  0.00    +0.077 C 
ATOM      4  C   UNL     1       1.641   6.926  -0.163  0.00  0.00    +0.061 C 
ATOM      5  N   UNL     1       0.293   6.729  -0.260  0.00  0.00    -0.269 N 
ATOM      6  C   UNL     1      -0.615   7.695  -0.073  0.00  0.00    +0.304 C 
ATOM      7  O   UNL     1      -1.794   7.421  -0.175  0.00  0.00    -0.252 OA
ATOM      8  N   UNL     1      -0.262   8.963   0.220  0.00  0.00    -0.292 N 
ATOM      9  H   UNL     1      -0.025   5.837  -0.472  0.00  0.00    +0.156 HD
ATOM     10  H   UNL     1      -0.936   9.649   0.347  0.00  0.00    +0.151 HD
BRANCH   2  12
ATOM     11  C   UNL     1       0.525  11.081   1.951  0.00  0.00    +0.006 C 
ATOM     12  C   UNL     1       1.409   9.849   1.742  0.00  0.00    +0.024 C 
ENDBRANCH   2  12
BRANCH   3  13
ATOM     13  C   UNL     1       3.544   8.352   0.219  0.00  0.00    +0.339 C 
ATOM     14  O   UNL     1       4.307   7.410   0.117  0.00  0.00    -0.245 OA
BRANCH  13  15
ATOM     15  O   UNL     1       4.029   9.595   0.423  0.00  0.00    -0.462 OA
BRANCH  15  16
ATOM     16  C   UNL     1       5.449   9.731   0.508  0.00  0.00    +0.229 C 
ATOM     17  C   UNL     1       5.807  11.201   0.739  0.00  0.00    +0.048 C 
ENDBRANCH  15  16
ENDBRANCH  13  15
ENDBRANCH   3  13
ENDBRANCH   1   4
BRANCH   1  18
ATOM     18  O   UNL     1       1.818   4.606  -0.811  0.00  0.00    -0.455 OA
BRANCH  18  19
ATOM     19  C   UNL     1       2.513   3.475  -1.055  0.00  0.00    +0.346 C 
ATOM     20  O   UNL     1       3.721   3.462  -0.916  0.00  0.00    -0.244 OA
BRANCH  19  21
ATOM     21  C   UNL     1       1.813   2.264  -1.488  0.00  0.00    +0.099 A 
ATOM     22  C   UNL     1       2.333   1.038  -1.781  0.00  0.00    +0.034 A 
ATOM     23  C   UNL     1       1.478  -0.000  -2.182  0.00  0.00    +0.031 A 
ATOM     24  C   UNL     1       1.553  -1.377  -2.571  0.00  0.00    +0.068 A 
ATOM     25  N   UNL     1       0.357  -1.809  -2.838  0.00  0.00    -0.175 NA
ATOM     26  N   UNL     1      -0.566  -0.772  -2.648  0.00  0.00    -0.257 N 
ATOM     27  C   UNL     1       0.114   0.320  -2.252  0.00  0.00    +0.107 A 
ATOM     28  S   UNL     1       0.066   2.025  -1.764  0.00  0.00    -0.062 S 
ATOM     29  C   UNL     1       2.816  -2.194  -2.658  0.00  0.00    +0.068 C 
BRANCH  26  30
ATOM     30  C   UNL     1      -2.014  -0.862  -2.846  0.00  0.00    +0.147 C 
BRANCH  30  31
ATOM     31  C   UNL     1      -2.356  -0.494  -4.291  0.00  0.00    +0.004 C 
ATOM     32  C   UNL     1      -3.852  -0.707  -4.532  0.00  0.00    +0.009 C 
ATOM     33  C   UNL     1      -2.003   0.973  -4.541  0.00  0.00    +0.009 C 
ENDBRANCH  30  31
ENDBRANCH  26  30
ENDBRANCH  19  21
ENDBRANCH  18  19
ENDBRANCH   1  18
TORSDOF 10
