REMARK  Name = ZINC21142469
REMARK  5 active torsions:
REMARK  status: ('A' for Active; 'I' for Inactive)
REMARK    1  A    between atoms: C_4  and  N_15
REMARK    2  A    between atoms: C_5  and  C_7
REMARK    3  A    between atoms: C_16  and  C_18
REMARK    4  A    between atoms: C_19  and  C_20
REMARK    5  A    between atoms: C_24  and  N_26
REMARK                            x       y       z     vdW  Elec       q    Type
REMARK                         _______ _______ _______ _____ _____    ______ ____
ROOT
ATOM      1  C   UNL     1      -2.658  12.250   0.368  0.00  0.00    +0.001 A 
ATOM      2  C   UNL     1      -1.429  11.620   0.250  0.00  0.00    +0.002 A 
ATOM      3  C   UNL     1      -1.355  10.246   0.145  0.00  0.00    +0.024 A 
ATOM      4  C   UNL     1      -2.516   9.484   0.157  0.00  0.00    +0.046 A 
ATOM      5  C   UNL     1      -3.762  10.118   0.271  0.00  0.00    +0.058 A 
ATOM      6  C   UNL     1      -3.820  11.510   0.381  0.00  0.00    +0.015 A 
ENDROOT
BRANCH   5   7
ATOM      7  C   UNL     1      -5.003   9.321   0.278  0.00  0.00    +0.251 C 
ATOM      8  O   UNL     1      -4.945   8.107   0.284  0.00  0.00    -0.270 OA
ATOM      9  N   UNL     1      -6.201   9.939   0.278  0.00  0.00    -0.261 N 
ATOM     10  C   UNL     1      -7.369   9.188   0.286  0.00  0.00    +0.165 A 
ATOM     11  N   UNL     1      -7.511   7.877   0.287  0.00  0.00    -0.233 NA
ATOM     12  C   UNL     1      -8.707   7.319   0.298  0.00  0.00    +0.120 A 
ATOM     13  C   UNL     1      -9.796   8.126   0.297  0.00  0.00    +0.068 A 
ATOM     14  S   UNL     1      -9.017   9.735   0.287  0.00  0.00    -0.061 S 
ATOM     15  H   UNL     1      -6.253  11.038   0.273  0.00  0.00    +0.157 HD
ENDBRANCH   5   7
BRANCH   4  16
ATOM     16  N   UNL     1      -2.444   8.098   0.052  0.00  0.00    -0.281 N 
ATOM     17  C   UNL     1      -1.419   7.431   0.620  0.00  0.00    +0.241 C 
ATOM     18  O   UNL     1      -0.515   8.046   1.154  0.00  0.00    -0.270 OA
ATOM     19  H   UNL     1      -3.223   7.547  -0.495  0.00  0.00    +0.155 HD
BRANCH  17  20
ATOM     20  C   UNL     1      -1.394   5.968   0.594  0.00  0.00    +0.068 C 
ATOM     21  C   UNL     1      -0.369   5.301   1.162  0.00  0.00    +0.013 C 
BRANCH  21  22
ATOM     22  C   UNL     1      -0.344   3.830   1.135  0.00  0.00    -0.023 A 
ATOM     23  C   UNL     1      -1.382   3.120   0.523  0.00  0.00    +0.008 A 
ATOM     24  C   UNL     1      -1.349   1.742   0.498  0.00  0.00    +0.003 A 
ATOM     25  C   UNL     1      -0.297   1.060   1.087  0.00  0.00    +0.033 A 
ATOM     26  C   UNL     1       0.733   1.756   1.695  0.00  0.00    +0.127 A 
ATOM     27  C   UNL     1       0.717   3.134   1.723  0.00  0.00    +0.040 A 
BRANCH  26  28
ATOM     28  N   UNL     1       1.855   1.018   2.317  0.00  0.00    +0.056 N 
ATOM     29  O   UNL     1       1.871  -0.200   2.294  0.00  0.00    -0.126 OA
ATOM     30  O   UNL     1       2.763   1.628   2.853  0.00  0.00    -0.126 OA
ENDBRANCH  26  28
ENDBRANCH  21  22
ENDBRANCH  17  20
ENDBRANCH   4  16
TORSDOF 5
