REMARK  Name = ZINC10323642
REMARK  6 active torsions:
REMARK  status: ('A' for Active; 'I' for Inactive)
REMARK    1  A    between atoms: C_1  and  C_2
REMARK    2  A    between atoms: C_2  and  N_3
REMARK    3  A    between atoms: N_14  and  N_15
REMARK    4  A    between atoms: C_16  and  C_18
REMARK    5  A    between atoms: N_21  and  C_24
REMARK    6  A    between atoms: C_29  and  N_30
REMARK                            x       y       z     vdW  Elec       q    Type
REMARK                         _______ _______ _______ _____ _____    ______ ____
ROOT
ATOM      1  N   UNL     1      -3.016  -1.199   1.722  0.00  0.00    -0.234 N 
ATOM      2  C   UNL     1      -3.332  -2.372   1.139  0.00  0.00    +0.232 C 
ATOM      3  O   UNL     1      -2.743  -2.731   0.141  0.00  0.00    -0.274 OA
ATOM      4  H   UNL     1      -3.488  -0.912   2.520  0.00  0.00    +0.173 HD
ENDROOT
BRANCH   1  16
ATOM      5  N   UNL     1      -0.698   1.558   1.213  0.00  0.00    -0.280 N 
ATOM      6  C   UNL     1      -0.343   2.741   1.767  0.00  0.00    +0.263 A 
ATOM      7  O   UNL     1       0.539   3.425   1.283  0.00  0.00    -0.267 OA
ATOM      8  C   UNL     1      -1.066   3.171   2.972  0.00  0.00    +0.065 A 
ATOM      9  C   UNL     1      -0.778   4.374   3.615  0.00  0.00    +0.015 A 
ATOM     10  C   UNL     1      -1.477   4.723   4.737  0.00  0.00    +0.001 A 
ATOM     11  C   UNL     1      -2.470   3.892   5.242  0.00  0.00    +0.002 A 
ATOM     12  C   UNL     1      -2.772   2.707   4.632  0.00  0.00    +0.028 A 
ATOM     13  C   UNL     1      -2.075   2.323   3.483  0.00  0.00    +0.080 A 
ATOM     14  N   UNL     1      -2.341   1.158   2.847  0.00  0.00    -0.214 NA
ATOM     15  C   UNL     1      -1.686   0.800   1.771  0.00  0.00    +0.216 A 
ATOM     16  N   UNL     1      -2.007  -0.395   1.177  0.00  0.00    -0.234 N 
ATOM     17  H   UNL     1      -1.536  -0.682   0.379  0.00  0.00    +0.173 HD
BRANCH   5  19
ATOM     18  C   UNL     1      -0.753   1.593  -1.232  0.00  0.00    +0.027 C 
ATOM     19  C   UNL     1      -0.013   1.086   0.008  0.00  0.00    +0.125 C 
ENDBRANCH   5  19
ENDBRANCH   1  16
BRANCH   2  20
ATOM     20  C   UNL     1      -4.417  -3.238   1.726  0.00  0.00    +0.079 C 
ATOM     21  C   UNL     1      -4.041  -3.630   3.157  0.00  0.00    +0.032 C 
ATOM     22  C   UNL     1      -5.116  -4.559   3.725  0.00  0.00    +0.106 C 
ATOM     23  N   UNL     1      -5.227  -5.756   2.883  0.00  0.00    -0.328 N 
ATOM     24  C   UNL     1      -5.634  -5.408   1.516  0.00  0.00    +0.106 C 
ATOM     25  C   UNL     1      -4.574  -4.505   0.881  0.00  0.00    +0.032 C 
BRANCH  23  26
ATOM     26  C   UNL     1      -6.106  -6.685   3.445  0.00  0.00    +0.060 A 
ATOM     27  C   UNL     1      -7.450  -6.368   3.597  0.00  0.00    +0.025 A 
ATOM     28  C   UNL     1      -8.318  -7.290   4.148  0.00  0.00    +0.002 A 
ATOM     29  C   UNL     1      -7.847  -8.524   4.560  0.00  0.00    +0.002 A 
ATOM     30  C   UNL     1      -6.509  -8.841   4.416  0.00  0.00    +0.034 A 
ATOM     31  C   UNL     1      -5.637  -7.925   3.860  0.00  0.00    +0.147 A 
BRANCH  31  32
ATOM     32  N   UNL     1      -4.205  -8.264   3.707  0.00  0.00    +0.058 N 
ATOM     33  O   UNL     1      -3.794  -9.352   4.070  0.00  0.00    -0.126 OA
ATOM     34  O   UNL     1      -3.437  -7.456   3.217  0.00  0.00    -0.126 OA
ENDBRANCH  31  32
ENDBRANCH  23  26
ENDBRANCH   2  20
TORSDOF 5
