REMARK  Name = ZINC12478226
REMARK  14 active torsions:
REMARK  status: ('A' for Active; 'I' for Inactive)
REMARK    1  A    between atoms: C_1  and  C_2
REMARK    2  A    between atoms: C_5  and  C_7
REMARK    3  A    between atoms: C_7  and  C_9
REMARK    4  A    between atoms: C_7  and  N_16
REMARK    5  A    between atoms: N_11  and  C_12
REMARK    6  A    between atoms: C_12  and  C_13
REMARK    7  A    between atoms: C_12  and  C_14
REMARK    8  A    between atoms: C_12  and  C_15
REMARK    9  A    between atoms: N_16  and  C_17
REMARK   10  A    between atoms: C_17  and  C_18
REMARK   11  A    between atoms: C_18  and  O_19
REMARK   12  A    between atoms: C_20  and  C_22
REMARK   13  A    between atoms: C_22  and  N_23
REMARK   14  A    between atoms: C_25  and  C_28
REMARK                            x       y       z     vdW  Elec       q    Type
REMARK                         _______ _______ _______ _____ _____    ______ ____
ROOT
ATOM      1  N   UNL     1      -3.424   1.317  -0.034  0.00  0.00    -0.280 N 
ATOM      2  C   UNL     1      -4.105   1.426   1.124  0.00  0.00    +0.240 C 
ATOM      3  O   UNL     1      -3.905   0.636   2.022  0.00  0.00    -0.273 OA
ENDROOT
BRANCH   1   4
ATOM      4  C   UNL     1      -2.442   0.245  -0.208  0.00  0.00    +0.228 C 
BRANCH   4   9
ATOM      5  C   UNL     1      -0.024   1.287   4.094  0.00  0.00    +0.086 C 
ATOM      6  C   UNL     1      -0.283   0.862   2.672  0.00  0.00    +0.102 A 
ATOM      7  C   UNL     1       0.646   0.438   1.796  0.00  0.00    +0.045 A 
ATOM      8  C   UNL     1      -0.033   0.141   0.592  0.00  0.00    +0.047 A 
ATOM      9  C   UNL     1      -1.334   0.409   0.801  0.00  0.00    +0.135 A 
ATOM     10  O   UNL     1      -1.480   0.842   2.064  0.00  0.00    -0.462 OA
ENDBRANCH   4   9
BRANCH   4  11
ATOM     11  C   UNL     1      -3.113  -1.089  -0.004  0.00  0.00    +0.242 C 
ATOM     12  O   UNL     1      -4.295  -1.139   0.261  0.00  0.00    -0.273 OA
ATOM     13  N   UNL     1      -2.399  -2.227  -0.115  0.00  0.00    -0.309 N 
ATOM     14  H   UNL     1      -1.453  -2.187  -0.327  0.00  0.00    +0.149 HD
BRANCH  13  15
ATOM     15  C   UNL     1      -3.051  -3.523   0.089  0.00  0.00    +0.026 C 
ATOM     16  C   UNL     1      -4.174  -3.696  -0.935  0.00  0.00    +0.031 C 
ATOM     17  C   UNL     1      -2.023  -4.643  -0.087  0.00  0.00    +0.031 C 
ATOM     18  C   UNL     1      -3.634  -3.584   1.502  0.00  0.00    +0.031 C 
ENDBRANCH  13  15
ENDBRANCH   4  11
ENDBRANCH   1   4
BRANCH   1  19
ATOM     19  C   UNL     1      -3.666   2.272  -1.119  0.00  0.00    +0.137 C 
BRANCH  19  20
ATOM     20  C   UNL     1      -4.677   1.680  -2.102  0.00  0.00    +0.175 C 
BRANCH  20  21
ATOM     21  O   UNL     1      -5.936   1.513  -1.448  0.00  0.00    -0.393 OA
ATOM     22  H   UNL     1      -6.627   1.141  -2.013  0.00  0.00    +0.209 HD
ENDBRANCH  20  21
ENDBRANCH  19  20
ENDBRANCH   1  19
BRANCH   2  23
ATOM     23  C   UNL     1      -5.115   2.530   1.303  0.00  0.00    +0.264 C 
BRANCH  23  24
ATOM     24  N   UNL     1      -5.714   2.433   2.636  0.00  0.00    -0.154 N 
ATOM     25  N   UNL     1      -6.774   1.761   2.930  0.00  0.00    -0.130 NA
ATOM     26  C   UNL     1      -7.001   1.910   4.220  0.00  0.00    +0.205 A 
ATOM     27  N   UNL     1      -6.034   2.710   4.690  0.00  0.00    -0.108 NA
ATOM     28  N   UNL     1      -5.268   3.009   3.697  0.00  0.00    -0.045 NA
BRANCH  26  29
ATOM     29  C   UNL     1      -8.115   1.313   4.999  0.00  0.00    +0.023 A 
ATOM     30  C   UNL     1      -9.054   0.501   4.366  0.00  0.00    +0.014 A 
ATOM     31  C   UNL     1     -10.084  -0.056   5.095  0.00  0.00    +0.039 A 
ATOM     32  C   UNL     1     -10.193   0.200   6.452  0.00  0.00    +0.123 A 
ATOM     33  C   UNL     1      -9.265   1.011   7.084  0.00  0.00    +0.039 A 
ATOM     34  C   UNL     1      -8.228   1.568   6.364  0.00  0.00    +0.014 A 
ATOM     35  F   UNL     1     -11.207  -0.343   7.161  0.00  0.00    -0.205 F 
ENDBRANCH  26  29
ENDBRANCH  23  24
ENDBRANCH   2  23
TORSDOF 10
