REMARK  Name = ZINC02344516
REMARK  8 active torsions:
REMARK  status: ('A' for Active; 'I' for Inactive)
REMARK    1  A    between atoms: C_1  and  N_2
REMARK    2  A    between atoms: C_3  and  C_5
REMARK    3  A    between atoms: C_9  and  N_10
REMARK    4  A    between atoms: C_11  and  C_13
REMARK    5  A    between atoms: C_14  and  N_27
REMARK    6  A    between atoms: N_15  and  C_19
REMARK    7  A    between atoms: C_22  and  O_25
REMARK    8  A    between atoms: O_25  and  C_26
REMARK                            x       y       z     vdW  Elec       q    Type
REMARK                         _______ _______ _______ _____ _____    ______ ____
ROOT
ATOM      1  N   UNL     1      -1.289   1.180   4.956  0.00  0.00    -0.275 N 
ATOM      2  C   UNL     1      -2.065   1.841   5.837  0.00  0.00    +0.259 C 
ATOM      3  O   UNL     1      -2.762   2.767   5.460  0.00  0.00    -0.269 OA
ATOM      4  H   UNL     1      -0.734   0.443   5.257  0.00  0.00    +0.156 HD
ENDROOT
BRANCH   1   9
ATOM      5  C   UNL     1      -0.558   0.998   2.575  0.00  0.00    +0.069 A 
ATOM      6  C   UNL     1      -0.732   1.580   1.257  0.00  0.00    -0.023 A 
ATOM      7  C   UNL     1      -1.601   2.614   1.194  0.00  0.00    -0.004 A 
ATOM      8  S   UNL     1      -2.178   2.821   2.855  0.00  0.00    -0.077 S 
ATOM      9  C   UNL     1      -1.283   1.552   3.622  0.00  0.00    +0.085 A 
ATOM     10  C   UNL     1      -1.979   3.405  -0.021  0.00  0.00    +0.043 C 
ATOM     11  C   UNL     1      -0.956   3.111  -1.127  0.00  0.00    +0.005 C 
ATOM     12  C   UNL     1      -0.758   1.595  -1.227  0.00  0.00    +0.005 C 
ATOM     13  C   UNL     1      -0.013   1.086   0.008  0.00  0.00    +0.037 C 
BRANCH   5  16
ATOM     14  C   UNL     1       2.551  -1.034   3.322  0.00  0.00    +0.128 C 
ATOM     15  N   UNL     1       1.643   0.095   3.104  0.00  0.00    -0.314 N 
ATOM     16  C   UNL     1       0.351  -0.131   2.793  0.00  0.00    +0.246 C 
ATOM     17  O   UNL     1      -0.061  -1.272   2.693  0.00  0.00    -0.270 OA
ATOM     18  H   UNL     1       1.971   1.004   3.184  0.00  0.00    +0.149 HD
ENDBRANCH   5  16
ENDBRANCH   1   9
BRANCH   2  19
ATOM     19  C   UNL     1      -2.071   1.462   7.196  0.00  0.00    +0.115 A 
ATOM     20  C   UNL     1      -2.780   1.997   8.245  0.00  0.00    +0.121 A 
ATOM     21  N   UNL     1      -2.607   1.447   9.465  0.00  0.00    -0.285 N 
ATOM     22  C   UNL     1      -1.759   0.407   9.619  0.00  0.00    +0.132 A 
ATOM     23  S   UNL     1      -1.372  -0.454  11.047  0.00  0.00    -0.024 S 
ATOM     24  S   UNL     1      -1.165   0.155   8.008  0.00  0.00    -0.055 S 
BRANCH  21  25
ATOM     25  C   UNL     1      -3.306   1.954  10.571  0.00  0.00    +0.050 A 
ATOM     26  C   UNL     1      -3.053   3.243  11.020  0.00  0.00    +0.030 A 
ATOM     27  C   UNL     1      -3.745   3.744  12.105  0.00  0.00    +0.047 A 
ATOM     28  C   UNL     1      -4.684   2.954  12.753  0.00  0.00    +0.120 A 
ATOM     29  C   UNL     1      -4.933   1.664  12.308  0.00  0.00    +0.047 A 
ATOM     30  C   UNL     1      -4.246   1.165  11.220  0.00  0.00    +0.030 A 
BRANCH  28  31
ATOM     31  O   UNL     1      -5.361   3.446  13.826  0.00  0.00    -0.495 OA
ATOM     32  C   UNL     1      -5.054   4.782  14.229  0.00  0.00    +0.277 C 
ENDBRANCH  28  31
ENDBRANCH  21  25
BRANCH  20  33
ATOM     33  N   UNL     1      -3.638   3.058   8.056  0.00  0.00    -0.343 N 
ATOM     34  H   UNL     1      -3.750   3.440   7.172  0.00  0.00    +0.144 HD
ATOM     35  H   UNL     1      -4.131   3.422   8.808  0.00  0.00    +0.144 HD
ENDBRANCH  20  33
ENDBRANCH   2  19
TORSDOF 6
