REMARK  Name = ZINC04703664
REMARK  10 active torsions:
REMARK  status: ('A' for Active; 'I' for Inactive)
REMARK    1  A    between atoms: C_1  and  C_2
REMARK    2  A    between atoms: C_5  and  C_8
REMARK    3  A    between atoms: N_13  and  C_16
REMARK    4  A    between atoms: C_19  and  N_28
REMARK    5  A    between atoms: C_20  and  N_22
REMARK    6  A    between atoms: N_22  and  C_23
REMARK    7  A    between atoms: C_23  and  C_24
REMARK    8  A    between atoms: C_24  and  C_25
REMARK    9  A    between atoms: C_24  and  C_26
REMARK   10  A    between atoms: C_24  and  C_27
REMARK                            x       y       z     vdW  Elec       q    Type
REMARK                         _______ _______ _______ _____ _____    ______ ____
ROOT
ATOM      1  C   UNL     1       5.724  -4.779   1.404  0.00  0.00    +0.032 A 
ATOM      2  C   UNL     1       5.335  -5.605   2.452  0.00  0.00    +0.025 A 
ATOM      3  C   UNL     1       6.285  -6.141   3.299  0.00  0.00    +0.036 A 
ATOM      4  C   UNL     1       7.623  -5.850   3.115  0.00  0.00    +0.147 A 
ATOM      5  C   UNL     1       8.018  -5.020   2.073  0.00  0.00    +0.059 A 
ATOM      6  C   UNL     1       7.067  -4.484   1.216  0.00  0.00    +0.048 A 
ENDROOT
BRANCH   1  12
ATOM      7  C   UNL     1       1.497  -1.952  -0.283  0.00  0.00    +0.247 C 
ATOM      8  O   UNL     1       0.405  -2.394   0.017  0.00  0.00    -0.270 OA
ATOM      9  N   UNL     1       2.565  -2.772  -0.334  0.00  0.00    -0.295 N 
ATOM     10  C   UNL     1       3.913  -2.240  -0.587  0.00  0.00    +0.127 C 
ATOM     11  C   UNL     1       4.855  -2.776   0.503  0.00  0.00    +0.124 C 
ATOM     12  N   UNL     1       4.764  -4.242   0.544  0.00  0.00    -0.327 N 
ATOM     13  C   UNL     1       3.414  -4.681   0.922  0.00  0.00    +0.124 C 
ATOM     14  C   UNL     1       2.414  -4.222  -0.145  0.00  0.00    +0.127 C 
BRANCH   7  19
ATOM     15  C   UNL     1       2.103   3.644  -1.482  0.00  0.00    +0.044 C 
ATOM     16  C   UNL     1       1.945   2.179  -1.167  0.00  0.00    -0.050 A 
ATOM     17  C   UNL     1       1.012   1.772  -0.230  0.00  0.00    +0.004 A 
ATOM     18  C   UNL     1       0.862   0.432   0.062  0.00  0.00    +0.013 A 
ATOM     19  C   UNL     1       1.653  -0.514  -0.591  0.00  0.00    +0.037 A 
ATOM     20  C   UNL     1       2.591  -0.098  -1.536  0.00  0.00    +0.013 A 
ATOM     21  C   UNL     1       2.732   1.246  -1.819  0.00  0.00    +0.004 A 
ENDBRANCH   7  19
ENDBRANCH   1  12
BRANCH   4  22
ATOM     22  N   UNL     1       8.637  -6.422   4.030  0.00  0.00    +0.058 N 
ATOM     23  O   UNL     1       8.514  -7.563   4.437  0.00  0.00    -0.126 OA
ATOM     24  O   UNL     1       9.594  -5.752   4.374  0.00  0.00    -0.126 OA
ENDBRANCH   4  22
BRANCH   5  25
ATOM     25  N   UNL     1       9.371  -4.726   1.888  0.00  0.00    -0.342 N 
ATOM     26  H   UNL     1      10.044  -5.187   2.413  0.00  0.00    +0.146 HD
BRANCH  25  27
ATOM     27  C   UNL     1       9.774  -3.721   0.901  0.00  0.00    +0.107 C 
BRANCH  27  28
ATOM     28  C   UNL     1      11.298  -3.592   0.897  0.00  0.00    -0.022 C 
ATOM     29  C   UNL     1      11.924  -4.941   0.537  0.00  0.00    +0.012 C 
ATOM     30  C   UNL     1      11.719  -2.543  -0.134  0.00  0.00    +0.012 C 
ATOM     31  C   UNL     1      11.777  -3.163   2.286  0.00  0.00    +0.012 C 
ENDBRANCH  27  28
ENDBRANCH  25  27
ENDBRANCH   5  25
TORSDOF 6
