REMARK  Name = ZINC23259744
REMARK  12 active torsions:
REMARK  status: ('A' for Active; 'I' for Inactive)
REMARK    1  A    between atoms: C_1  and  C_2
REMARK    2  A    between atoms: C_2  and  C_4
REMARK    3  A    between atoms: C_2  and  N_14
REMARK    4  A    between atoms: C_7  and  S_10
REMARK    5  A    between atoms: S_10  and  N_13
REMARK    6  A    between atoms: N_14  and  C_15
REMARK    7  A    between atoms: N_14  and  C_16
REMARK    8  A    between atoms: C_16  and  C_17
REMARK    9  A    between atoms: N_19  and  C_20
REMARK   10  A    between atoms: N_19  and  C_21
REMARK   11  A    between atoms: C_21  and  C_22
REMARK   12  A    between atoms: N_24  and  C_25
REMARK                            x       y       z     vdW  Elec       q    Type
REMARK                         _______ _______ _______ _____ _____    ______ ____
ROOT
ATOM      1  N   UNL     1      -3.404   4.483   4.933  0.00  0.00    +0.388 N 
ATOM      2  C   UNL     1      -2.159   5.254   4.806  0.00  0.00    -0.095 C 
ATOM      3  H   UNL     1      -4.008   4.667   4.033  0.00  0.00    -0.081 HD
ENDROOT
BRANCH   1   5
ATOM      4  C   UNL     1      -2.265   2.749   6.235  0.00  0.00    -0.008 C 
ATOM      5  C   UNL     1      -3.125   3.042   5.004  0.00  0.00    -0.041 C 
BRANCH   5   6
ATOM      6  C   UNL     1      -2.389   2.611   3.763  0.00  0.00    -0.061 A 
ATOM      7  C   UNL     1      -1.352   1.701   3.855  0.00  0.00    +0.004 A 
ATOM      8  C   UNL     1      -0.676   1.306   2.715  0.00  0.00    +0.029 A 
ATOM      9  C   UNL     1      -1.037   1.820   1.484  0.00  0.00    +0.105 A 
ATOM     10  C   UNL     1      -2.071   2.733   1.393  0.00  0.00    +0.029 A 
ATOM     11  C   UNL     1      -2.749   3.126   2.531  0.00  0.00    +0.004 A 
BRANCH   9  12
ATOM     12  S   UNL     1      -0.176   1.316   0.032  0.00  0.00    +0.056 S 
ATOM     13  O   UNL     1       1.107   0.873   0.454  0.00  0.00    -0.153 OA
ATOM     14  O   UNL     1      -0.348   2.354  -0.923  0.00  0.00    -0.153 OA
BRANCH  12  15
ATOM     15  N   UNL     1      -0.962  -0.013  -0.567  0.00  0.00    -0.204 NA
ATOM     16  H   UNL     1      -0.453  -0.360  -1.478  0.00  0.00    +0.144 HD
ATOM     17  H   UNL     1      -2.002   0.253  -0.807  0.00  0.00    +0.144 HD
ENDBRANCH  12  15
ENDBRANCH   9  12
ENDBRANCH   5   6
ENDBRANCH   1   5
BRANCH   1  18
ATOM     18  C   UNL     1      -4.181   4.927   6.098  0.00  0.00    +0.019 C 
BRANCH  18  19
ATOM     19  C   UNL     1      -4.656   6.340   5.876  0.00  0.00    +0.199 C 
ATOM     20  O   UNL     1      -4.374   6.920   4.849  0.00  0.00    -0.278 OA
ATOM     21  N   UNL     1      -5.394   6.959   6.819  0.00  0.00    -0.297 N 
ATOM     22  C   UNL     1      -5.734   6.258   8.059  0.00  0.00    +0.132 C 
BRANCH  21  23
ATOM     23  C   UNL     1      -5.855   8.333   6.603  0.00  0.00    +0.203 C 
BRANCH  23  24
ATOM     24  C   UNL     1      -7.201   8.310   5.924  0.00  0.00    +0.235 C 
ATOM     25  O   UNL     1      -7.723   7.250   5.648  0.00  0.00    -0.274 OA
ATOM     26  N   UNL     1      -7.824   9.466   5.624  0.00  0.00    -0.283 N 
ATOM     27  H   UNL     1      -7.380  10.425   5.928  0.00  0.00    +0.155 HD
BRANCH  26  28
ATOM     28  C   UNL     1      -9.037   9.447   4.926  0.00  0.00    +0.052 A 
ATOM     29  C   UNL     1      -9.943   8.415   5.132  0.00  0.00    +0.025 A 
ATOM     30  C   UNL     1     -11.141   8.402   4.446  0.00  0.00    +0.002 A 
ATOM     31  C   UNL     1     -11.435   9.409   3.545  0.00  0.00    +0.002 A 
ATOM     32  C   UNL     1     -10.534  10.435   3.332  0.00  0.00    +0.022 A 
ATOM     33  C   UNL     1      -9.335  10.458   4.020  0.00  0.00    +0.062 A 
ATOM     34 CL   UNL     1      -8.203  11.746   3.752  0.00  0.00    -0.082 Cl
ENDBRANCH  26  28
ENDBRANCH  23  24
ENDBRANCH  21  23
ENDBRANCH  18  19
ENDBRANCH   1  18
TORSDOF 9
