REMARK  Name = ZINC36499755
REMARK  11 active torsions:
REMARK  status: ('A' for Active; 'I' for Inactive)
REMARK    1  A    between atoms: C_1  and  C_2
REMARK    2  A    between atoms: C_2  and  C_3
REMARK    3  A    between atoms: C_2  and  C_4
REMARK    4  A    between atoms: C_2  and  N_5
REMARK    5  A    between atoms: C_6  and  C_8
REMARK    6  A    between atoms: C_8  and  C_10
REMARK    7  A    between atoms: C_8  and  N_15
REMARK    8  A    between atoms: N_15  and  C_16
REMARK    9  A    between atoms: C_16  and  C_17
REMARK   10  A    between atoms: C_22  and  C_24
REMARK   11  A    between atoms: C_26  and  N_31
REMARK                            x       y       z     vdW  Elec       q    Type
REMARK                         _______ _______ _______ _____ _____    ______ ____
ROOT
ATOM      1  N   UNL     1       5.057  -1.410  -5.164  0.00  0.00    -0.272 N 
ATOM      2  C   UNL     1       6.222  -2.086  -5.111  0.00  0.00    +0.252 C 
ATOM      3  O   UNL     1       6.992  -2.046  -6.051  0.00  0.00    -0.270 OA
ENDROOT
BRANCH   2   4
ATOM      4  C   UNL     1       6.564  -2.874  -3.912  0.00  0.00    +0.086 A 
ATOM      5  C   UNL     1       6.311  -2.360  -2.637  0.00  0.00    +0.049 A 
ATOM      6  C   UNL     1       6.632  -3.102  -1.521  0.00  0.00    +0.127 A 
ATOM      7  C   UNL     1       7.205  -4.356  -1.656  0.00  0.00    +0.036 A 
ATOM      8  C   UNL     1       7.461  -4.876  -2.909  0.00  0.00    +0.054 A 
ATOM      9  C   UNL     1       7.138  -4.146  -4.044  0.00  0.00    +0.191 A 
ATOM     10  O   UNL     1       7.383  -4.658  -5.276  0.00  0.00    -0.287 OA
BRANCH   6  11
ATOM     11  N   UNL     1       6.365  -2.555  -0.172  0.00  0.00    +0.056 N 
ATOM     12  O   UNL     1       5.865  -1.461  -0.051  0.00  0.00    -0.126 OA
ATOM     13  O   UNL     1       6.646  -3.204   0.809  0.00  0.00    -0.126 OA
ENDBRANCH   6  11
ENDBRANCH   2   4
BRANCH   1  14
ATOM     14  C   UNL     1       4.698  -0.662  -6.372  0.00  0.00    +0.229 C 
BRANCH  14  15
ATOM     15  C   UNL     1       3.283  -0.161  -6.250  0.00  0.00    +0.134 A 
ATOM     16  C   UNL     1       2.274  -0.440  -7.095  0.00  0.00    +0.047 A 
ATOM     17  C   UNL     1       1.131   0.233  -6.604  0.00  0.00    +0.041 A 
ATOM     18  C   UNL     1       1.510   0.882  -5.489  0.00  0.00    +0.195 A 
ATOM     19  O   UNL     1       2.812   0.636  -5.276  0.00  0.00    -0.465 OA
ENDBRANCH  14  15
BRANCH  14  21
ATOM     20  N   UNL     1       5.493   1.343  -7.582  0.00  0.00    -0.309 N 
ATOM     21  C   UNL     1       5.634   0.508  -6.534  0.00  0.00    +0.242 C 
ATOM     22  O   UNL     1       6.513   0.699  -5.721  0.00  0.00    -0.273 OA
ATOM     23  H   UNL     1       4.789   1.190  -8.232  0.00  0.00    +0.149 HD
BRANCH  20  25
ATOM     24  C   UNL     1       7.839   1.972  -7.864  0.00  0.00    +0.031 C 
ATOM     25  C   UNL     1       6.402   2.481  -7.740  0.00  0.00    +0.026 C 
ATOM     26  C   UNL     1       6.288   3.397  -6.520  0.00  0.00    +0.031 C 
ATOM     27  C   UNL     1       6.027   3.262  -9.001  0.00  0.00    +0.031 C 
ENDBRANCH  20  25
ENDBRANCH  14  21
ENDBRANCH   1  14
BRANCH   1  28
ATOM     28  C   UNL     1       4.149  -1.424  -4.014  0.00  0.00    +0.183 C 
BRANCH  28  29
ATOM     29  C   UNL     1       4.327  -0.156  -3.219  0.00  0.00    +0.122 A 
ATOM     30  C   UNL     1       3.662   0.168  -2.095  0.00  0.00    +0.046 A 
ATOM     31  C   UNL     1       4.138   1.435  -1.689  0.00  0.00    +0.041 A 
ATOM     32  C   UNL     1       5.065   1.811  -2.588  0.00  0.00    +0.195 A 
ATOM     33  O   UNL     1       5.179   0.841  -3.510  0.00  0.00    -0.466 OA
ENDBRANCH  28  29
ENDBRANCH   1  28
TORSDOF 8
