REMARK  Name = ZINC67464714
REMARK  6 active torsions:
REMARK  status: ('A' for Active; 'I' for Inactive)
REMARK    1  A    between atoms: C_1  and  C_2
REMARK    2  A    between atoms: C_4  and  C_7
REMARK    3  A    between atoms: C_7  and  C_8
REMARK    4  A    between atoms: C_8  and  C_9
REMARK    5  A    between atoms: C_9  and  N_10
REMARK    6  A    between atoms: C_17  and  C_19
REMARK                            x       y       z     vdW  Elec       q    Type
REMARK                         _______ _______ _______ _____ _____    ______ ____
ROOT
ATOM      1  N   UNL     1       3.462  -4.658  -3.486  0.00  0.00    -0.299 N 
ATOM      2  C   UNL     1       3.491  -5.776  -4.239  0.00  0.00    +0.302 C 
ATOM      3  O   UNL     1       2.455  -6.244  -4.670  0.00  0.00    -0.253 OA
ATOM      4  N   UNL     1       4.667  -6.374  -4.512  0.00  0.00    -0.282 N 
ATOM      5  C   UNL     1       5.998  -5.864  -4.137  0.00  0.00    +0.110 C 
ATOM      6  C   UNL     1       6.906  -7.119  -4.097  0.00  0.00    +0.021 C 
ATOM      7  C   UNL     1       6.347  -7.946  -5.284  0.00  0.00    +0.024 C 
ATOM      8  C   UNL     1       4.834  -7.647  -5.229  0.00  0.00    +0.081 C 
ATOM      9  H   UNL     1       4.289  -4.284  -3.142  0.00  0.00    +0.150 HD
ENDROOT
BRANCH   8  10
ATOM     10  C   UNL     1       4.280  -7.521  -6.649  0.00  0.00    +0.010 C 
ATOM     11  C   UNL     1       4.510  -8.832  -7.405  0.00  0.00    +0.005 C 
ATOM     12  C   UNL     1       3.955  -8.706  -8.825  0.00  0.00    +0.000 C 
ATOM     13  C   UNL     1       4.670  -7.565  -9.553  0.00  0.00    +0.000 C 
ATOM     14  C   UNL     1       4.440  -6.255  -8.797  0.00  0.00    +0.000 C 
ATOM     15  C   UNL     1       4.995  -6.381  -7.377  0.00  0.00    +0.005 C 
ENDBRANCH   8  10
BRANCH   1  16
ATOM     16  C   UNL     1       2.184  -4.007  -3.189  0.00  0.00    +0.106 C 
BRANCH  16  17
ATOM     17  C   UNL     1       2.431  -2.768  -2.325  0.00  0.00    +0.028 C 
BRANCH  17  18
ATOM     18  C   UNL     1       1.096  -2.089  -2.014  0.00  0.00    +0.100 C 
BRANCH  18  22
ATOM     19  C   UNL     1       2.009   2.655  -0.689  0.00  0.00    +0.091 C 
ATOM     20  C   UNL     1       1.733   1.177  -0.577  0.00  0.00    +0.169 A 
ATOM     21  N   UNL     1       1.559   0.338  -1.604  0.00  0.00    -0.196 NA
ATOM     22  C   UNL     1       1.339  -0.869  -1.164  0.00  0.00    +0.227 A 
ATOM     23  O   UNL     1       1.366  -0.839   0.175  0.00  0.00    -0.338 OA
ATOM     24  N   UNL     1       1.631   0.509   0.536  0.00  0.00    -0.062 NA
ENDBRANCH  18  22
ENDBRANCH  17  18
ENDBRANCH  16  17
ENDBRANCH   1  16
TORSDOF 5
