REMARK  Name = ZINC09303533
REMARK  12 active torsions:
REMARK  status: ('A' for Active; 'I' for Inactive)
REMARK    1  A    between atoms: C_1  and  C_2
REMARK    2  A    between atoms: C_2  and  N_3
REMARK    3  A    between atoms: C_4  and  C_24
REMARK    4  A    between atoms: C_7  and  S_8
REMARK    5  A    between atoms: S_8  and  C_9
REMARK    6  A    between atoms: C_9  and  C_11
REMARK    7  A    between atoms: C_9  and  C_12
REMARK    8  A    between atoms: N_14  and  C_15
REMARK    9  A    between atoms: C_24  and  C_25
REMARK   10  A    between atoms: N_27  and  C_28
REMARK   11  A    between atoms: C_31  and  C_35
REMARK   12  A    between atoms: C_33  and  C_34
REMARK                            x       y       z     vdW  Elec       q    Type
REMARK                         _______ _______ _______ _____ _____    ______ ____
ROOT
ATOM      1  N   UNL     1      -1.989   1.060   0.876  0.00  0.00    -0.306 N 
ATOM      2  C   UNL     1      -2.435  -0.098   1.451  0.00  0.00    +0.143 A 
ATOM      3  N   UNL     1      -3.722  -0.158   1.253  0.00  0.00    -0.133 NA
ATOM      4  N   UNL     1      -4.116   0.875   0.599  0.00  0.00    -0.122 NA
ATOM      5  C   UNL     1      -3.095   1.660   0.345  0.00  0.00    +0.192 A 
ENDROOT
BRANCH   1   7
ATOM      6  C   UNL     1       0.092   1.030  -0.408  0.00  0.00    +0.027 C 
ATOM      7  C   UNL     1      -0.611   1.558   0.844  0.00  0.00    +0.122 C 
ENDBRANCH   1   7
BRANCH   5   8
ATOM      8  S   UNL     1      -3.141   3.194  -0.520  0.00  0.00    -0.074 S 
BRANCH   8   9
ATOM      9  C   UNL     1      -4.910   3.293  -0.890  0.00  0.00    +0.137 C 
ATOM     10  C   UNL     1      -5.297   2.158  -1.840  0.00  0.00    +0.029 C 
BRANCH   9  11
ATOM     11  C   UNL     1      -5.214   4.618  -1.541  0.00  0.00    +0.230 C 
ATOM     12  O   UNL     1      -4.343   5.213  -2.141  0.00  0.00    -0.274 OA
ATOM     13  N   UNL     1      -6.452   5.142  -1.456  0.00  0.00    -0.284 N 
ATOM     14  H   UNL     1      -7.169   4.630  -1.050  0.00  0.00    +0.155 HD
BRANCH  13  15
ATOM     15  C   UNL     1      -6.705   6.427  -1.953  0.00  0.00    +0.037 A 
ATOM     16  C   UNL     1      -5.677   7.358  -2.025  0.00  0.00    +0.027 A 
ATOM     17  C   UNL     1      -5.924   8.625  -2.520  0.00  0.00    +0.051 A 
ATOM     18  C   UNL     1      -7.199   8.972  -2.937  0.00  0.00    +0.166 A 
ATOM     19  C   UNL     1      -8.233   8.042  -2.861  0.00  0.00    +0.168 A 
ATOM     20  C   UNL     1      -7.984   6.771  -2.369  0.00  0.00    +0.072 A 
ATOM     21  O   UNL     1      -9.377   8.623  -3.327  0.00  0.00    -0.453 OA
ATOM     22  C   UNL     1      -9.125  10.040  -3.306  0.00  0.00    +0.466 C 
ATOM     23  O   UNL     1      -7.696  10.136  -3.451  0.00  0.00    -0.453 OA
ENDBRANCH  13  15
ENDBRANCH   9  11
ENDBRANCH   8   9
ENDBRANCH   5   8
BRANCH   2  24
ATOM     24  C   UNL     1      -1.595  -1.116   2.177  0.00  0.00    +0.172 C 
BRANCH  24  25
ATOM     25  C   UNL     1      -1.534  -0.765   3.641  0.00  0.00    +0.225 C 
ATOM     26  O   UNL     1      -2.115   0.216   4.054  0.00  0.00    -0.275 OA
ATOM     27  N   UNL     1      -0.832  -1.541   4.491  0.00  0.00    -0.285 N 
ATOM     28  H   UNL     1      -0.312  -2.286   4.151  0.00  0.00    +0.155 HD
BRANCH  27  29
ATOM     29  C   UNL     1      -0.855  -1.272   5.864  0.00  0.00    +0.036 A 
ATOM     30  C   UNL     1      -0.924   0.040   6.315  0.00  0.00    +0.024 A 
ATOM     31  C   UNL     1      -0.946   0.302   7.671  0.00  0.00    +0.005 A 
ATOM     32  C   UNL     1      -0.899  -0.740   8.579  0.00  0.00    -0.050 A 
ATOM     33  C   UNL     1      -0.829  -2.047   8.133  0.00  0.00    +0.008 A 
ATOM     34  C   UNL     1      -0.813  -2.316   6.779  0.00  0.00    -0.029 A 
ATOM     35  C   UNL     1      -0.744  -3.741   6.294  0.00  0.00    +0.045 C 
ATOM     36  C   UNL     1      -0.923  -0.450  10.058  0.00  0.00    +0.044 C 
ENDBRANCH  27  29
ENDBRANCH  24  25
ENDBRANCH   2  24
TORSDOF 8
