REMARK  Name = ZINC24955732
REMARK  8 active torsions:
REMARK  status: ('A' for Active; 'I' for Inactive)
REMARK    1  A    between atoms: C_1  and  C_2
REMARK    2  A    between atoms: C_4  and  C_28
REMARK    3  A    between atoms: C_5  and  C_9
REMARK    4  A    between atoms: C_7  and  C_8
REMARK    5  A    between atoms: C_15  and  C_17
REMARK    6  A    between atoms: C_17  and  N_18
REMARK    7  A    between atoms: C_21  and  C_24
REMARK    8  A    between atoms: N_26  and  C_27
REMARK                            x       y       z     vdW  Elec       q    Type
REMARK                         _______ _______ _______ _____ _____    ______ ____
ROOT
ATOM      1  C   UNL     1       5.069  -9.536   3.110  0.00  0.00    +0.080 A 
ATOM      2  C   UNL     1       5.043  -8.517   4.021  0.00  0.00    +0.076 A 
ATOM      3  S   UNL     1       4.518  -7.159   2.984  0.00  0.00    -0.060 S 
ATOM      4  C   UNL     1       4.387  -8.080   1.458  0.00  0.00    +0.165 A 
ATOM      5  N   UNL     1       4.734  -9.291   1.852  0.00  0.00    -0.225 NA
ATOM      6  N   UNL     1       4.014  -7.640   0.194  0.00  0.00    -0.266 N 
ATOM      7  C   UNL     1       3.688  -6.347   0.000  0.00  0.00    +0.202 C 
ATOM      8  O   UNL     1       3.720  -5.568   0.929  0.00  0.00    -0.277 OA
ATOM      9  H   UNL     1       3.986  -8.347  -0.648  0.00  0.00    +0.157 HD
ENDROOT
BRANCH   1  14
ATOM     10  C   UNL     1       6.591 -14.848   4.733  0.00  0.00    +0.044 C 
ATOM     11  C   UNL     1       6.193 -13.458   4.308  0.00  0.00    -0.047 A 
ATOM     12  C   UNL     1       5.729 -13.236   3.024  0.00  0.00    +0.007 A 
ATOM     13  C   UNL     1       5.363 -11.965   2.630  0.00  0.00    -0.041 A 
ATOM     14  C   UNL     1       5.461 -10.904   3.528  0.00  0.00    +0.004 A 
ATOM     15  C   UNL     1       5.934 -11.133   4.819  0.00  0.00    +0.014 A 
ATOM     16  C   UNL     1       6.292 -12.409   5.204  0.00  0.00    -0.047 A 
ATOM     17  C   UNL     1       6.798 -12.658   6.602  0.00  0.00    +0.044 C 
ATOM     18  C   UNL     1       4.858 -11.725   1.230  0.00  0.00    +0.044 C 
ENDBRANCH   1  14
BRANCH   7  19
ATOM     19  C   UNL     1       3.284  -5.870  -1.371  0.00  0.00    +0.019 C 
BRANCH  19  20
ATOM     20  N   UNL     1       3.064  -4.417  -1.339  0.00  0.00    +0.385 N 
ATOM     21  C   UNL     1       4.322  -3.701  -1.090  0.00  0.00    -0.077 C 
ATOM     22  C   UNL     1       4.034  -2.208  -0.918  0.00  0.00    -0.006 C 
ATOM     23  C   UNL     1       3.363  -1.673  -2.187  0.00  0.00    +0.071 C 
ATOM     24  C   UNL     1       2.081  -2.468  -2.450  0.00  0.00    -0.006 C 
ATOM     25  C   UNL     1       2.425  -3.954  -2.577  0.00  0.00    -0.077 C 
ATOM     26  H   UNL     1       2.381  -4.195  -0.505  0.00  0.00    -0.081 HD
BRANCH  23  27
ATOM     27  C   UNL     1       3.023  -0.217  -2.001  0.00  0.00    +0.216 C 
ATOM     28  O   UNL     1       3.290   0.340  -0.957  0.00  0.00    -0.276 OA
ATOM     29  N   UNL     1       2.421   0.467  -2.994  0.00  0.00    -0.318 N 
ATOM     30  C   UNL     1       2.091   1.882  -2.814  0.00  0.00    +0.128 C 
ATOM     31  H   UNL     1       2.178  -0.038  -3.941  0.00  0.00    +0.148 HD
ENDBRANCH  23  27
ENDBRANCH  19  20
ENDBRANCH   7  19
TORSDOF 4
