REMARK  Name = ZINC15188305
REMARK  6 active torsions:
REMARK  status: ('A' for Active; 'I' for Inactive)
REMARK    1  A    between atoms: C_4  and  N_26
REMARK    2  A    between atoms: C_5  and  C_7
REMARK    3  A    between atoms: C_10  and  C_12
REMARK    4  A    between atoms: C_13  and  C_14
REMARK    5  A    between atoms: C_13  and  C_16
REMARK    6  A    between atoms: N_18  and  C_19
REMARK                            x       y       z     vdW  Elec       q    Type
REMARK                         _______ _______ _______ _____ _____    ______ ____
ROOT
ATOM      1  C   UNL     1      -1.230   2.140  -0.006  0.00  0.00    +0.070 C 
ATOM      2  C   UNL     1      -0.019   1.463  -0.009  0.00  0.00    +0.117 C 
ENDROOT
BRANCH   1   6
ATOM      3  C   UNL     1      -0.568   5.635  -0.018  0.00  0.00    +0.138 A 
ATOM      4  C   UNL     1      -1.947   5.666  -0.014  0.00  0.00    +0.050 A 
ATOM      5  C   UNL     1      -2.385   4.342  -0.014  0.00  0.00    +0.050 A 
ATOM      6  C   UNL     1      -1.250   3.544  -0.010  0.00  0.00    +0.130 A 
ATOM      7  O   UNL     1      -0.168   4.352  -0.016  0.00  0.00    -0.455 OA
BRANCH   3  12
ATOM      8  C   UNL     1       0.951   8.937  -0.954  0.00  0.00    +0.001 A 
ATOM      9  C   UNL     1       1.984   9.026  -0.038  0.00  0.00    +0.002 A 
ATOM     10  C   UNL     1       2.190   8.015   0.884  0.00  0.00    +0.033 A 
ATOM     11  C   UNL     1       1.361   6.913   0.900  0.00  0.00    +0.137 A 
ATOM     12  C   UNL     1       0.319   6.813  -0.025  0.00  0.00    +0.047 A 
ATOM     13  C   UNL     1       0.118   7.838  -0.954  0.00  0.00    +0.014 A 
BRANCH  11  14
ATOM     14  N   UNL     1       1.579   5.835   1.891  0.00  0.00    +0.057 N 
ATOM     15  O   UNL     1       2.488   5.923   2.696  0.00  0.00    -0.126 OA
ATOM     16  O   UNL     1       0.850   4.860   1.900  0.00  0.00    -0.126 OA
ENDBRANCH  11  14
ENDBRANCH   3  12
ENDBRANCH   1   6
BRANCH   2  17
ATOM     17  C   UNL     1       0.002  -0.005  -0.005  0.00  0.00    +0.259 C 
ATOM     18  O   UNL     1      -1.044  -0.628   0.005  0.00  0.00    -0.269 OA
ATOM     19  N   UNL     1       1.178  -0.662  -0.013  0.00  0.00    -0.279 N 
ATOM     20  H   UNL     1       2.010  -0.168  -0.086  0.00  0.00    +0.155 HD
BRANCH  19  21
ATOM     21  C   UNL     1       1.200  -2.058   0.085  0.00  0.00    +0.069 A 
ATOM     22  C   UNL     1       0.193  -2.813  -0.500  0.00  0.00    +0.026 A 
ATOM     23  C   UNL     1       0.221  -4.191  -0.406  0.00  0.00    +0.002 A 
ATOM     24  C   UNL     1       1.244  -4.819   0.279  0.00  0.00    +0.003 A 
ATOM     25  C   UNL     1       2.247  -4.072   0.868  0.00  0.00    +0.040 A 
ATOM     26  C   UNL     1       2.229  -2.692   0.774  0.00  0.00    +0.144 A 
ATOM     27  F   UNL     1       3.208  -1.962   1.351  0.00  0.00    -0.204 F 
ENDBRANCH  19  21
ENDBRANCH   2  17
BRANCH   2  28
ATOM     28  C   UNL     1       1.211   2.196  -0.021  0.00  0.00    +0.104 C 
ATOM     29  N   UNL     1       2.187   2.778  -0.030  0.00  0.00    -0.191 NA
ENDBRANCH   2  28
TORSDOF 6
