REMARK  Name = ZINC13051023
REMARK  8 active torsions:
REMARK  status: ('A' for Active; 'I' for Inactive)
REMARK    1  A    between atoms: C_3  and  C_6
REMARK    2  A    between atoms: C_6  and  N_7
REMARK    3  A    between atoms: C_13  and  C_32
REMARK    4  A    between atoms: C_17  and  S_18
REMARK    5  A    between atoms: S_18  and  C_19
REMARK    6  A    between atoms: C_19  and  C_20
REMARK    7  A    between atoms: N_25  and  C_26
REMARK    8  A    between atoms: C_26  and  C_27
REMARK                            x       y       z     vdW  Elec       q    Type
REMARK                         _______ _______ _______ _____ _____    ______ ____
ROOT
ATOM      1  N   UNL     1       8.789   1.575  -0.073  0.00  0.00    -0.280 N 
ATOM      2  C   UNL     1       9.875   0.768  -0.087  0.00  0.00    +0.263 A 
ATOM      3  O   UNL     1      11.002   1.227  -0.096  0.00  0.00    -0.267 OA
ATOM      4  C   UNL     1       9.643  -0.685  -0.092  0.00  0.00    +0.065 A 
ATOM      5  C   UNL     1      10.700  -1.595  -0.107  0.00  0.00    +0.016 A 
ATOM      6  C   UNL     1      10.444  -2.936  -0.111  0.00  0.00    +0.016 A 
ATOM      7  C   UNL     1       9.125  -3.410  -0.101  0.00  0.00    +0.065 A 
ATOM      8  C   UNL     1       8.057  -2.522  -0.087  0.00  0.00    +0.043 A 
ATOM      9  C   UNL     1       8.308  -1.147  -0.083  0.00  0.00    +0.080 A 
ATOM     10  N   UNL     1       7.298  -0.244  -0.064  0.00  0.00    -0.223 NA
ATOM     11  C   UNL     1       7.531   1.045  -0.064  0.00  0.00    +0.173 A 
ENDROOT
BRANCH   7  12
ATOM     12  C   UNL     1       8.869  -4.867  -0.106  0.00  0.00    +0.387 C 
ATOM     13  O   UNL     1       7.728  -5.283  -0.099  0.00  0.00    -0.241 OA
ATOM     14  O   UNL     1       9.900  -5.733  -0.120  0.00  0.00    -0.241 OA
ENDBRANCH   7  12
BRANCH   1  15
ATOM     15  C   UNL     1       8.965   3.029  -0.068  0.00  0.00    +0.201 C 
BRANCH  15  18
ATOM     16  C   UNL     1       9.770   4.137   3.354  0.00  0.00    +0.041 A 
ATOM     17  C   UNL     1      10.160   3.642   2.088  0.00  0.00    +0.046 A 
ATOM     18  C   UNL     1       9.039   3.521   1.355  0.00  0.00    +0.125 A 
ATOM     19  O   UNL     1       7.996   3.908   2.107  0.00  0.00    -0.466 OA
ATOM     20  C   UNL     1       8.433   4.282   3.321  0.00  0.00    +0.195 A 
ENDBRANCH  15  18
ENDBRANCH   1  15
BRANCH  11  21
ATOM     21  S   UNL     1       6.156   2.146  -0.045  0.00  0.00    -0.078 S 
BRANCH  21  22
ATOM     22  C   UNL     1       4.796   0.952  -0.039  0.00  0.00    +0.173 C 
BRANCH  22  23
ATOM     23  C   UNL     1       3.481   1.687  -0.022  0.00  0.00    +0.231 C 
ATOM     24  O   UNL     1       3.465   2.900  -0.015  0.00  0.00    -0.274 OA
ATOM     25  N   UNL     1       2.323   0.998  -0.015  0.00  0.00    -0.239 N 
ATOM     26  C   UNL     1       1.147   1.655   0.000  0.00  0.00    +0.306 C 
ATOM     27  O   UNL     1       1.130   2.871   0.007  0.00  0.00    -0.252 OA
ATOM     28  N   UNL     1      -0.011   0.966   0.007  0.00  0.00    -0.294 N 
ATOM     29  H   UNL     1       2.336   0.028  -0.020  0.00  0.00    +0.159 HD
ATOM     30  H   UNL     1       0.002  -0.004   0.002  0.00  0.00    +0.151 HD
BRANCH  28  31
ATOM     31  C   UNL     1      -1.290   1.681   0.017  0.00  0.00    +0.148 C 
BRANCH  31  32
ATOM     32  C   UNL     1      -2.422   0.686   0.017  0.00  0.00    +0.007 A 
ATOM     33  C   UNL     1      -3.054   0.113   1.070  0.00  0.00    +0.013 A 
ATOM     34  C   UNL     1      -4.081  -0.780   0.830  0.00  0.00    +0.008 A 
ATOM     35  C   UNL     1      -4.418  -1.065  -0.452  0.00  0.00    +0.045 A 
ATOM     36  S   UNL     1      -3.272  -0.049  -1.369  0.00  0.00    -0.100 S 
ENDBRANCH  31  32
ENDBRANCH  28  31
ENDBRANCH  22  23
ENDBRANCH  21  22
ENDBRANCH  11  21
TORSDOF 8
