REMARK  Name = ZINC05269420
REMARK  4 active torsions:
REMARK  status: ('A' for Active; 'I' for Inactive)
REMARK    1  A    between atoms: C_3  and  C_16
REMARK    2  A    between atoms: N_6  and  C_8
REMARK    3  A    between atoms: C_8  and  C_9
REMARK    4  A    between atoms: C_22  and  N_24
REMARK                            x       y       z     vdW  Elec       q    Type
REMARK                         _______ _______ _______ _____ _____    ______ ____
ROOT
ATOM      1  C   UNL     1      -0.016   1.354   0.033  0.00  0.00    +0.019 A 
ATOM      2  C   UNL     1       1.181   2.070   0.023  0.00  0.00    +0.020 A 
ATOM      3  C   UNL     1       2.385   1.371  -0.010  0.00  0.00    +0.101 A 
ATOM      4  C   UNL     1       2.352  -0.048  -0.031  0.00  0.00    +0.264 A 
ATOM      5  O   UNL     1       3.392  -0.683  -0.059  0.00  0.00    -0.267 OA
ATOM      6  N   UNL     1       1.169  -0.690  -0.020  0.00  0.00    -0.310 N 
ATOM      7  C   UNL     1       0.002  -0.003   0.012  0.00  0.00    +0.089 A 
ENDROOT
BRANCH   3   8
ATOM      8  C   UNL     1       3.668   2.090  -0.022  0.00  0.00    +0.255 C 
ATOM      9  O   UNL     1       3.684   3.303  -0.111  0.00  0.00    -0.270 OA
ATOM     10  N   UNL     1       4.825   1.405   0.065  0.00  0.00    -0.260 N 
ATOM     11  C   UNL     1       6.031   2.087   0.161  0.00  0.00    +0.167 A 
ATOM     12  N   UNL     1       6.234   3.387   0.188  0.00  0.00    -0.231 NA
ATOM     13  C   UNL     1       7.454   3.885   0.284  0.00  0.00    +0.153 A 
ATOM     14  C   UNL     1       8.477   2.998   0.353  0.00  0.00    +0.185 A 
ATOM     15  S   UNL     1       7.585   1.453   0.279  0.00  0.00    -0.028 S 
ATOM     16  H   UNL     1       4.816   0.435   0.060  0.00  0.00    +0.157 HD
BRANCH  14  17
ATOM     17  N   UNL     1       9.933   3.244   0.465  0.00  0.00    +0.065 N 
ATOM     18  O   UNL     1      10.353   4.377   0.507  0.00  0.00    -0.126 OA
ATOM     19  O   UNL     1      10.701   2.312   0.514  0.00  0.00    -0.126 OA
ENDBRANCH  14  17
ENDBRANCH   3   8
BRANCH   6  20
ATOM     20  C   UNL     1       1.143  -2.155  -0.042  0.00  0.00    +0.160 C 
BRANCH  20  21
ATOM     21  C   UNL     1       1.160  -2.679   1.370  0.00  0.00    -0.028 A 
ATOM     22  C   UNL     1       2.365  -2.935   1.998  0.00  0.00    +0.007 A 
ATOM     23  C   UNL     1       2.381  -3.416   3.294  0.00  0.00    +0.020 A 
ATOM     24  C   UNL     1       1.191  -3.642   3.962  0.00  0.00    +0.041 A 
ATOM     25  C   UNL     1      -0.014  -3.385   3.334  0.00  0.00    +0.020 A 
ATOM     26  C   UNL     1      -0.029  -2.899   2.040  0.00  0.00    +0.007 A 
ATOM     27 CL   UNL     1       1.211  -4.247   5.590  0.00  0.00    -0.084 Cl
ENDBRANCH  20  21
ENDBRANCH   6  20
TORSDOF 4
