REMARK  Name = ZINC42884840
REMARK  7 active torsions:
REMARK  status: ('A' for Active; 'I' for Inactive)
REMARK    1  A    between atoms: C_4  and  N_10
REMARK    2  A    between atoms: C_5  and  C_7
REMARK    3  A    between atoms: C_11  and  C_13
REMARK    4  A    between atoms: C_14  and  C_15
REMARK    5  A    between atoms: C_18  and  S_21
REMARK    6  A    between atoms: S_21  and  N_24
REMARK    7  A    between atoms: N_24  and  C_25
REMARK                            x       y       z     vdW  Elec       q    Type
REMARK                         _______ _______ _______ _____ _____    ______ ____
ROOT
ATOM      1  C   UNL     1       5.912  -0.431  -0.342  0.00  0.00    +0.068 C 
ATOM      2  C   UNL     1       7.024   0.317  -0.491  0.00  0.00    +0.013 C 
ENDROOT
BRANCH   2   3
ATOM      3  C   UNL     1       8.336  -0.335  -0.631  0.00  0.00    -0.025 A 
ATOM      4  C   UNL     1       8.432  -1.730  -0.617  0.00  0.00    +0.010 A 
ATOM      5  C   UNL     1       9.665  -2.333  -0.750  0.00  0.00    +0.029 A 
ATOM      6  C   UNL     1      10.805  -1.562  -0.896  0.00  0.00    +0.105 A 
ATOM      7  C   UNL     1      10.718  -0.181  -0.911  0.00  0.00    +0.029 A 
ATOM      8  C   UNL     1       9.491   0.438  -0.786  0.00  0.00    +0.010 A 
BRANCH   6   9
ATOM      9  S   UNL     1      12.376  -2.342  -1.065  0.00  0.00    +0.059 S 
ATOM     10  O   UNL     1      13.347  -1.396  -0.640  0.00  0.00    -0.153 OA
ATOM     11  O   UNL     1      12.256  -3.628  -0.473  0.00  0.00    -0.153 OA
BRANCH   9  12
ATOM     12  N   UNL     1      12.630  -2.588  -2.683  0.00  0.00    -0.187 NA
ATOM     13  H   UNL     1      12.685  -3.490  -3.033  0.00  0.00    +0.148 HD
BRANCH  12  14
ATOM     14  C   UNL     1      12.771  -1.442  -3.584  0.00  0.00    +0.077 C 
ATOM     15  C   UNL     1      12.234  -1.593  -5.009  0.00  0.00    +0.022 C 
ATOM     16  C   UNL     1      13.743  -1.581  -4.757  0.00  0.00    +0.022 C 
ENDBRANCH  12  14
ENDBRANCH   9  12
ENDBRANCH   6   9
ENDBRANCH   2   3
BRANCH   1  18
ATOM     17  N   UNL     1       3.495  -0.530  -0.054  0.00  0.00    -0.281 N 
ATOM     18  C   UNL     1       4.607   0.217  -0.203  0.00  0.00    +0.241 C 
ATOM     19  O   UNL     1       4.526   1.432  -0.221  0.00  0.00    -0.270 OA
ATOM     20  H   UNL     1       3.567  -1.493   0.041  0.00  0.00    +0.155 HD
BRANCH  17  24
ATOM     21  C   UNL     1      -0.253   1.295  -0.009  0.00  0.00    +0.001 A 
ATOM     22  C   UNL     1       0.813   1.903  -0.653  0.00  0.00    +0.002 A 
ATOM     23  C   UNL     1       2.055   1.301  -0.670  0.00  0.00    +0.024 A 
ATOM     24  C   UNL     1       2.244   0.079  -0.038  0.00  0.00    +0.046 A 
ATOM     25  C   UNL     1       1.167  -0.540   0.615  0.00  0.00    +0.058 A 
ATOM     26  C   UNL     1      -0.084   0.082   0.623  0.00  0.00    +0.015 A 
BRANCH  25  27
ATOM     27  C   UNL     1       1.355  -1.838   1.288  0.00  0.00    +0.243 C 
ATOM     28  O   UNL     1       2.464  -2.330   1.362  0.00  0.00    -0.270 OA
ATOM     29  N   UNL     1       0.296  -2.480   1.822  0.00  0.00    -0.325 N 
ATOM     30  H   UNL     1      -0.589  -2.087   1.763  0.00  0.00    +0.145 HD
ATOM     31  H   UNL     1       0.419  -3.334   2.265  0.00  0.00    +0.145 HD
ENDBRANCH  25  27
ENDBRANCH  17  24
ENDBRANCH   1  18
TORSDOF 7
