REMARK  Name = ZINC13756128
REMARK  7 active torsions:
REMARK  status: ('A' for Active; 'I' for Inactive)
REMARK    1  A    between atoms: C_1  and  C_2
REMARK    2  A    between atoms: C_2  and  C_23
REMARK    3  A    between atoms: N_3  and  N_4
REMARK    4  A    between atoms: C_5  and  C_7
REMARK    5  A    between atoms: C_7  and  C_8
REMARK    6  A    between atoms: C_14  and  C_16
REMARK    7  A    between atoms: C_16  and  C_17
REMARK                            x       y       z     vdW  Elec       q    Type
REMARK                         _______ _______ _______ _____ _____    ______ ____
ROOT
ATOM      1  C   UNL     1       0.071  -0.899   5.969  0.00  0.00    +0.168 C 
ATOM      2  C   UNL     1      -0.034  -0.161   7.284  0.00  0.00    +0.253 C 
ATOM      3  O   UNL     1      -1.120   0.080   7.769  0.00  0.00    -0.272 OA
ATOM      4  N   UNL     1       1.096   0.226   7.912  0.00  0.00    -0.204 N 
ATOM      5  N   UNL     1       2.350  -0.133   7.409  0.00  0.00    -0.169 NA
ATOM      6  C   UNL     1       2.470  -1.014   6.472  0.00  0.00    +0.118 C 
ATOM      7  N   UNL     1       1.342  -1.638   5.960  0.00  0.00    -0.319 N 
ATOM      8  H   UNL     1       1.037   0.759   8.720  0.00  0.00    +0.177 HD
ATOM      9  H   UNL     1       1.390  -2.540   5.606  0.00  0.00    +0.148 HD
ENDROOT
BRANCH   1  10
ATOM     10  C   UNL     1       0.046   0.101   4.812  0.00  0.00    +0.129 C 
BRANCH  10  12
ATOM     11  N   UNL     1       0.024   0.035   2.339  0.00  0.00    -0.207 N 
ATOM     12  C   UNL     1       0.044  -0.645   3.503  0.00  0.00    +0.234 C 
ATOM     13  O   UNL     1       0.060  -1.858   3.496  0.00  0.00    -0.274 OA
ATOM     14  H   UNL     1       0.011   1.005   2.345  0.00  0.00    +0.177 HD
BRANCH  11  17
ATOM     15  C   UNL     1      -0.018   1.503   0.010  0.00  0.00    +0.068 C 
ATOM     16  C   UNL     1       0.002  -0.004   0.002  0.00  0.00    +0.063 C 
ATOM     17  N   UNL     1       0.022  -0.659   1.122  0.00  0.00    -0.185 NA
BRANCH  16  18
ATOM     18  C   UNL     1      -0.000  -0.735  -1.279  0.00  0.00    -0.002 A 
ATOM     19  C   UNL     1      -0.015  -0.033  -2.487  0.00  0.00    +0.011 A 
ATOM     20  C   UNL     1      -0.017  -0.722  -3.681  0.00  0.00    +0.016 A 
ATOM     21  C   UNL     1      -0.004  -2.106  -3.685  0.00  0.00    +0.018 A 
ATOM     22  C   UNL     1       0.010  -2.808  -2.492  0.00  0.00    +0.016 A 
ATOM     23  C   UNL     1       0.019  -2.131  -1.290  0.00  0.00    +0.011 A 
ATOM     24 BR   UNL     1      -0.007  -3.043  -5.328  0.00  0.00    -0.050 Br
ENDBRANCH  16  18
ENDBRANCH  11  17
ENDBRANCH  10  12
ENDBRANCH   1  10
BRANCH   6  25
ATOM     25  C   UNL     1       3.834  -1.363   5.934  0.00  0.00    +0.108 C 
BRANCH  25  26
ATOM     26  C   UNL     1       4.880  -0.550   6.653  0.00  0.00    -0.040 A 
ATOM     27  C   UNL     1       5.252   0.687   6.162  0.00  0.00    +0.004 A 
ATOM     28  C   UNL     1       6.212   1.432   6.821  0.00  0.00    +0.000 A 
ATOM     29  C   UNL     1       6.799   0.940   7.971  0.00  0.00    +0.000 A 
ATOM     30  C   UNL     1       6.427  -0.297   8.463  0.00  0.00    +0.000 A 
ATOM     31  C   UNL     1       5.464  -1.040   7.806  0.00  0.00    +0.004 A 
ENDBRANCH  25  26
ENDBRANCH   6  25
TORSDOF 6
