REMARK  Name = ZINC01797090
REMARK  6 active torsions:
REMARK  status: ('A' for Active; 'I' for Inactive)
REMARK    1  A    between atoms: C_5  and  C_7
REMARK    2  A    between atoms: C_7  and  O_8
REMARK    3  A    between atoms: O_8  and  C_9
REMARK    4  A    between atoms: C_12  and  N_30
REMARK    5  A    between atoms: C_14  and  C_15
REMARK    6  A    between atoms: C_26  and  C_28
REMARK                            x       y       z     vdW  Elec       q    Type
REMARK                         _______ _______ _______ _____ _____    ______ ____
ROOT
ATOM      1  C   UNL     1      -0.272  -4.030  -0.017  0.00  0.00    +0.125 A 
ATOM      2  C   UNL     1       0.839  -4.861  -0.027  0.00  0.00    +0.048 A 
ATOM      3  C   UNL     1       0.674  -6.233  -0.033  0.00  0.00    +0.036 A 
ATOM      4  C   UNL     1      -0.598  -6.777  -0.028  0.00  0.00    +0.127 A 
ATOM      5  C   UNL     1      -1.706  -5.951  -0.019  0.00  0.00    +0.040 A 
ATOM      6  C   UNL     1      -1.546  -4.579  -0.007  0.00  0.00    +0.005 A 
ENDROOT
BRANCH   6   7
ATOM      7  C   UNL     1      -2.755  -3.679   0.010  0.00  0.00    +0.073 C 
ATOM      8  C   UNL     1      -3.540  -3.942   1.249  0.00  0.00    +0.033 A 
ATOM      9  C   UNL     1      -4.877  -3.994   1.414  0.00  0.00    +0.087 A 
ATOM     10  N   UNL     1      -5.296  -4.254   2.696  0.00  0.00    -0.311 N 
ATOM     11  H   UNL     1      -6.244  -4.303   2.897  0.00  0.00    +0.170 HD
ATOM     12  C   UNL     1      -4.391  -4.441   3.675  0.00  0.00    +0.289 A 
ATOM     13  O   UNL     1      -4.590  -4.679   4.853  0.00  0.00    -0.260 OA
ATOM     14  S   UNL     1      -2.919  -4.266   2.880  0.00  0.00    -0.030 S 
ATOM     15  S   UNL     1      -5.976  -3.742   0.037  0.00  0.00    -0.106 S 
ATOM     16  C   UNL     1      -4.850  -3.069  -1.224  0.00  0.00    +0.087 C 
ATOM     17  C   UNL     1      -3.584  -3.935  -1.246  0.00  0.00    +0.074 C 
BRANCH  17  18
ATOM     18  C   UNL     1      -3.973  -5.390  -1.300  0.00  0.00    +0.228 C 
ATOM     19  O   UNL     1      -3.626  -6.074  -2.233  0.00  0.00    -0.301 OA
ENDBRANCH  17  18
ENDBRANCH   6   7
BRANCH   4  20
ATOM     20  N   UNL     1      -0.772  -8.247  -0.034  0.00  0.00    +0.056 N 
ATOM     21  O   UNL     1       0.197  -8.970  -0.043  0.00  0.00    -0.126 OA
ATOM     22  O   UNL     1      -1.883  -8.724  -0.030  0.00  0.00    -0.126 OA
ENDBRANCH   4  20
BRANCH   1  23
ATOM     23  O   UNL     1      -0.112  -2.680  -0.011  0.00  0.00    -0.487 OA
BRANCH  23  24
ATOM     24  C   UNL     1       1.229  -2.186  -0.022  0.00  0.00    +0.266 C 
BRANCH  24  29
ATOM     25  C   UNL     1      -0.017   1.378   0.010  0.00  0.00    +0.000 A 
ATOM     26  C   UNL     1       1.171   2.086   0.002  0.00  0.00    +0.001 A 
ATOM     27  C   UNL     1       2.377   1.412  -0.013  0.00  0.00    +0.020 A 
ATOM     28  C   UNL     1       2.397   0.029  -0.021  0.00  0.00    +0.047 A 
ATOM     29  C   UNL     1       1.208  -0.679  -0.013  0.00  0.00    +0.008 A 
ATOM     30  C   UNL     1       0.002  -0.004   0.002  0.00  0.00    +0.008 A 
ATOM     31 CL   UNL     1       3.912  -0.818  -0.041  0.00  0.00    -0.083 Cl
ENDBRANCH  24  29
ENDBRANCH  23  24
ENDBRANCH   1  23
TORSDOF 6
