REMARK  Name = ZINC16565192
REMARK  7 active torsions:
REMARK  status: ('A' for Active; 'I' for Inactive)
REMARK    1  A    between atoms: C_1  and  C_2
REMARK    2  A    between atoms: C_2  and  C_3
REMARK    3  A    between atoms: C_3  and  N_4
REMARK    4  A    between atoms: C_8  and  S_10
REMARK    5  A    between atoms: S_10  and  C_11
REMARK    6  A    between atoms: C_11  and  C_12
REMARK    7  A    between atoms: C_22  and  N_24
REMARK                            x       y       z     vdW  Elec       q    Type
REMARK                         _______ _______ _______ _____ _____    ______ ____
ROOT
ATOM      1  C   UNL     1      -8.503  -6.041   0.050  0.00  0.00    +0.230 C 
ATOM      2  O   UNL     1      -8.206  -7.215  -0.020  0.00  0.00    -0.274 OA
ATOM      3  N   UNL     1      -9.797  -5.679   0.160  0.00  0.00    -0.270 N 
ATOM      4  C   UNL     1     -10.178  -4.260   0.159  0.00  0.00    +0.114 C 
ATOM      5  C   UNL     1     -11.205  -4.050   1.279  0.00  0.00    +0.024 C 
ATOM      6  C   UNL     1     -12.455  -4.871   0.964  0.00  0.00    +0.038 C 
ATOM      7  C   UNL     1     -12.086  -6.300   0.663  0.00  0.00    -0.024 A 
ATOM      8  C   UNL     1     -10.802  -6.650   0.273  0.00  0.00    +0.040 A 
ATOM      9  C   UNL     1     -10.495  -7.977  -0.007  0.00  0.00    +0.026 A 
ATOM     10  C   UNL     1     -11.470  -8.949   0.101  0.00  0.00    +0.034 A 
ATOM     11  C   UNL     1     -12.751  -8.600   0.488  0.00  0.00    +0.127 A 
ATOM     12  C   UNL     1     -13.057  -7.281   0.776  0.00  0.00    +0.038 A 
ENDROOT
BRANCH  11  13
ATOM     13  N   UNL     1     -13.796  -9.642   0.605  0.00  0.00    +0.056 N 
ATOM     14  O   UNL     1     -13.529 -10.796   0.363  0.00  0.00    -0.126 OA
ATOM     15  O   UNL     1     -14.916  -9.339   0.943  0.00  0.00    -0.126 OA
ENDBRANCH  11  13
BRANCH   1  16
ATOM     16  C   UNL     1      -7.426  -4.988   0.012  0.00  0.00    +0.172 C 
BRANCH  16  17
ATOM     17  S   UNL     1      -5.798  -5.787   0.008  0.00  0.00    -0.088 S 
BRANCH  17  22
ATOM     18  N   UNL     1      -1.422  -1.987  -0.132  0.00  0.00    -0.322 N 
ATOM     19  C   UNL     1      -2.615  -2.700  -0.100  0.00  0.00    +0.182 A 
ATOM     20  N   UNL     1      -3.855  -2.254  -0.094  0.00  0.00    -0.125 NA
ATOM     21  N   UNL     1      -4.903  -3.144  -0.061  0.00  0.00    -0.133 NA
ATOM     22  C   UNL     1      -4.662  -4.441  -0.036  0.00  0.00    +0.160 A 
ATOM     23  S   UNL     1      -2.877  -4.467  -0.066  0.00  0.00    -0.025 S 
ATOM     24  H   UNL     1      -0.575  -2.459  -0.137  0.00  0.00    +0.148 HD
BRANCH  18  25
ATOM     25  C   UNL     1      -1.445  -0.523  -0.156  0.00  0.00    +0.103 C 
BRANCH  25  27
ATOM     26  C   UNL     1      -0.034   1.539  -0.214  0.00  0.00    +0.005 C 
ATOM     27  C   UNL     1      -0.011   0.009  -0.188  0.00  0.00    +0.015 C 
ENDBRANCH  25  27
ENDBRANCH  18  25
ENDBRANCH  17  22
ENDBRANCH  16  17
ENDBRANCH   1  16
TORSDOF 6
