REMARK  Name = ZINC64048601
REMARK  8 active torsions:
REMARK  status: ('A' for Active; 'I' for Inactive)
REMARK    1  A    between atoms: C_1  and  C_2
REMARK    2  A    between atoms: C_5  and  C_8
REMARK    3  A    between atoms: C_8  and  N_9
REMARK    4  A    between atoms: C_12  and  C_16
REMARK    5  A    between atoms: C_13  and  C_15
REMARK    6  A    between atoms: N_18  and  N_19
REMARK    7  A    between atoms: C_20  and  C_22
REMARK    8  A    between atoms: C_25  and  C_27
REMARK                            x       y       z     vdW  Elec       q    Type
REMARK                         _______ _______ _______ _____ _____    ______ ____
ROOT
ATOM      1  C   UNL     1       2.592  -7.944   1.534  0.00  0.00    +0.260 C 
ATOM      2  O   UNL     1       3.206  -8.130   2.569  0.00  0.00    -0.269 OA
ATOM      3  N   UNL     1       2.224  -8.993   0.771  0.00  0.00    -0.230 N 
ATOM      4  H   UNL     1       1.735  -8.845  -0.053  0.00  0.00    +0.173 HD
ENDROOT
BRANCH   1   7
ATOM      5  N   UNL     1       1.451  -4.747  -0.032  0.00  0.00    -0.203 NA
ATOM      6  C   UNL     1       1.509  -6.220  -0.115  0.00  0.00    +0.203 C 
ATOM      7  C   UNL     1       2.264  -6.628   1.133  0.00  0.00    +0.067 C 
ATOM      8  C   UNL     1       2.559  -5.487   1.785  0.00  0.00    +0.027 C 
ATOM      9  N   UNL     1       2.094  -4.398   1.120  0.00  0.00    -0.280 N 
ATOM     10  C   UNL     1       3.312  -5.425   3.089  0.00  0.00    +0.062 C 
ATOM     11 CL   UNL     1      -0.152  -6.920  -0.111  0.00  0.00    -0.098 Cl
ATOM     12  H   UNL     1       2.205  -3.484   1.426  0.00  0.00    +0.166 HD
BRANCH   5  13
ATOM     13  C   UNL     1       0.059  -4.275  -0.021  0.00  0.00    +0.142 C 
BRANCH  13  18
ATOM     14  C   UNL     1      -0.018   1.503   0.010  0.00  0.00    +0.044 C 
ATOM     15  C   UNL     1       0.002  -0.004   0.002  0.00  0.00    -0.050 A 
ATOM     16  C   UNL     1       0.006  -0.689  -1.199  0.00  0.00    +0.003 A 
ATOM     17  C   UNL     1       0.025  -2.071  -1.206  0.00  0.00    +0.005 A 
ATOM     18  C   UNL     1       0.040  -2.768  -0.013  0.00  0.00    -0.032 A 
ATOM     19  C   UNL     1       0.037  -2.084   1.188  0.00  0.00    +0.005 A 
ATOM     20  C   UNL     1       0.023  -0.702   1.195  0.00  0.00    +0.003 A 
ENDBRANCH  13  18
ENDBRANCH   5  13
ENDBRANCH   1   7
BRANCH   3  21
ATOM     21  N   UNL     1       2.550 -10.296   1.169  0.00  0.00    -0.229 N 
ATOM     22  C   UNL     1       2.182 -11.345   0.405  0.00  0.00    +0.276 C 
ATOM     23  O   UNL     1       1.569 -11.159  -0.628  0.00  0.00    -0.267 OA
ATOM     24  H   UNL     1       3.039 -10.444   1.993  0.00  0.00    +0.173 HD
BRANCH  22  25
ATOM     25  C   UNL     1       2.523 -12.710   0.822  0.00  0.00    +0.132 C 
ATOM     26  N   UNL     1       3.167 -13.077   1.898  0.00  0.00    -0.148 NA
ATOM     27  N   UNL     1       3.327 -14.337   2.014  0.00  0.00    -0.153 NA
ATOM     28  C   UNL     1       2.814 -15.037   1.029  0.00  0.00    +0.077 C 
ATOM     29  C   UNL     1       2.197 -14.007   0.099  0.00  0.00    +0.120 C 
BRANCH  28  30
ATOM     30  C   UNL     1       2.829 -16.496   0.867  0.00  0.00    -0.002 A 
ATOM     31  C   UNL     1       2.235 -17.085  -0.257  0.00  0.00    +0.010 A 
ATOM     32  C   UNL     1       2.253 -18.456  -0.402  0.00  0.00    +0.001 A 
ATOM     33  C   UNL     1       2.856 -19.250   0.559  0.00  0.00    +0.000 A 
ATOM     34  C   UNL     1       3.445 -18.676   1.673  0.00  0.00    +0.001 A 
ATOM     35  C   UNL     1       3.442 -17.306   1.831  0.00  0.00    +0.010 A 
ENDBRANCH  28  30
ENDBRANCH  22  25
ENDBRANCH   3  21
TORSDOF 6
