REMARK  Name = ZINC35667583
REMARK  12 active torsions:
REMARK  status: ('A' for Active; 'I' for Inactive)
REMARK    1  A    between atoms: C_1  and  C_2
REMARK    2  A    between atoms: C_2  and  O_3
REMARK    3  A    between atoms: O_3  and  C_4
REMARK    4  A    between atoms: C_6  and  C_24
REMARK    5  A    between atoms: C_9  and  O_10
REMARK    6  A    between atoms: O_10  and  C_11
REMARK    7  A    between atoms: C_11  and  C_12
REMARK    8  A    between atoms: C_15  and  N_21
REMARK    9  A    between atoms: C_17  and  N_18
REMARK   10  A    between atoms: CA_25  and  C_26
REMARK   11  A    between atoms: CA_25  and  N_29
REMARK   12  A    between atoms: C_30  and  C_32
REMARK                            x       y       z     vdW  Elec       q    Type
REMARK                         _______ _______ _______ _____ _____    ______ ____
ROOT
ATOM      1  C   UNL     1       1.005  -1.804   1.147  0.00  0.00    +0.162 A 
ATOM      2  C   UNL     1       0.470  -2.649   0.196  0.00  0.00    +0.057 A 
ATOM      3  C   UNL     1       0.418  -4.027   0.439  0.00  0.00    -0.019 A 
ATOM      4  C   UNL     1       0.909  -4.539   1.646  0.00  0.00    +0.012 A 
ATOM      5  C   UNL     1       1.441  -3.688   2.589  0.00  0.00    +0.050 A 
ATOM      6  C   UNL     1       1.497  -2.322   2.344  0.00  0.00    +0.162 A 
ENDROOT
BRANCH   3   7
ATOM      7  C   UNL     1      -0.151  -4.932  -0.569  0.00  0.00    +0.038 C 
ATOM      8  CA  UNL     1       0.420  -6.141  -0.793  0.00  0.00    +0.123 C 
BRANCH   8   9
ATOM      9  N   UNL     1      -0.100  -6.990  -1.780  0.00  0.00    -0.280 N 
ATOM     10  C   UNL     1       0.536  -8.138  -2.085  0.00  0.00    +0.214 C 
ATOM     11  O   UNL     1       1.517  -8.474  -1.456  0.00  0.00    -0.276 OA
ATOM     12  C   UNL     1       0.029  -9.005  -3.209  0.00  0.00    +0.109 C 
ATOM     13  H   UNL     1      -0.918  -6.751  -2.242  0.00  0.00    +0.155 HD
ENDBRANCH   8   9
BRANCH   8  14
ATOM     14  C   UNL     1       1.581  -6.561  -0.006  0.00  0.00    +0.400 C 
ATOM     15  O   UNL     1       1.433  -7.314   0.949  0.00  0.00    -0.239 OA
ATOM     16  OXT UNL     1       2.699  -6.158  -0.301  0.00  0.00    -0.239 OA
ENDBRANCH   8  14
ENDBRANCH   3   7
BRANCH   1  17
ATOM     17  O   UNL     1       1.057  -0.465   0.914  0.00  0.00    -0.489 OA
BRANCH  17  19
ATOM     18  C   UNL     1       0.679   1.519  -0.414  0.00  0.00    +0.048 C 
ATOM     19  C   UNL     1       0.535  -0.002  -0.333  0.00  0.00    +0.226 C 
ENDBRANCH  17  19
ENDBRANCH   1  17
BRANCH   6  20
ATOM     20  O   UNL     1       2.029  -1.489   3.276  0.00  0.00    -0.484 OA
BRANCH  20  21
ATOM     21  C   UNL     1       2.514  -2.087   4.479  0.00  0.00    +0.267 C 
BRANCH  21  22
ATOM     22  C   UNL     1       3.063  -1.015   5.386  0.00  0.00    +0.020 A 
ATOM     23  C   UNL     1       3.031   0.309   4.990  0.00  0.00    +0.011 A 
ATOM     24  C   UNL     1       3.534   1.291   5.822  0.00  0.00    +0.033 A 
ATOM     25  C   UNL     1       4.068   0.950   7.051  0.00  0.00    +0.128 A 
ATOM     26  C   UNL     1       4.099  -0.374   7.447  0.00  0.00    +0.065 A 
ATOM     27  C   UNL     1       3.592  -1.356   6.617  0.00  0.00    +0.135 A 
BRANCH  27  28
ATOM     28  N   UNL     1       3.620  -2.773   7.044  0.00  0.00    +0.057 N 
ATOM     29  O   UNL     1       4.083  -3.071   8.120  0.00  0.00    -0.126 OA
ATOM     30  O   UNL     1       3.180  -3.632   6.316  0.00  0.00    -0.126 OA
ENDBRANCH  27  28
BRANCH  25  31
ATOM     31  N   UNL     1       4.607   2.002   7.941  0.00  0.00    +0.056 N 
ATOM     32  O   UNL     1       4.581   3.160   7.594  0.00  0.00    -0.126 OA
ATOM     33  O   UNL     1       5.074   1.704   9.016  0.00  0.00    -0.126 OA
ENDBRANCH  25  31
ENDBRANCH  21  22
ENDBRANCH  20  21
ENDBRANCH   6  20
TORSDOF 10
