REMARK  Name = ZINC38632932
REMARK  8 active torsions:
REMARK  status: ('A' for Active; 'I' for Inactive)
REMARK    1  A    between atoms: C_1  and  C_2
REMARK    2  A    between atoms: C_5  and  N_32
REMARK    3  A    between atoms: C_7  and  N_8
REMARK    4  A    between atoms: C_9  and  C_11
REMARK    5  A    between atoms: N_13  and  C_14
REMARK    6  A    between atoms: C_14  and  C_15
REMARK    7  A    between atoms: C_15  and  C_17
REMARK    8  A    between atoms: C_15  and  N_22
REMARK                            x       y       z     vdW  Elec       q    Type
REMARK                         _______ _______ _______ _____ _____    ______ ____
ROOT
ATOM      1  C   UNL     1      -0.211  -0.091   4.835  0.00  0.00    +0.299 C 
ATOM      2  O   UNL     1      -0.140   1.120   4.797  0.00  0.00    -0.265 OA
ATOM      3  N   UNL     1      -0.304  -0.724   6.021  0.00  0.00    -0.306 N 
ATOM      4  H   UNL     1      -0.361  -1.691   6.052  0.00  0.00    +0.149 HD
ENDROOT
BRANCH   1   6
ATOM      5  N   UNL     1      -0.102  -0.248   2.381  0.00  0.00    -0.277 N 
ATOM      6  C   UNL     1      -0.196  -0.880   3.567  0.00  0.00    +0.303 C 
ATOM      7  O   UNL     1      -0.267  -2.091   3.605  0.00  0.00    -0.265 OA
ATOM      8  H   UNL     1       0.025   0.713   2.352  0.00  0.00    +0.155 HD
BRANCH   5  15
ATOM      9  C   UNL     1      -1.338   0.987   0.135  0.00  0.00    +0.045 C 
ATOM     10  C   UNL     1      -0.783  -0.413   0.071  0.00  0.00    -0.029 A 
ATOM     11  C   UNL     1      -0.862  -1.134  -1.105  0.00  0.00    +0.007 A 
ATOM     12  C   UNL     1      -0.353  -2.418  -1.165  0.00  0.00    +0.033 A 
ATOM     13  C   UNL     1       0.235  -2.986  -0.048  0.00  0.00    +0.128 A 
ATOM     14  C   UNL     1       0.316  -2.270   1.130  0.00  0.00    +0.056 A 
ATOM     15  C   UNL     1      -0.188  -0.977   1.192  0.00  0.00    +0.039 A 
BRANCH  13  16
ATOM     16  N   UNL     1       0.777  -4.361  -0.117  0.00  0.00    +0.056 N 
ATOM     17  O   UNL     1       0.707  -4.988  -1.148  0.00  0.00    -0.126 OA
ATOM     18  O   UNL     1       1.292  -4.857   0.858  0.00  0.00    -0.126 OA
ENDBRANCH  13  16
ENDBRANCH   5  15
ENDBRANCH   1   6
BRANCH   3  19
ATOM     19  C   UNL     1      -0.320   0.051   7.265  0.00  0.00    +0.131 C 
BRANCH  19  20
ATOM     20  C   UNL     1      -0.308  -0.904   8.460  0.00  0.00    +0.140 C 
BRANCH  20  21
ATOM     21  N   UNL     1      -1.424  -1.851   8.342  0.00  0.00    -0.287 NA
ATOM     22  C   UNL     1      -2.714  -1.144   8.303  0.00  0.00    +0.090 C 
ATOM     23  C   UNL     1      -3.787  -2.118   7.817  0.00  0.00    +0.051 C 
ATOM     24  C   UNL     1      -3.721  -3.396   8.614  0.00  0.00    -0.042 A 
ATOM     25  C   UNL     1      -4.811  -4.253   8.582  0.00  0.00    +0.004 A 
ATOM     26  C   UNL     1      -4.791  -5.434   9.295  0.00  0.00    +0.000 A 
ATOM     27  C   UNL     1      -3.677  -5.766  10.044  0.00  0.00    +0.000 A 
ATOM     28  C   UNL     1      -2.592  -4.914  10.078  0.00  0.00    +0.005 A 
ATOM     29  C   UNL     1      -2.613  -3.724   9.364  0.00  0.00    -0.030 A 
ATOM     30  C   UNL     1      -1.409  -2.821   9.441  0.00  0.00    +0.120 C 
ENDBRANCH  20  21
BRANCH  20  31
ATOM     31  C   UNL     1      -0.453  -0.114   9.736  0.00  0.00    +0.123 A 
ATOM     32  C   UNL     1       0.549   0.235  10.563  0.00  0.00    +0.046 A 
ATOM     33  C   UNL     1      -0.033   0.963  11.626  0.00  0.00    +0.041 A 
ATOM     34  C   UNL     1      -1.355   1.014  11.386  0.00  0.00    +0.195 A 
ATOM     35  O   UNL     1      -1.603   0.365  10.236  0.00  0.00    -0.466 OA
ENDBRANCH  20  31
ENDBRANCH  19  20
ENDBRANCH   3  19
TORSDOF 7
