REMARK  Name = ZINC21981371
REMARK  10 active torsions:
REMARK  status: ('A' for Active; 'I' for Inactive)
REMARK    1  A    between atoms: C_1  and  C_2
REMARK    2  A    between atoms: C_2  and  C_3
REMARK    3  A    between atoms: C_3  and  C_4
REMARK    4  A    between atoms: C_11  and  C_13
REMARK    5  A    between atoms: C_15  and  S_22
REMARK    6  A    between atoms: C_18  and  O_19
REMARK    7  A    between atoms: O_19  and  C_20
REMARK    8  A    between atoms: C_20  and  C_21
REMARK    9  A    between atoms: S_22  and  N_25
REMARK   10  A    between atoms: N_31  and  C_33
REMARK                            x       y       z     vdW  Elec       q    Type
REMARK                         _______ _______ _______ _____ _____    ______ ____
ROOT
ATOM      1  C   UNL     1      -1.422  -3.233  -4.785  0.00  0.00    +0.061 A 
ATOM      2  C   UNL     1      -1.418  -4.249  -5.743  0.00  0.00    +0.043 A 
ATOM      3  C   UNL     1      -1.430  -3.930  -7.084  0.00  0.00    +0.106 A 
ATOM      4  C   UNL     1      -1.445  -2.605  -7.486  0.00  0.00    +0.032 A 
ATOM      5  C   UNL     1      -1.448  -1.590  -6.549  0.00  0.00    +0.048 A 
ATOM      6  C   UNL     1      -1.443  -1.894  -5.196  0.00  0.00    +0.131 A 
ENDROOT
BRANCH   1  14
ATOM      7  C   UNL     1      -1.413  -2.041   0.005  0.00  0.00    +0.089 A 
ATOM      8  C   UNL     1      -1.407  -2.855  -1.145  0.00  0.00    +0.119 A 
ATOM      9  C   UNL     1      -1.386  -4.184  -0.703  0.00  0.00    +0.151 A 
ATOM     10  C   UNL     1      -1.377  -5.221  -1.664  0.00  0.00    +0.278 A 
ATOM     11  O   UNL     1      -1.359  -6.391  -1.321  0.00  0.00    -0.265 OA
ATOM     12  N   UNL     1      -1.389  -4.885  -2.973  0.00  0.00    -0.305 N 
ATOM     13  H   UNL     1      -1.383  -5.579  -3.650  0.00  0.00    +0.170 HD
ATOM     14  C   UNL     1      -1.409  -3.569  -3.348  0.00  0.00    +0.145 A 
ATOM     15  N   UNL     1      -1.417  -2.597  -2.468  0.00  0.00    -0.225 NA
ATOM     16  N   UNL     1      -1.380  -4.150   0.664  0.00  0.00    -0.260 N 
ATOM     17  N   UNL     1      -1.392  -2.807   1.061  0.00  0.00    -0.174 NA
ATOM     18  C   UNL     1      -1.360  -5.313   1.555  0.00  0.00    +0.173 C 
BRANCH   7  19
ATOM     19  C   UNL     1      -1.433  -0.534   0.013  0.00  0.00    +0.059 C 
BRANCH  19  21
ATOM     20  C   UNL     1      -0.019   1.526   0.010  0.00  0.00    +0.004 C 
ATOM     21  C   UNL     1       0.002  -0.004   0.002  0.00  0.00    +0.003 C 
ENDBRANCH  19  21
ENDBRANCH   7  19
ENDBRANCH   1  14
BRANCH   3  22
ATOM     22  S   UNL     1      -1.425  -5.213  -8.292  0.00  0.00    +0.061 S 
ATOM     23  O   UNL     1      -0.887  -4.650  -9.480  0.00  0.00    -0.153 OA
ATOM     24  O   UNL     1      -0.859  -6.357  -7.667  0.00  0.00    -0.153 OA
BRANCH  22  25
ATOM     25  N   UNL     1      -3.006  -5.585  -8.617  0.00  0.00    -0.174 NA
ATOM     26  C   UNL     1      -3.714  -6.615  -7.842  0.00  0.00    +0.124 C 
ATOM     27  C   UNL     1      -4.361  -7.601  -8.821  0.00  0.00    +0.098 C 
ATOM     28  N   UNL     1      -5.195  -6.860  -9.777  0.00  0.00    -0.313 NA
ATOM     29  C   UNL     1      -4.385  -5.947 -10.595  0.00  0.00    +0.098 C 
ATOM     30  C   UNL     1      -3.741  -4.889  -9.685  0.00  0.00    +0.124 C 
ATOM     31  H   UNL     1      -5.726  -7.492 -10.358  0.00  0.00    +0.122 HD
ENDBRANCH  22  25
ENDBRANCH   3  22
BRANCH   6  32
ATOM     32  O   UNL     1      -1.453  -0.898  -4.274  0.00  0.00    -0.492 OA
BRANCH  32  33
ATOM     33  C   UNL     1      -1.474   0.443  -4.767  0.00  0.00    +0.226 C 
ATOM     34  C   UNL     1      -1.482   1.419  -3.589  0.00  0.00    +0.048 C 
ENDBRANCH  32  33
ENDBRANCH   6  32
TORSDOF 7
