REMARK  Name = ZINC04578369
REMARK  5 active torsions:
REMARK  status: ('A' for Active; 'I' for Inactive)
REMARK    1  A    between atoms: C_4  and  C_7
REMARK    2  A    between atoms: N_9  and  C_24
REMARK    3  A    between atoms: N_13  and  N_14
REMARK    4  A    between atoms: N_14  and  C_15
REMARK    5  A    between atoms: C_18  and  N_21
REMARK                            x       y       z     vdW  Elec       q    Type
REMARK                         _______ _______ _______ _____ _____    ______ ____
ROOT
ATOM      1  C   UNL     1       3.697  -0.687  -0.038  0.00  0.00    +0.122 C 
ATOM      2  N   UNL     1       4.886  -0.143  -0.042  0.00  0.00    -0.170 NA
ATOM      3  N   UNL     1       5.886  -1.114  -0.060  0.00  0.00    -0.155 N 
ATOM      4  C   UNL     1       5.343  -2.348  -0.068  0.00  0.00    +0.292 C 
ATOM      5  O   UNL     1       5.939  -3.410  -0.083  0.00  0.00    -0.266 OA
ATOM      6  C   UNL     1       3.884  -2.153  -0.048  0.00  0.00    +0.173 C 
ATOM      7  N   UNL     1       2.948  -3.083  -0.043  0.00  0.00    -0.175 NA
ENDROOT
BRANCH   1  11
ATOM      8  C   UNL     1      -0.017   1.379   0.010  0.00  0.00    +0.000 A 
ATOM      9  C   UNL     1       1.169   2.093   0.002  0.00  0.00    +0.001 A 
ATOM     10  C   UNL     1       2.377   1.428  -0.013  0.00  0.00    +0.010 A 
ATOM     11  C   UNL     1       2.403   0.033  -0.021  0.00  0.00    +0.004 A 
ATOM     12  C   UNL     1       1.205  -0.680  -0.013  0.00  0.00    +0.010 A 
ATOM     13  C   UNL     1       0.002  -0.004   0.002  0.00  0.00    +0.001 A 
ENDBRANCH   1  11
BRANCH   3  14
ATOM     14  C   UNL     1       7.260  -0.846  -0.068  0.00  0.00    +0.060 A 
ATOM     15  C   UNL     1       8.174  -1.892  -0.091  0.00  0.00    +0.025 A 
ATOM     16  C   UNL     1       9.528  -1.624  -0.099  0.00  0.00    +0.002 A 
ATOM     17  C   UNL     1       9.976  -0.316  -0.082  0.00  0.00    +0.000 A 
ATOM     18  C   UNL     1       9.069   0.728  -0.058  0.00  0.00    +0.002 A 
ATOM     19  C   UNL     1       7.713   0.467  -0.057  0.00  0.00    +0.025 A 
ENDBRANCH   3  14
BRANCH   7  20
ATOM     20  N   UNL     1       3.278  -4.330  -0.053  0.00  0.00    -0.237 N 
ATOM     21  H   UNL     1       4.215  -4.584  -0.065  0.00  0.00    +0.174 HD
BRANCH  20  22
ATOM     22  C   UNL     1       2.289  -5.313  -0.048  0.00  0.00    +0.048 A 
ATOM     23  C   UNL     1       0.947  -4.952  -0.037  0.00  0.00    +0.027 A 
ATOM     24  C   UNL     1      -0.029  -5.928  -0.031  0.00  0.00    +0.034 A 
ATOM     25  C   UNL     1       0.326  -7.264  -0.036  0.00  0.00    +0.126 A 
ATOM     26  C   UNL     1       1.661  -7.628  -0.047  0.00  0.00    +0.034 A 
ATOM     27  C   UNL     1       2.643  -6.658  -0.059  0.00  0.00    +0.027 A 
BRANCH  25  28
ATOM     28  N   UNL     1      -0.724  -8.308  -0.030  0.00  0.00    +0.056 N 
ATOM     29  O   UNL     1      -1.890  -7.991  -0.021  0.00  0.00    -0.126 OA
ATOM     30  O   UNL     1      -0.414  -9.476  -0.035  0.00  0.00    -0.126 OA
ENDBRANCH  25  28
ENDBRANCH  20  22
ENDBRANCH   7  20
TORSDOF 5
