REMARK  Name = ZINC46024410
REMARK  10 active torsions:
REMARK  status: ('A' for Active; 'I' for Inactive)
REMARK    1  A    between atoms: C_1  and  C_2
REMARK    2  A    between atoms: C_3  and  C_8
REMARK    3  A    between atoms: C_4  and  C_7
REMARK    4  A    between atoms: C_8  and  N_9
REMARK    5  A    between atoms: N_9  and  C_10
REMARK    6  A    between atoms: N_13  and  C_14
REMARK    7  A    between atoms: C_20  and  C_22
REMARK    8  A    between atoms: C_22  and  C_23
REMARK    9  A    between atoms: C_22  and  C_24
REMARK   10  A    between atoms: C_22  and  C_25
REMARK                            x       y       z     vdW  Elec       q    Type
REMARK                         _______ _______ _______ _____ _____    ______ ____
ROOT
ATOM      1  N   UNL     1       1.709  -0.113  -3.909  0.00  0.00    -0.284 N 
ATOM      2  C   UNL     1       2.459  -1.329  -4.234  0.00  0.00    +0.134 C 
ATOM      3  C   UNL     1       2.360   1.053  -3.731  0.00  0.00    +0.302 C 
ATOM      4  O   UNL     1       1.738   2.062  -3.461  0.00  0.00    -0.253 OA
ATOM      5  N   UNL     1       3.702   1.101  -3.852  0.00  0.00    -0.296 N 
ATOM      6  H   UNL     1       4.199   0.297  -4.067  0.00  0.00    +0.151 HD
ENDROOT
BRANCH   5   7
ATOM      7  C   UNL     1       4.409   2.369  -3.659  0.00  0.00    +0.078 C 
ATOM      8  C   UNL     1       4.524   3.099  -4.999  0.00  0.00    +0.022 C 
ATOM      9  C   UNL     1       5.264   4.423  -4.797  0.00  0.00    +0.002 C 
ATOM     10  C   UNL     1       6.663   4.147  -4.245  0.00  0.00    +0.000 C 
ATOM     11  C   UNL     1       6.549   3.417  -2.905  0.00  0.00    +0.006 C 
ATOM     12  C   UNL     1       5.809   2.093  -3.107  0.00  0.00    +0.015 C 
BRANCH  12  13
ATOM     13  C   UNL     1       5.694   1.364  -1.767  0.00  0.00    -0.033 C 
ATOM     14  C   UNL     1       5.097  -0.027  -1.992  0.00  0.00    +0.011 C 
ATOM     15  C   UNL     1       7.083   1.226  -1.140  0.00  0.00    +0.011 C 
ATOM     16  C   UNL     1       4.788   2.162  -0.828  0.00  0.00    +0.011 C 
ENDBRANCH  12  13
ENDBRANCH   5   7
BRANCH   1  17
ATOM     17  C   UNL     1       0.251  -0.166  -3.777  0.00  0.00    +0.149 C 
BRANCH  17  20
ATOM     18  C   UNL     1      -0.243   1.974  -1.482  0.00  0.00    +0.069 C 
ATOM     19  C   UNL     1      -0.332   0.477  -1.331  0.00  0.00    +0.085 A 
ATOM     20  C   UNL     1      -0.114  -0.471  -2.347  0.00  0.00    +0.034 A 
ATOM     21  C   UNL     1      -0.287  -1.698  -1.819  0.00  0.00    +0.139 A 
ATOM     22  O   UNL     1      -0.603  -1.552  -0.524  0.00  0.00    -0.359 OA
ATOM     23  N   UNL     1      -0.620  -0.166  -0.234  0.00  0.00    -0.083 NA
ATOM     24  C   UNL     1      -0.150  -3.006  -2.556  0.00  0.00    +0.089 C 
ENDBRANCH  17  20
ENDBRANCH   1  17
TORSDOF 4
