REMARK  Name = ZINC12660415
REMARK  12 active torsions:
REMARK  status: ('A' for Active; 'I' for Inactive)
REMARK    1  A    between atoms: C_1  and  C_2
REMARK    2  A    between atoms: C_5  and  C_8
REMARK    3  A    between atoms: C_8  and  C_10
REMARK    4  A    between atoms: C_8  and  O_42
REMARK    5  A    between atoms: C_10  and  N_11
REMARK    6  A    between atoms: C_12  and  C_14
REMARK    7  A    between atoms: C_14  and  O_15
REMARK    8  A    between atoms: O_15  and  N_16
REMARK    9  A    between atoms: C_20  and  C_41
REMARK   10  A    between atoms: C_25  and  C_40
REMARK   11  A    between atoms: C_36  and  C_37
REMARK   12  A    between atoms: C_36  and  O_39
REMARK                            x       y       z     vdW  Elec       q    Type
REMARK                         _______ _______ _______ _____ _____    ______ ____
ROOT
ATOM      1  N   UNL     1       1.268   2.018   0.001  0.00  0.00    -0.089 NA
ATOM      2  C   UNL     1       1.386   3.308   0.007  0.00  0.00    +0.080 C 
ATOM      3  C   UNL     1       2.746   3.981  -0.003  0.00  0.00    +0.059 C 
ATOM      4  C   UNL     1       2.733   5.069  -1.073  0.00  0.00    +0.017 C 
ATOM      5  C   UNL     1       1.585   6.036  -0.905  0.00  0.00    -0.007 C 
ATOM      6  C   UNL     1       1.968   7.346  -0.281  0.00  0.00    +0.002 C 
ATOM      7  C   UNL     1       2.940   7.211   0.887  0.00  0.00    +0.005 C 
ATOM      8  C   UNL     1       3.732   8.525   1.032  0.00  0.00    +0.011 C 
ATOM      9  C   UNL     1       2.779   9.689   0.876  0.00  0.00    +0.011 C 
ATOM     10  C   UNL     1       1.332   9.235   1.157  0.00  0.00    +0.002 C 
ATOM     11  C   UNL     1       0.830   8.283   0.076  0.00  0.00    -0.003 C 
ATOM     12  C   UNL     1      -0.409   7.590   0.625  0.00  0.00    +0.008 C 
ATOM     13  C   UNL     1      -0.856   6.392  -0.201  0.00  0.00    +0.031 C 
ATOM     14  C   UNL     1       0.334   5.460  -0.339  0.00  0.00    -0.062 C 
ATOM     15  C   UNL     1       0.215   4.202   0.062  0.00  0.00    +0.026 C 
ATOM     16  C   UNL     1       0.578  10.574   1.219  0.00  0.00    +0.008 C 
ATOM     17  C   UNL     1       1.580  11.529   1.920  0.00  0.00    +0.049 C 
ATOM     18  C   UNL     1       2.952  10.809   1.917  0.00  0.00    +0.132 C 
ATOM     19  C   UNL     1       2.915  10.315  -0.514  0.00  0.00    +0.015 C 
ATOM     20  C   UNL     1       1.216   6.405  -2.350  0.00  0.00    +0.016 C 
ENDROOT
BRANCH  18  21
ATOM     21  C   UNL     1       4.016  11.731   1.499  0.00  0.00    -0.070 C 
ATOM     22  C   UNL     1       4.867  12.467   1.165  0.00  0.00    +0.007 C 
ENDBRANCH  18  21
BRANCH  18  23
ATOM     23  O   UNL     1       3.227  10.261   3.203  0.00  0.00    -0.376 OA
ATOM     24  H   UNL     1       3.281  10.921   3.908  0.00  0.00    +0.211 HD
ENDBRANCH  18  23
BRANCH   1  25
ATOM     25  O   UNL     1      -0.017   1.425   0.010  0.00  0.00    -0.384 OA
BRANCH  25  26
ATOM     26  C   UNL     1       0.002  -0.004   0.002  0.00  0.00    +0.358 C 
BRANCH  26  28
ATOM     27  N   UNL     1      -1.640  -1.854   0.008  0.00  0.00    -0.310 N 
ATOM     28  C   UNL     1      -1.412  -0.526   0.013  0.00  0.00    +0.253 C 
ATOM     29  O   UNL     1      -2.344   0.250   0.026  0.00  0.00    -0.272 OA
ATOM     30  H   UNL     1      -0.894  -2.474  -0.003  0.00  0.00    +0.149 HD
BRANCH  27  31
ATOM     31  C   UNL     1      -3.014  -2.361   0.018  0.00  0.00    +0.140 C 
BRANCH  31  32
ATOM     32  C   UNL     1      -2.994  -3.891   0.010  0.00  0.00    +0.163 C 
BRANCH  32  37
ATOM     33  C   UNL     1      -8.376  -5.862  -0.096  0.00  0.00    +0.065 C 
ATOM     34  C   UNL     1      -6.961  -5.346  -0.042  0.00  0.00    +0.038 A 
ATOM     35  C   UNL     1      -6.320  -5.235   1.177  0.00  0.00    +0.023 A 
ATOM     36  C   UNL     1      -5.019  -4.760   1.216  0.00  0.00    +0.009 A 
ATOM     37  C   UNL     1      -4.407  -4.412   0.020  0.00  0.00    +0.000 A 
ATOM     38  C   UNL     1      -5.113  -4.545  -1.160  0.00  0.00    +0.117 A 
ATOM     39  N   UNL     1      -6.349  -5.007  -1.159  0.00  0.00    -0.260 NA
ENDBRANCH  32  37
BRANCH  32  40
ATOM     40  O   UNL     1      -2.325  -4.352  -1.166  0.00  0.00    -0.386 OA
ATOM     41  H   UNL     1      -2.740  -4.067  -1.992  0.00  0.00    +0.210 HD
ENDBRANCH  32  40
ENDBRANCH  31  32
ENDBRANCH  27  31
ENDBRANCH  26  28
ENDBRANCH  25  26
ENDBRANCH   1  25
TORSDOF 9
