REMARK  Name = ZINC67202251
REMARK  6 active torsions:
REMARK  status: ('A' for Active; 'I' for Inactive)
REMARK    1  A    between atoms: C_4  and  C_11
REMARK    2  A    between atoms: C_5  and  N_6
REMARK    3  A    between atoms: N_13  and  C_14
REMARK    4  A    between atoms: C_14  and  C_15
REMARK    5  A    between atoms: N_20  and  C_21
REMARK    6  A    between atoms: C_21  and  C_22
REMARK                            x       y       z     vdW  Elec       q    Type
REMARK                         _______ _______ _______ _____ _____    ______ ____
ROOT
ATOM      1  C   UNL     1       1.631  -2.002  -0.024  0.00  0.00    +0.253 C 
ATOM      2  O   UNL     1       0.761  -2.854  -0.021  0.00  0.00    -0.270 OA
ATOM      3  N   UNL     1       2.929  -2.365  -0.038  0.00  0.00    -0.312 N 
ATOM      4  H   UNL     1       3.622  -1.686  -0.041  0.00  0.00    +0.149 HD
ENDROOT
BRANCH   1   8
ATOM      5  C   UNL     1      -0.017   1.376   0.010  0.00  0.00    +0.036 A 
ATOM      6  C   UNL     1       1.157   2.050   0.002  0.00  0.00    +0.048 A 
ATOM      7  S   UNL     1       2.329   0.846  -0.016  0.00  0.00    -0.090 S 
ATOM      8  C   UNL     1       1.268  -0.586  -0.013  0.00  0.00    +0.099 A 
ATOM      9  C   UNL     1       0.002  -0.004   0.002  0.00  0.00    +0.088 A 
BRANCH   9  10
ATOM     10  N   UNL     1      -1.171  -0.767   0.010  0.00  0.00    -0.199 N 
ATOM     11  C   UNL     1      -2.444  -0.315   0.019  0.00  0.00    +0.250 A 
ATOM     12  N   UNL     1      -3.228  -1.362   0.022  0.00  0.00    -0.116 NA
ATOM     13  N   UNL     1      -2.538  -2.444   0.017  0.00  0.00    -0.023 NA
ATOM     14  N   UNL     1      -1.278  -2.170   0.003  0.00  0.00    -0.039 NA
ENDBRANCH   9  10
ENDBRANCH   1   8
BRANCH   3  15
ATOM     15  C   UNL     1       3.293  -3.784  -0.049  0.00  0.00    +0.089 C 
BRANCH  15  16
ATOM     16  C   UNL     1       4.817  -3.920  -0.064  0.00  0.00    -0.051 C 
ATOM     17  C   UNL     1       5.214  -5.402   0.095  0.00  0.00    -0.016 C 
ATOM     18  C   UNL     1       6.468  -5.333   1.005  0.00  0.00    -0.020 C 
ATOM     19  C   UNL     1       6.110  -4.152   1.942  0.00  0.00    -0.078 C 
ATOM     20  N   UNL     1       5.397  -3.184   1.075  0.00  0.00    +0.383 N 
ATOM     21  H   UNL     1       4.661  -2.736   1.600  0.00  0.00    -0.081 HD
BRANCH  20  22
ATOM     22  C   UNL     1       6.339  -2.171   0.582  0.00  0.00    -0.075 C 
BRANCH  22  23
ATOM     23  C   UNL     1       6.843  -1.329   1.756  0.00  0.00    -0.028 C 
ATOM     24  C   UNL     1       5.678  -0.540   2.355  0.00  0.00    +0.002 C 
ATOM     25  C   UNL     1       6.182   0.302   3.529  0.00  0.00    +0.000 C 
ATOM     26  C   UNL     1       7.255   1.274   3.035  0.00  0.00    +0.000 C 
ATOM     27  C   UNL     1       8.421   0.485   2.435  0.00  0.00    +0.000 C 
ATOM     28  C   UNL     1       7.917  -0.357   1.262  0.00  0.00    +0.002 C 
ENDBRANCH  22  23
ENDBRANCH  20  22
ENDBRANCH  15  16
ENDBRANCH   3  15
TORSDOF 6
