REMARK  Name = ZINC51294991
REMARK  10 active torsions:
REMARK  status: ('A' for Active; 'I' for Inactive)
REMARK    1  A    between atoms: C_1  and  C_2
REMARK    2  A    between atoms: C_2  and  C_3
REMARK    3  A    between atoms: C_2  and  C_4
REMARK    4  A    between atoms: C_4  and  C_5
REMARK    5  A    between atoms: C_7  and  C_11
REMARK    6  A    between atoms: C_14  and  C_19
REMARK    7  A    between atoms: C_21  and  O_27
REMARK    8  A    between atoms: C_23  and  O_25
REMARK    9  A    between atoms: O_25  and  C_26
REMARK   10  A    between atoms: O_27  and  C_28
REMARK                            x       y       z     vdW  Elec       q    Type
REMARK                         _______ _______ _______ _____ _____    ______ ____
ROOT
ATOM      1  C   UNL     1       5.793  -0.647  -1.305  0.00  0.00    +0.150 A 
ATOM      2  N   UNL     1       6.232  -1.870  -1.478  0.00  0.00    -0.154 NA
ATOM      3  N   UNL     1       7.592  -2.145  -1.522  0.00  0.00    -0.185 N 
ATOM      4  C   UNL     1       8.450  -3.225  -1.675  0.00  0.00    +0.186 A 
ATOM      5  N   UNL     1       9.681  -2.770  -1.617  0.00  0.00    -0.126 NA
ATOM      6  N   UNL     1       9.670  -1.495  -1.439  0.00  0.00    -0.120 NA
ATOM      7  C   UNL     1       8.440  -1.075  -1.376  0.00  0.00    +0.219 A 
ATOM      8  S   UNL     1       7.313   0.284  -1.189  0.00  0.00    -0.025 S 
ENDROOT
BRANCH   1  11
ATOM      9  C   UNL     1       2.165  -0.079  -1.208  0.00  0.00    +0.064 A 
ATOM     10  C   UNL     1       3.262  -0.932  -1.329  0.00  0.00    +0.055 A 
ATOM     11  C   UNL     1       4.402  -0.164  -1.232  0.00  0.00    +0.093 A 
ATOM     12  N   UNL     1       4.001   1.129  -1.056  0.00  0.00    -0.275 N 
ATOM     13  H   UNL     1       4.582   1.899  -0.956  0.00  0.00    +0.189 HD
ATOM     14  N   UNL     1       2.601   1.145  -1.051  0.00  0.00    -0.178 NA
BRANCH   9  15
ATOM     15  C   UNL     1       0.718  -0.497  -1.257  0.00  0.00    +0.060 C 
BRANCH  15  17
ATOM     16  C   UNL     1      -0.019   1.526   0.010  0.00  0.00    +0.007 C 
ATOM     17  C   UNL     1       0.002  -0.004   0.002  0.00  0.00    -0.011 C 
ATOM     18  C   UNL     1      -1.433  -0.534   0.013  0.00  0.00    +0.007 C 
ENDBRANCH  15  17
ENDBRANCH   9  15
ENDBRANCH   1  11
BRANCH   4  19
ATOM     19  C   UNL     1       8.050  -4.634  -1.871  0.00  0.00    +0.028 A 
ATOM     20  C   UNL     1       6.738  -5.031  -1.611  0.00  0.00    +0.057 A 
ATOM     21  C   UNL     1       6.368  -6.353  -1.795  0.00  0.00    +0.124 A 
ATOM     22  C   UNL     1       7.300  -7.282  -2.237  0.00  0.00    +0.091 A 
ATOM     23  C   UNL     1       8.605  -6.891  -2.496  0.00  0.00    +0.124 A 
ATOM     24  C   UNL     1       8.983  -5.570  -2.320  0.00  0.00    +0.057 A 
BRANCH  23  25
ATOM     25  O   UNL     1       9.514  -7.804  -2.928  0.00  0.00    -0.495 OA
ATOM     26  C   UNL     1       9.055  -9.148  -3.093  0.00  0.00    +0.277 C 
ENDBRANCH  23  25
BRANCH  21  27
ATOM     27  O   UNL     1       5.090  -6.741  -1.543  0.00  0.00    -0.495 OA
ATOM     28  C   UNL     1       4.777  -8.119  -1.754  0.00  0.00    +0.277 C 
ENDBRANCH  21  27
ENDBRANCH   4  19
TORSDOF 6
