REMARK  Name = ZINC06265591
REMARK  9 active torsions:
REMARK  status: ('A' for Active; 'I' for Inactive)
REMARK    1  A    between atoms: C_1  and  C_2
REMARK    2  A    between atoms: C_2  and  O_3
REMARK    3  A    between atoms: O_3  and  C_4
REMARK    4  A    between atoms: C_4  and  C_6
REMARK    5  A    between atoms: C_7  and  N_24
REMARK    6  A    between atoms: N_12  and  C_13
REMARK    7  A    between atoms: N_12  and  S_14
REMARK    8  A    between atoms: S_14  and  C_17
REMARK    9  A    between atoms: C_20  and  C_23
REMARK                            x       y       z     vdW  Elec       q    Type
REMARK                         _______ _______ _______ _____ _____    ______ ____
ROOT
ATOM      1  C   UNL     1       3.588   2.941  -1.388  0.00  0.00    +0.141 A 
ATOM      2  C   UNL     1       3.801   3.021  -2.765  0.00  0.00    +0.128 A 
ATOM      3  N   UNL     1       2.657   2.654  -3.371  0.00  0.00    -0.262 N 
ATOM      4  H   UNL     1       2.515   2.619  -4.361  0.00  0.00    +0.190 HD
ATOM      5  N   UNL     1       1.697   2.330  -2.409  0.00  0.00    -0.155 NA
ATOM      6  C   UNL     1       2.205   2.491  -1.214  0.00  0.00    +0.178 A 
ATOM      7  N   UNL     1       1.553   2.269  -0.001  0.00  0.00    -0.187 N 
ATOM      8  C   UNL     1       2.262   2.488   1.263  0.00  0.00    +0.159 C 
ENDROOT
BRANCH   7   9
ATOM      9  S   UNL     1      -0.022   1.758   0.012  0.00  0.00    +0.076 S 
ATOM     10  O   UNL     1      -0.590   2.163  -1.226  0.00  0.00    -0.150 OA
ATOM     11  O   UNL     1      -0.566   2.150   1.264  0.00  0.00    -0.150 OA
BRANCH   9  12
ATOM     12  C   UNL     1       0.002  -0.004   0.002  0.00  0.00    +0.109 A 
ATOM     13  C   UNL     1      -0.006  -0.689  -1.199  0.00  0.00    +0.029 A 
ATOM     14  C   UNL     1       0.018  -2.071  -1.206  0.00  0.00    +0.005 A 
ATOM     15  C   UNL     1       0.039  -2.768  -0.013  0.00  0.00    -0.050 A 
ATOM     16  C   UNL     1       0.042  -2.084   1.188  0.00  0.00    +0.005 A 
ATOM     17  C   UNL     1       0.023  -0.702   1.195  0.00  0.00    +0.029 A 
ATOM     18  C   UNL     1       0.059  -4.275  -0.021  0.00  0.00    +0.044 C 
ENDBRANCH   9  12
ENDBRANCH   7   9
BRANCH   2  19
ATOM     19  N   UNL     1       4.969   3.405  -3.389  0.00  0.00    -0.343 N 
ATOM     20  H   UNL     1       5.743   3.653  -2.860  0.00  0.00    +0.144 HD
ATOM     21  H   UNL     1       5.016   3.428  -4.358  0.00  0.00    +0.144 HD
ENDBRANCH   2  19
BRANCH   1  22
ATOM     22  C   UNL     1       4.553   3.246  -0.330  0.00  0.00    +0.346 C 
ATOM     23  O   UNL     1       5.280   2.370   0.101  0.00  0.00    -0.245 OA
BRANCH  22  24
ATOM     24  O   UNL     1       4.638   4.497   0.166  0.00  0.00    -0.461 OA
BRANCH  24  26
ATOM     25  C   UNL     1       5.566   6.194   1.645  0.00  0.00    +0.048 C 
ATOM     26  C   UNL     1       5.617   4.727   1.212  0.00  0.00    +0.229 C 
ENDBRANCH  24  26
ENDBRANCH  22  24
ENDBRANCH   1  22
TORSDOF 6
