REMARK  Name = ZINC22219821
REMARK  9 active torsions:
REMARK  status: ('A' for Active; 'I' for Inactive)
REMARK    1  A    between atoms: C_3  and  C_6
REMARK    2  A    between atoms: N_8  and  C_9
REMARK    3  A    between atoms: C_12  and  C_15
REMARK    4  A    between atoms: C_15  and  O_17
REMARK    5  A    between atoms: O_17  and  C_18
REMARK    6  A    between atoms: C_18  and  C_19
REMARK    7  A    between atoms: N_21  and  C_22
REMARK    8  A    between atoms: C_22  and  C_23
REMARK    9  A    between atoms: N_25  and  C_26
REMARK                            x       y       z     vdW  Elec       q    Type
REMARK                         _______ _______ _______ _____ _____    ______ ____
ROOT
ATOM      1  C   UNL     1      -1.811   5.275   3.602  0.00  0.00    +0.328 C 
ENDROOT
BRANCH   1   2
ATOM      2  C   UNL     1      -1.131   4.968   2.293  0.00  0.00    +0.251 C 
ATOM      3  O   UNL     1      -0.773   5.872   1.568  0.00  0.00    -0.272 OA
ATOM      4  N   UNL     1      -0.919   3.688   1.928  0.00  0.00    -0.304 N 
ATOM      5  H   UNL     1      -1.244   2.868   2.585  0.00  0.00    +0.149 HD
BRANCH   4   6
ATOM      6  C   UNL     1      -0.258   3.389   0.655  0.00  0.00    +0.200 C 
BRANCH   6   7
ATOM      7  C   UNL     1      -0.145   1.895   0.487  0.00  0.00    +0.234 C 
ATOM      8  O   UNL     1      -0.574   1.154   1.345  0.00  0.00    -0.274 OA
ATOM      9  N   UNL     1       0.433   1.384  -0.618  0.00  0.00    -0.282 N 
ATOM     10  H   UNL     1       0.755   2.052  -1.430  0.00  0.00    +0.155 HD
BRANCH   9  11
ATOM     11  C   UNL     1       0.625   0.000  -0.732  0.00  0.00    +0.072 A 
ATOM     12  C   UNL     1      -0.307  -0.877  -0.194  0.00  0.00    +0.029 A 
ATOM     13  C   UNL     1      -0.120  -2.241  -0.310  0.00  0.00    +0.043 A 
ATOM     14  C   UNL     1       1.001  -2.735  -0.955  0.00  0.00    +0.161 A 
ATOM     15  C   UNL     1       1.937  -1.863  -1.490  0.00  0.00    +0.195 A 
ATOM     16  C   UNL     1       1.750  -0.495  -1.379  0.00  0.00    +0.182 A 
ATOM     17  F   UNL     1       2.661   0.356  -1.900  0.00  0.00    -0.200 F 
ATOM     18  F   UNL     1       3.030  -2.348  -2.118  0.00  0.00    -0.199 F 
ATOM     19  F   UNL     1       1.183  -4.070  -1.063  0.00  0.00    -0.202 F 
ENDBRANCH   9  11
ENDBRANCH   6   7
ENDBRANCH   4   6
ENDBRANCH   1   2
BRANCH   1  20
ATOM     20  O   UNL     1      -1.920   6.714   3.765  0.00  0.00    -0.452 OA
BRANCH  20  21
ATOM     21  C   UNL     1      -2.509   7.160   4.892  0.00  0.00    +0.340 C 
ATOM     22  O   UNL     1      -2.920   6.367   5.716  0.00  0.00    -0.245 OA
BRANCH  21  26
ATOM     23  C   UNL     1      -2.927  11.331   5.562  0.00  0.00    +0.034 A 
ATOM     24  C   UNL     1      -3.399  10.425   6.508  0.00  0.00    +0.024 A 
ATOM     25  C   UNL     1      -3.265   9.072   6.294  0.00  0.00    +0.017 A 
ATOM     26  C   UNL     1      -2.654   8.608   5.125  0.00  0.00    +0.059 A 
ATOM     27  C   UNL     1      -2.177   9.521   4.179  0.00  0.00    +0.017 A 
ATOM     28  C   UNL     1      -2.319  10.873   4.397  0.00  0.00    +0.024 A 
BRANCH  23  31
ATOM     29  C   UNL     1      -3.302  13.528   4.746  0.00  0.00    +0.255 C 
ATOM     30  O   UNL     1      -3.315  13.093   3.609  0.00  0.00    -0.269 OA
ATOM     31  N   UNL     1      -3.065  12.700   5.782  0.00  0.00    -0.281 N 
ATOM     32  H   UNL     1      -2.980  13.104   6.801  0.00  0.00    +0.155 HD
BRANCH  29  35
ATOM     33  C   UNL     1      -3.997  17.225   4.575  0.00  0.00    +0.008 A 
ATOM     34  C   UNL     1      -3.805  15.962   4.074  0.00  0.00    +0.021 A 
ATOM     35  C   UNL     1      -3.545  14.953   4.987  0.00  0.00    +0.074 A 
ATOM     36  S   UNL     1      -3.590  15.839   6.535  0.00  0.00    -0.092 S 
ATOM     37  C   UNL     1      -3.924  17.424   5.918  0.00  0.00    +0.046 A 
ENDBRANCH  29  35
ENDBRANCH  23  31
ENDBRANCH  21  26
ENDBRANCH  20  21
ENDBRANCH   1  20
TORSDOF 9
