REMARK  Name = ZINC36528819
REMARK  10 active torsions:
REMARK  status: ('A' for Active; 'I' for Inactive)
REMARK    1  A    between atoms: C_1  and  C_2
REMARK    2  A    between atoms: C_5  and  S_8
REMARK    3  A    between atoms: S_8  and  C_11
REMARK    4  A    between atoms: C_11  and  N_12
REMARK    5  A    between atoms: C_13  and  C_15
REMARK    6  A    between atoms: C_15  and  C_17
REMARK    7  A    between atoms: C_15  and  N_26
REMARK    8  A    between atoms: N_26  and  C_27
REMARK    9  A    between atoms: C_28  and  C_30
REMARK   10  A    between atoms: C_35  and  O_36
REMARK                            x       y       z     vdW  Elec       q    Type
REMARK                         _______ _______ _______ _____ _____    ______ ____
ROOT
ATOM      1  C   UNL     1       3.562  -4.816   3.754  0.00  0.00    +0.192 C 
ENDROOT
BRANCH   1   2
ATOM      2  C   UNL     1       4.812  -4.012   4.002  0.00  0.00    -0.015 A 
ATOM      3  C   UNL     1       4.722  -2.653   4.242  0.00  0.00    +0.010 A 
ATOM      4  C   UNL     1       5.866  -1.911   4.470  0.00  0.00    +0.050 A 
ATOM      5  C   UNL     1       7.107  -2.528   4.458  0.00  0.00    +0.166 A 
ATOM      6  C   UNL     1       7.197  -3.897   4.216  0.00  0.00    +0.167 A 
ATOM      7  C   UNL     1       6.046  -4.635   3.994  0.00  0.00    +0.055 A 
ATOM      8  O   UNL     1       8.512  -4.261   4.256  0.00  0.00    -0.453 OA
ATOM      9  C   UNL     1       9.255  -3.035   4.119  0.00  0.00    +0.466 C 
ATOM     10  O   UNL     1       8.365  -2.035   4.650  0.00  0.00    -0.453 OA
ENDBRANCH   1   2
BRANCH   1  12
ATOM     11  N   UNL     1       3.653  -4.533   1.299  0.00  0.00    -0.294 N 
ATOM     12  C   UNL     1       3.590  -5.370   2.353  0.00  0.00    +0.239 C 
ATOM     13  O   UNL     1       3.557  -6.569   2.174  0.00  0.00    -0.273 OA
ATOM     14  H   UNL     1       3.680  -3.574   1.442  0.00  0.00    +0.150 HD
BRANCH  11  15
ATOM     15  C   UNL     1       3.680  -5.071  -0.064  0.00  0.00    +0.278 C 
BRANCH  15  16
ATOM     16  S   UNL     1       1.996  -5.098  -0.737  0.00  0.00    +0.013 S 
ATOM     17  O   UNL     1       1.099  -5.662   0.211  0.00  0.00    -0.168 OA
ATOM     18  O   UNL     1       2.014  -5.559  -2.081  0.00  0.00    -0.168 OA
BRANCH  16  23
ATOM     19  C   UNL     1       0.382   0.703  -1.120  0.00  0.00    +0.044 C 
ATOM     20  C   UNL     1       0.785  -0.746  -1.024  0.00  0.00    -0.050 A 
ATOM     21  C   UNL     1       1.414  -1.361  -2.091  0.00  0.00    +0.005 A 
ATOM     22  C   UNL     1       1.784  -2.690  -2.003  0.00  0.00    +0.027 A 
ATOM     23  C   UNL     1       1.526  -3.404  -0.848  0.00  0.00    +0.090 A 
ATOM     24  C   UNL     1       0.897  -2.790   0.218  0.00  0.00    +0.027 A 
ATOM     25  C   UNL     1       0.531  -1.459   0.132  0.00  0.00    +0.005 A 
ENDBRANCH  16  23
ENDBRANCH  15  16
ENDBRANCH  11  15
ENDBRANCH   1  12
BRANCH   1  26
ATOM     26  N   UNL     1       3.494  -5.920   4.715  0.00  0.00    -0.285 N 
ATOM     27  C   UNL     1       4.508  -6.977   4.689  0.00  0.00    +0.133 C 
ATOM     28  C   UNL     1       2.498  -5.964   5.622  0.00  0.00    +0.251 C 
ATOM     29  O   UNL     1       1.703  -5.047   5.697  0.00  0.00    -0.270 OA
BRANCH  28  30
ATOM     30  C   UNL     1       2.372  -7.125   6.524  0.00  0.00    +0.078 A 
ATOM     31  C   UNL     1       3.485  -7.591   7.228  0.00  0.00    +0.017 A 
ATOM     32  C   UNL     1       3.360  -8.675   8.069  0.00  0.00    +0.001 A 
ATOM     33  C   UNL     1       2.136  -9.306   8.220  0.00  0.00    +0.004 A 
ATOM     34  C   UNL     1       1.029  -8.856   7.530  0.00  0.00    +0.046 A 
ATOM     35  C   UNL     1       1.135  -7.763   6.683  0.00  0.00    +0.129 A 
BRANCH  35  36
ATOM     36  O   UNL     1       0.046  -7.316   6.008  0.00  0.00    -0.506 OA
ATOM     37  H   UNL     1      -0.077  -7.728   5.142  0.00  0.00    +0.292 HD
ENDBRANCH  35  36
ENDBRANCH  28  30
ENDBRANCH   1  26
TORSDOF 8
