REMARK  Name = ZINC39191444
REMARK  16 active torsions:
REMARK  status: ('A' for Active; 'I' for Inactive)
REMARK    1  A    between atoms: C_1  and  C_2
REMARK    2  A    between atoms: C_2  and  C_4
REMARK    3  A    between atoms: C_2  and  O_17
REMARK    4  A    between atoms: N_6  and  C_7
REMARK    5  A    between atoms: C_11  and  N_13
REMARK    6  A    between atoms: O_17  and  C_18
REMARK    7  A    between atoms: C_18  and  C_20
REMARK    8  A    between atoms: C_20  and  C_22
REMARK    9  A    between atoms: C_20  and  N_25
REMARK   10  A    between atoms: C_22  and  C_23
REMARK   11  A    between atoms: C_22  and  C_24
REMARK   12  A    between atoms: C_26  and  C_28
REMARK   13  A    between atoms: C_30  and  O_36
REMARK   14  A    between atoms: C_32  and  O_34
REMARK   15  A    between atoms: O_34  and  C_35
REMARK   16  A    between atoms: O_36  and  C_37
REMARK                            x       y       z     vdW  Elec       q    Type
REMARK                         _______ _______ _______ _____ _____    ______ ____
ROOT
ATOM      1  C   UNL     1      -0.086  -0.661  -2.264  0.00  0.00    +0.329 C 
ATOM      2  O   UNL     1      -1.274  -0.450  -2.221  0.00  0.00    -0.249 OA
ENDROOT
BRANCH   1   3
ATOM      3  O   UNL     1       0.671  -0.462  -1.174  0.00  0.00    -0.451 OA
BRANCH   3   5
ATOM      4  C   UNL     1      -0.004   1.532   0.014  0.00  0.00    +0.062 C 
ATOM      5  C   UNL     1       0.005   0.002   0.002  0.00  0.00    +0.259 C 
BRANCH   5   6
ATOM      6  C   UNL     1       0.730  -0.505   1.223  0.00  0.00    +0.258 C 
ATOM      7  O   UNL     1       1.769  -1.118   1.100  0.00  0.00    -0.271 OA
ATOM      8  N   UNL     1       0.223  -0.277   2.451  0.00  0.00    -0.282 N 
ATOM      9  H   UNL     1      -0.571   0.271   2.553  0.00  0.00    +0.155 HD
BRANCH   8  10
ATOM     10  C   UNL     1       0.843  -0.829   3.578  0.00  0.00    +0.036 A 
ATOM     11  C   UNL     1       0.077  -1.256   4.654  0.00  0.00    +0.026 A 
ATOM     12  C   UNL     1       0.690  -1.800   5.765  0.00  0.00    +0.042 A 
ATOM     13  C   UNL     1       2.069  -1.921   5.806  0.00  0.00    +0.154 A 
ATOM     14  C   UNL     1       2.836  -1.496   4.734  0.00  0.00    +0.163 A 
ATOM     15  C   UNL     1       2.225  -0.957   3.619  0.00  0.00    +0.059 A 
ATOM     16  F   UNL     1       2.668  -2.453   6.894  0.00  0.00    -0.203 F 
BRANCH  14  17
ATOM     17  N   UNL     1       4.309  -1.626   4.781  0.00  0.00    +0.059 N 
ATOM     18  O   UNL     1       4.979  -1.255   3.845  0.00  0.00    -0.126 OA
ATOM     19  O   UNL     1       4.843  -2.103   5.755  0.00  0.00    -0.126 OA
ENDBRANCH  14  17
ENDBRANCH   8  10
ENDBRANCH   5   6
ENDBRANCH   3   5
ENDBRANCH   1   3
BRANCH   1  20
ATOM     20  C   UNL     1       0.547  -1.150  -3.542  0.00  0.00    +0.185 C 
BRANCH  20  21
ATOM     21  N   UNL     1      -0.482  -1.287  -4.575  0.00  0.00    -0.298 N 
ATOM     22  C   UNL     1      -0.143  -1.212  -5.878  0.00  0.00    +0.245 C 
ATOM     23  O   UNL     1       1.016  -1.031  -6.195  0.00  0.00    -0.270 OA
ATOM     24  H   UNL     1      -1.407  -1.432  -4.322  0.00  0.00    +0.150 HD
BRANCH  22  25
ATOM     25  C   UNL     1      -1.182  -1.351  -6.921  0.00  0.00    +0.044 A 
ATOM     26  C   UNL     1      -2.514  -1.553  -6.559  0.00  0.00    +0.059 A 
ATOM     27  C   UNL     1      -3.484  -1.682  -7.539  0.00  0.00    +0.124 A 
ATOM     28  C   UNL     1      -3.133  -1.610  -8.879  0.00  0.00    +0.091 A 
ATOM     29  C   UNL     1      -1.810  -1.409  -9.243  0.00  0.00    +0.124 A 
ATOM     30  C   UNL     1      -0.834  -1.274  -8.269  0.00  0.00    +0.059 A 
BRANCH  29  31
ATOM     31  O   UNL     1      -1.470  -1.340 -10.558  0.00  0.00    -0.495 OA
ATOM     32  C   UNL     1      -2.527  -1.482 -11.509  0.00  0.00    +0.277 C 
ENDBRANCH  29  31
BRANCH  27  33
ATOM     33  O   UNL     1      -4.782  -1.879  -7.187  0.00  0.00    -0.495 OA
ATOM     34  C   UNL     1      -5.730  -2.004  -8.249  0.00  0.00    +0.277 C 
ENDBRANCH  27  33
ENDBRANCH  22  25
ENDBRANCH  20  21
BRANCH  20  35
ATOM     35  C   UNL     1       1.208  -2.507  -3.297  0.00  0.00    +0.014 C 
ATOM     36  C   UNL     1       2.283  -2.364  -2.217  0.00  0.00    +0.009 C 
ATOM     37  C   UNL     1       0.152  -3.513  -2.834  0.00  0.00    +0.009 C 
ENDBRANCH  20  35
ENDBRANCH   1  20
TORSDOF 11
