REMARK  Name = ZINC09088758
REMARK  7 active torsions:
REMARK  status: ('A' for Active; 'I' for Inactive)
REMARK    1  A    between atoms: C_1  and  C_2
REMARK    2  A    between atoms: C_5  and  C_8
REMARK    3  A    between atoms: C_8  and  S_9
REMARK    4  A    between atoms: S_9  and  C_10
REMARK    5  A    between atoms: C_13  and  C_16
REMARK    6  A    between atoms: N_14  and  N_15
REMARK    7  A    between atoms: C_18  and  C_22
REMARK                            x       y       z     vdW  Elec       q    Type
REMARK                         _______ _______ _______ _____ _____    ______ ____
ROOT
ATOM      1  C   UNL     1       1.632  -6.614  -0.043  0.00  0.00    +0.209 A 
ATOM      2  N   UNL     1       0.514  -7.303  -0.046  0.00  0.00    -0.120 NA
ATOM      3  N   UNL     1       0.771  -8.562  -0.052  0.00  0.00    -0.125 NA
ATOM      4  C   UNL     1       2.070  -8.754  -0.054  0.00  0.00    +0.202 A 
ATOM      5  N   UNL     1       2.661  -7.512  -0.053  0.00  0.00    -0.222 N 
ENDROOT
BRANCH   4   6
ATOM      6  C   UNL     1       2.765 -10.059  -0.059  0.00  0.00    +0.132 A 
ATOM      7  C   UNL     1       2.147 -11.323  -0.071  0.00  0.00    +0.061 A 
ATOM      8  C   UNL     1       3.131 -12.267  -0.074  0.00  0.00    +0.066 A 
ATOM      9  N   UNL     1       4.329 -11.615  -0.065  0.00  0.00    -0.276 N 
ATOM     10  H   UNL     1       5.205 -12.032  -0.064  0.00  0.00    +0.189 HD
ATOM     11  N   UNL     1       4.072 -10.238  -0.061  0.00  0.00    -0.170 NA
BRANCH   8  12
ATOM     12  C   UNL     1       2.934 -13.734  -0.085  0.00  0.00    -0.000 A 
ATOM     13  C   UNL     1       1.645 -14.268  -0.099  0.00  0.00    +0.013 A 
ATOM     14  C   UNL     1       1.468 -15.635  -0.110  0.00  0.00    +0.039 A 
ATOM     15  C   UNL     1       2.567 -16.479  -0.106  0.00  0.00    +0.123 A 
ATOM     16  C   UNL     1       3.849 -15.954  -0.092  0.00  0.00    +0.039 A 
ATOM     17  C   UNL     1       4.038 -14.588  -0.087  0.00  0.00    +0.013 A 
ATOM     18  F   UNL     1       2.387 -17.818  -0.116  0.00  0.00    -0.205 F 
ENDBRANCH   8  12
ENDBRANCH   4   6
BRANCH   5  19
ATOM     19  N   UNL     1       3.999  -7.235  -0.059  0.00  0.00    -0.295 N 
ATOM     20  H   UNL     1       4.358  -7.167   0.881  0.00  0.00    +0.163 HD
ATOM     21  H   UNL     1       4.508  -7.924  -0.593  0.00  0.00    +0.163 HD
ENDBRANCH   5  19
BRANCH   1  22
ATOM     22  S   UNL     1       1.777  -4.858  -0.034  0.00  0.00    -0.080 S 
BRANCH  22  23
ATOM     23  C   UNL     1       0.059  -4.275  -0.021  0.00  0.00    +0.112 C 
BRANCH  23  28
ATOM     24  C   UNL     1      -0.018   1.503   0.010  0.00  0.00    +0.044 C 
ATOM     25  C   UNL     1       0.002  -0.004   0.002  0.00  0.00    -0.050 A 
ATOM     26  C   UNL     1       0.006  -0.689  -1.199  0.00  0.00    +0.003 A 
ATOM     27  C   UNL     1       0.025  -2.071  -1.206  0.00  0.00    +0.005 A 
ATOM     28  C   UNL     1       0.040  -2.768  -0.013  0.00  0.00    -0.037 A 
ATOM     29  C   UNL     1       0.037  -2.084   1.188  0.00  0.00    +0.005 A 
ATOM     30  C   UNL     1       0.023  -0.702   1.195  0.00  0.00    +0.003 A 
ENDBRANCH  23  28
ENDBRANCH  22  23
ENDBRANCH   1  22
TORSDOF 6
