REMARK  Name = ZINC16622288
REMARK  11 active torsions:
REMARK  status: ('A' for Active; 'I' for Inactive)
REMARK    1  A    between atoms: C_1  and  C_2
REMARK    2  A    between atoms: C_2  and  C_3
REMARK    3  A    between atoms: C_3  and  N_4
REMARK    4  A    between atoms: N_4  and  C_5
REMARK    5  A    between atoms: C_5  and  C_6
REMARK    6  A    between atoms: N_8  and  C_9
REMARK    7  A    between atoms: C_14  and  C_15
REMARK    8  A    between atoms: C_16  and  C_18
REMARK    9  A    between atoms: C_18  and  N_19
REMARK   10  A    between atoms: C_22  and  C_26
REMARK   11  A    between atoms: C_22  and  C_27
REMARK                            x       y       z     vdW  Elec       q    Type
REMARK                         _______ _______ _______ _____ _____    ______ ____
ROOT
ATOM      1  N   UNL     1      -0.242  -0.905   5.988  0.00  0.00    -0.291 N 
ATOM      2  C   UNL     1      -1.440  -1.361   6.406  0.00  0.00    +0.234 C 
ATOM      3  O   UNL     1      -2.456  -0.979   5.867  0.00  0.00    -0.274 OA
ENDROOT
BRANCH   1   4
ATOM      4  C   UNL     1       0.986  -1.367   6.640  0.00  0.00    +0.108 C 
BRANCH   4   6
ATOM      5  C   UNL     1       2.608  -0.918   8.487  0.00  0.00    +0.005 C 
ATOM      6  C   UNL     1       1.325  -0.436   7.806  0.00  0.00    +0.016 C 
ENDBRANCH   4   6
ENDBRANCH   1   4
BRANCH   1   7
ATOM      7  C   UNL     1      -0.169   0.052   4.882  0.00  0.00    +0.203 C 
BRANCH   7   8
ATOM      8  C   UNL     1      -0.057  -0.694   3.578  0.00  0.00    +0.235 C 
ATOM      9  O   UNL     1      -0.040  -1.907   3.573  0.00  0.00    -0.274 OA
ATOM     10  N   UNL     1       0.025  -0.015   2.417  0.00  0.00    -0.284 N 
ATOM     11  H   UNL     1       0.077   0.954   2.425  0.00  0.00    +0.155 HD
BRANCH  10  12
ATOM     12  C   UNL     1       0.034  -0.706   1.201  0.00  0.00    +0.036 A 
ATOM     13  C   UNL     1       0.656  -1.944   1.109  0.00  0.00    +0.023 A 
ATOM     14  C   UNL     1       0.662  -2.624  -0.093  0.00  0.00    +0.002 A 
ATOM     15  C   UNL     1       0.050  -2.074  -1.204  0.00  0.00    +0.000 A 
ATOM     16  C   UNL     1      -0.574  -0.844  -1.115  0.00  0.00    +0.005 A 
ATOM     17  C   UNL     1      -0.580  -0.156   0.083  0.00  0.00    -0.029 A 
ATOM     18  C   UNL     1      -1.256   1.188   0.178  0.00  0.00    +0.045 C 
ENDBRANCH  10  12
ENDBRANCH   7   8
ENDBRANCH   1   7
BRANCH   2  19
ATOM     19  C   UNL     1      -1.515  -2.346   7.544  0.00  0.00    +0.213 C 
BRANCH  19  20
ATOM     20  N   UNL     1      -2.917  -2.684   7.806  0.00  0.00    -0.215 N 
ATOM     21  C   UNL     1      -3.573  -3.703   7.215  0.00  0.00    +0.251 C 
ATOM     22  O   UNL     1      -3.132  -4.481   6.397  0.00  0.00    -0.272 OA
ATOM     23  C   UNL     1      -4.977  -3.671   7.785  0.00  0.00    +0.135 C 
ATOM     24  N   UNL     1      -4.946  -2.531   8.718  0.00  0.00    -0.281 N 
ATOM     25  C   UNL     1      -3.701  -2.024   8.664  0.00  0.00    +0.310 C 
ATOM     26  O   UNL     1      -3.332  -1.069   9.320  0.00  0.00    -0.252 OA
ATOM     27  C   UNL     1      -6.003  -3.430   6.676  0.00  0.00    +0.047 C 
ATOM     28  H   UNL     1      -5.679  -2.212   9.268  0.00  0.00    +0.152 HD
BRANCH  23  29
ATOM     29  C   UNL     1      -5.280  -4.951   8.521  0.00  0.00    -0.015 A 
ATOM     30  C   UNL     1      -4.686  -6.134   8.122  0.00  0.00    +0.007 A 
ATOM     31  C   UNL     1      -4.959  -7.307   8.800  0.00  0.00    +0.020 A 
ATOM     32  C   UNL     1      -5.835  -7.299   9.870  0.00  0.00    +0.041 A 
ATOM     33  C   UNL     1      -6.434  -6.116  10.265  0.00  0.00    +0.020 A 
ATOM     34  C   UNL     1      -6.156  -4.942   9.590  0.00  0.00    +0.007 A 
ATOM     35 CL   UNL     1      -6.184  -8.774  10.717  0.00  0.00    -0.084 Cl
ENDBRANCH  23  29
ENDBRANCH  19  20
ENDBRANCH   2  19
TORSDOF 8
