REMARK  Name = ZINC13271782
REMARK  12 active torsions:
REMARK  status: ('A' for Active; 'I' for Inactive)
REMARK    1  A    between atoms: C_1  and  C_2
REMARK    2  A    between atoms: C_2  and  C_4
REMARK    3  A    between atoms: C_2  and  S_15
REMARK    4  A    between atoms: N_6  and  C_7
REMARK    5  A    between atoms: C_10  and  C_13
REMARK    6  A    between atoms: S_15  and  C_16
REMARK    7  A    between atoms: C_19  and  C_29
REMARK    8  A    between atoms: N_20  and  C_21
REMARK    9  A    between atoms: C_21  and  C_23
REMARK   10  A    between atoms: C_21  and  C_26
REMARK   11  A    between atoms: C_23  and  C_24
REMARK   12  A    between atoms: C_23  and  C_25
REMARK                            x       y       z     vdW  Elec       q    Type
REMARK                         _______ _______ _______ _____ _____    ______ ____
ROOT
ATOM      1  C   UNL     1      -2.365  -0.107  -1.526  0.00  0.00    +0.193 A 
ATOM      2  N   UNL     1      -1.734   0.576  -2.453  0.00  0.00    -0.122 NA
ATOM      3  N   UNL     1      -2.513   0.793  -3.452  0.00  0.00    -0.128 NA
ATOM      4  C   UNL     1      -3.694   0.261  -3.223  0.00  0.00    +0.172 A 
ATOM      5  N   UNL     1      -3.633  -0.337  -1.984  0.00  0.00    -0.287 N 
ENDROOT
BRANCH   4   6
ATOM      6  C   UNL     1      -4.857   0.293  -4.124  0.00  0.00    +0.056 A 
ATOM      7  C   UNL     1      -4.909   0.606  -5.459  0.00  0.00    +0.019 A 
ATOM      8  C   UNL     1      -6.127   0.566  -6.099  0.00  0.00    +0.008 A 
ATOM      9  C   UNL     1      -7.236   0.221  -5.395  0.00  0.00    +0.046 A 
ATOM     10  S   UNL     1      -6.568  -0.071  -3.765  0.00  0.00    -0.094 S 
ENDBRANCH   4   6
BRANCH   1  11
ATOM     11  S   UNL     1      -1.701  -0.635   0.018  0.00  0.00    -0.073 S 
BRANCH  11  13
ATOM     12  C   UNL     1      -0.016   1.520  -0.004  0.00  0.00    +0.029 C 
ATOM     13  C   UNL     1       0.002  -0.010  -0.001  0.00  0.00    +0.137 C 
BRANCH  13  14
ATOM     14  C   UNL     1       0.731  -0.501   1.224  0.00  0.00    +0.230 C 
ATOM     15  O   UNL     1       0.105  -0.880   2.191  0.00  0.00    -0.274 OA
ATOM     16  N   UNL     1       2.079  -0.519   1.244  0.00  0.00    -0.285 N 
ATOM     17  H   UNL     1       2.579  -0.279   0.448  0.00  0.00    +0.155 HD
BRANCH  16  18
ATOM     18  C   UNL     1       2.754  -0.882   2.410  0.00  0.00    +0.033 A 
ATOM     19  C   UNL     1       2.224  -1.862   3.242  0.00  0.00    +0.024 A 
ATOM     20  C   UNL     1       2.888  -2.223   4.393  0.00  0.00    +0.020 A 
ATOM     21  C   UNL     1       4.095  -1.602   4.726  0.00  0.00    +0.052 A 
ATOM     22  C   UNL     1       4.625  -0.617   3.887  0.00  0.00    +0.020 A 
ATOM     23  C   UNL     1       3.958  -0.266   2.734  0.00  0.00    +0.024 A 
BRANCH  21  24
ATOM     24  C   UNL     1       4.788  -1.974   5.922  0.00  0.00    +0.099 C 
ATOM     25  N   UNL     1       5.338  -2.269   6.872  0.00  0.00    -0.191 NA
ENDBRANCH  21  24
ENDBRANCH  16  18
ENDBRANCH  13  14
ENDBRANCH  11  13
ENDBRANCH   1  11
BRANCH   5  26
ATOM     26  C   UNL     1      -4.704  -1.066  -1.299  0.00  0.00    +0.206 C 
BRANCH  26  27
ATOM     27  C   UNL     1      -4.252  -2.503  -1.031  0.00  0.00    +0.017 C 
ATOM     28  C   UNL     1      -5.370  -3.264  -0.315  0.00  0.00    +0.010 C 
ATOM     29  C   UNL     1      -3.933  -3.194  -2.358  0.00  0.00    +0.010 C 
ENDBRANCH  26  27
BRANCH  26  30
ATOM     30  C   UNL     1      -5.017  -0.385   0.008  0.00  0.00    +0.379 C 
ATOM     31  O   UNL     1      -6.174  -0.280   0.378  0.00  0.00    -0.244 OA
ATOM     32  O   UNL     1      -4.114   0.059   0.696  0.00  0.00    -0.244 OA
ENDBRANCH  26  30
ENDBRANCH   5  26
TORSDOF 9
