REMARK  Name = ZINC13352375
REMARK  10 active torsions:
REMARK  status: ('A' for Active; 'I' for Inactive)
REMARK    1  A    between atoms: C_3  and  O_28
REMARK    2  A    between atoms: C_6  and  C_7
REMARK    3  A    between atoms: N_8  and  N_9
REMARK    4  A    between atoms: C_10  and  C_12
REMARK    5  A    between atoms: C_12  and  O_13
REMARK    6  A    between atoms: O_13  and  C_14
REMARK    7  A    between atoms: C_17  and  C_20
REMARK    8  A    between atoms: C_23  and  C_26
REMARK    9  A    between atoms: O_28  and  C_29
REMARK   10  A    between atoms: C_29  and  C_30
REMARK                            x       y       z     vdW  Elec       q    Type
REMARK                         _______ _______ _______ _____ _____    ______ ____
ROOT
ATOM      1  N   UNL     1       0.002  -0.004   0.002  0.00  0.00    -0.204 N 
ATOM      2  C   UNL     1      -0.016   1.344   0.009  0.00  0.00    +0.270 C 
ATOM      3  O   UNL     1      -1.075   1.936   0.018  0.00  0.00    -0.270 OA
ATOM      4  H   UNL     1       0.849  -0.478  -0.009  0.00  0.00    +0.177 HD
ENDROOT
BRANCH   1   6
ATOM      5  C   UNL     1      -1.184  -2.019   0.003  0.00  0.00    +0.138 C 
ATOM      6  N   UNL     1      -1.202  -0.721   0.010  0.00  0.00    -0.188 NA
BRANCH   5  12
ATOM      7  C   UNL     1      -3.671  -2.093   0.032  0.00  0.00    +0.013 A 
ATOM      8  C   UNL     1      -4.853  -2.803   0.034  0.00  0.00    +0.046 A 
ATOM      9  C   UNL     1      -4.831  -4.191   0.026  0.00  0.00    +0.121 A 
ATOM     10  C   UNL     1      -3.620  -4.871   0.010  0.00  0.00    +0.046 A 
ATOM     11  C   UNL     1      -2.434  -4.170   0.003  0.00  0.00    +0.013 A 
ATOM     12  C   UNL     1      -2.450  -2.773   0.011  0.00  0.00    -0.005 A 
BRANCH   9  13
ATOM     13  O   UNL     1      -5.998  -4.886   0.033  0.00  0.00    -0.481 OA
BRANCH  13  14
ATOM     14  C   UNL     1      -7.207  -4.125   0.049  0.00  0.00    +0.353 C 
BRANCH  14  15
ATOM     15  C   UNL     1      -8.390  -5.059   0.055  0.00  0.00    +0.393 C 
ATOM     16  O   UNL     1      -8.215  -6.254   0.047  0.00  0.00    -0.243 OA
ATOM     17  O   UNL     1      -9.637  -4.563   0.069  0.00  0.00    -0.243 OA
ENDBRANCH  14  15
ENDBRANCH  13  14
ENDBRANCH   9  13
ENDBRANCH   5  12
ENDBRANCH   1   6
BRANCH   2  18
ATOM     18  C   UNL     1       1.278   2.115   0.001  0.00  0.00    +0.326 C 
BRANCH  18  19
ATOM     19  O   UNL     1       0.998   3.516   0.011  0.00  0.00    -0.483 OA
BRANCH  19  20
ATOM     20  C   UNL     1       2.064   4.358   0.006  0.00  0.00    +0.121 A 
ATOM     21  C   UNL     1       3.354   3.843  -0.004  0.00  0.00    +0.046 A 
ATOM     22  C   UNL     1       4.438   4.695  -0.014  0.00  0.00    +0.012 A 
ATOM     23  C   UNL     1       4.238   6.075  -0.004  0.00  0.00    -0.018 A 
ATOM     24  C   UNL     1       2.942   6.589   0.010  0.00  0.00    +0.012 A 
ATOM     25  C   UNL     1       1.862   5.732   0.015  0.00  0.00    +0.046 A 
BRANCH  23  26
ATOM     26  C   UNL     1       5.401   6.994  -0.009  0.00  0.00    -0.018 A 
ATOM     27  C   UNL     1       5.199   8.375  -0.005  0.00  0.00    +0.010 A 
ATOM     28  C   UNL     1       6.278   9.229  -0.003  0.00  0.00    +0.019 A 
ATOM     29  C   UNL     1       7.577   8.713  -0.018  0.00  0.00    +0.052 A 
ATOM     30  C   UNL     1       7.778   7.330  -0.029  0.00  0.00    +0.019 A 
ATOM     31  C   UNL     1       6.697   6.478  -0.024  0.00  0.00    +0.010 A 
BRANCH  29  32
ATOM     32  C   UNL     1       8.701   9.601  -0.024  0.00  0.00    +0.099 C 
ATOM     33  N   UNL     1       9.592  10.305  -0.028  0.00  0.00    -0.191 NA
ENDBRANCH  29  32
ENDBRANCH  23  26
ENDBRANCH  19  20
ENDBRANCH  18  19
ENDBRANCH   2  18
TORSDOF 10
