REMARK  Name = ZINC32535653
REMARK  10 active torsions:
REMARK  status: ('A' for Active; 'I' for Inactive)
REMARK    1  A    between atoms: C_1  and  C_2
REMARK    2  A    between atoms: C_2  and  C_3
REMARK    3  A    between atoms: C_3  and  C_5
REMARK    4  A    between atoms: C_3  and  N_16
REMARK    5  A    between atoms: C_11  and  C_13
REMARK    6  A    between atoms: C_13  and  O_14
REMARK    7  A    between atoms: O_14  and  C_15
REMARK    8  A    between atoms: C_20  and  S_21
REMARK    9  A    between atoms: S_21  and  C_22
REMARK   10  A    between atoms: C_22  and  C_23
REMARK                            x       y       z     vdW  Elec       q    Type
REMARK                         _______ _______ _______ _____ _____    ______ ____
ROOT
ATOM      1  N   UNL     1       1.346   1.674   2.558  0.00  0.00    -0.279 N 
ATOM      2  C   UNL     1       1.622   3.011   2.622  0.00  0.00    +0.216 A 
ATOM      3  N   UNL     1       2.924   3.155   2.657  0.00  0.00    -0.113 NA
ATOM      4  N   UNL     1       3.502   1.879   2.606  0.00  0.00    -0.121 NA
ATOM      5  C   UNL     1       2.533   0.998   2.547  0.00  0.00    +0.194 A 
ATOM      6  N   UNL     1       0.686   4.037   2.647  0.00  0.00    -0.328 N 
ATOM      7  H   UNL     1       1.020   5.084   2.699  0.00  0.00    +0.145 HD
ATOM      8  H   UNL     1      -0.388   3.803   2.616  0.00  0.00    +0.145 HD
ENDROOT
BRANCH   1   9
ATOM      9  C   UNL     1       0.011   1.072   2.506  0.00  0.00    +0.178 C 
BRANCH   9  10
ATOM     10  C   UNL     1      -0.761   1.454   3.743  0.00  0.00    +0.242 C 
ATOM     11  O   UNL     1      -0.247   2.159   4.585  0.00  0.00    -0.273 OA
ATOM     12  N   UNL     1      -2.022   1.011   3.913  0.00  0.00    -0.262 N 
ATOM     13  C   UNL     1      -2.735   1.363   5.055  0.00  0.00    +0.188 A 
ATOM     14  N   UNL     1      -2.366   2.112   6.080  0.00  0.00    -0.126 NA
ATOM     15  N   UNL     1      -3.140   2.340   7.051  0.00  0.00    -0.142 NA
ATOM     16  C   UNL     1      -4.356   1.832   7.076  0.00  0.00    +0.129 A 
ATOM     17  S   UNL     1      -4.357   0.945   5.522  0.00  0.00    -0.033 S 
ATOM     18  H   UNL     1      -2.489   0.372   3.150  0.00  0.00    +0.157 HD
BRANCH  16  19
ATOM     19  C   UNL     1      -5.440   1.965   8.114  0.00  0.00    +0.224 C 
BRANCH  19  20
ATOM     20  O   UNL     1      -6.251   3.102   7.812  0.00  0.00    -0.376 OA
ATOM     21  C   UNL     1      -7.315   3.320   8.741  0.00  0.00    +0.194 C 
ENDBRANCH  19  20
ENDBRANCH  16  19
ENDBRANCH   9  10
BRANCH   9  23
ATOM     22  C   UNL     1      -0.013   1.086   0.008  0.00  0.00    +0.006 C 
ATOM     23  C   UNL     1      -0.729   1.579   1.267  0.00  0.00    +0.031 C 
ENDBRANCH   9  23
ENDBRANCH   1   9
BRANCH   5  24
ATOM     24  S   UNL     1       2.728  -0.751   2.466  0.00  0.00    -0.081 S 
BRANCH  24  25
ATOM     25  C   UNL     1       4.526  -0.994   2.486  0.00  0.00    +0.114 C 
BRANCH  25  26
ATOM     26  C   UNL     1       4.834  -2.468   2.421  0.00  0.00    -0.019 A 
ATOM     27  C   UNL     1       4.961  -3.200   3.587  0.00  0.00    +0.006 A 
ATOM     28  C   UNL     1       5.239  -4.552   3.527  0.00  0.00    +0.000 A 
ATOM     29  C   UNL     1       5.402  -5.172   2.302  0.00  0.00    +0.001 A 
ATOM     30  C   UNL     1       5.281  -4.440   1.136  0.00  0.00    +0.020 A 
ATOM     31  C   UNL     1       4.997  -3.087   1.195  0.00  0.00    +0.045 A 
ATOM     32 CL   UNL     1       4.846  -2.167  -0.269  0.00  0.00    -0.083 Cl
ENDBRANCH  25  26
ENDBRANCH  24  25
ENDBRANCH   5  24
TORSDOF 8
