REMARK  Name = ZINC32906094
REMARK  8 active torsions:
REMARK  status: ('A' for Active; 'I' for Inactive)
REMARK    1  A    between atoms: C_1  and  C_2
REMARK    2  A    between atoms: C_5  and  O_8
REMARK    3  A    between atoms: O_8  and  C_9
REMARK    4  A    between atoms: C_9  and  C_10
REMARK    5  A    between atoms: C_12  and  C_32
REMARK    6  A    between atoms: C_13  and  C_15
REMARK    7  A    between atoms: C_20  and  C_23
REMARK    8  A    between atoms: C_25  and  C_29
REMARK                            x       y       z     vdW  Elec       q    Type
REMARK                         _______ _______ _______ _____ _____    ______ ____
ROOT
ATOM      1  C   UNL     1       4.638   0.483  -0.040  0.00  0.00    +0.258 C 
ATOM      2  O   UNL     1       4.419   1.680  -0.031  0.00  0.00    -0.269 OA
ATOM      3  N   UNL     1       3.610  -0.389  -0.035  0.00  0.00    -0.260 N 
ATOM      4  C   UNL     1       2.303   0.078  -0.019  0.00  0.00    +0.165 A 
ATOM      5  N   UNL     1       1.180  -0.611  -0.013  0.00  0.00    -0.225 NA
ATOM      6  C   UNL     1       0.002  -0.004   0.002  0.00  0.00    +0.082 A 
ATOM      7  C   UNL     1      -0.016   1.362   0.009  0.00  0.00    +0.077 A 
ATOM      8  S   UNL     1       1.734   1.718  -0.005  0.00  0.00    -0.060 S 
ATOM      9  H   UNL     1       3.808  -1.471  -0.044  0.00  0.00    +0.157 HD
ENDROOT
BRANCH   1  13
ATOM     10  C   UNL     1       8.326  -1.309  -0.087  0.00  0.00    +0.117 A 
ATOM     11  N   UNL     1       8.320   0.008  -0.079  0.00  0.00    -0.245 NA
ATOM     12  C   UNL     1       7.204   0.691  -0.070  0.00  0.00    +0.058 A 
ATOM     13  C   UNL     1       6.018  -0.010  -0.057  0.00  0.00    +0.097 A 
ATOM     14  S   UNL     1       6.632  -1.689  -0.073  0.00  0.00    -0.064 S 
ATOM     15  C   UNL     1       7.215   2.198  -0.069  0.00  0.00    +0.067 C 
BRANCH  10  16
ATOM     16  C   UNL     1       9.505  -2.248  -0.105  0.00  0.00    +0.291 C 
BRANCH  16  17
ATOM     17  O   UNL     1       9.891  -2.553   1.236  0.00  0.00    -0.485 OA
BRANCH  17  22
ATOM     18  C   UNL     1      14.265  -6.038   1.907  0.00  0.00    +0.044 C 
ATOM     19  C   UNL     1      13.095  -5.105   1.728  0.00  0.00    -0.050 A 
ATOM     20  C   UNL     1      12.448  -4.588   2.835  0.00  0.00    +0.007 A 
ATOM     21  C   UNL     1      11.375  -3.734   2.673  0.00  0.00    +0.046 A 
ATOM     22  C   UNL     1      10.946  -3.394   1.398  0.00  0.00    +0.121 A 
ATOM     23  C   UNL     1      11.593  -3.919   0.288  0.00  0.00    +0.046 A 
ATOM     24  C   UNL     1      12.670  -4.768   0.456  0.00  0.00    +0.007 A 
ENDBRANCH  17  22
ENDBRANCH  16  17
ENDBRANCH  10  16
ENDBRANCH   1  13
BRANCH   6  25
ATOM     25  C   UNL     1      -1.261  -0.786   0.009  0.00  0.00    +0.019 A 
ATOM     26  C   UNL     1      -1.372  -2.186   0.096  0.00  0.00    +0.042 A 
ATOM     27  C   UNL     1      -2.705  -2.488   0.072  0.00  0.00    +0.102 A 
ATOM     28  N   UNL     1      -3.406  -1.308  -0.035  0.00  0.00    -0.356 N 
ATOM     29  H   UNL     1      -4.505  -1.322  -0.075  0.00  0.00    +0.165 HD
ATOM     30  C   UNL     1      -2.526  -0.278  -0.073  0.00  0.00    +0.093 A 
BRANCH  27  31
ATOM     31  C   UNL     1      -3.287  -3.833   0.144  0.00  0.00    +0.258 C 
ATOM     32  O   UNL     1      -2.562  -4.805   0.238  0.00  0.00    -0.269 OA
ATOM     33  N   UNL     1      -4.625  -3.991   0.104  0.00  0.00    -0.324 N 
ATOM     34  H   UNL     1      -5.061  -5.000   0.158  0.00  0.00    +0.145 HD
ATOM     35  H   UNL     1      -5.281  -3.112   0.019  0.00  0.00    +0.145 HD
ENDBRANCH  27  31
ENDBRANCH   6  25
TORSDOF 6
