REMARK  Name = ZINC22310336
REMARK  14 active torsions:
REMARK  status: ('A' for Active; 'I' for Inactive)
REMARK    1  A    between atoms: C_1  and  C_2
REMARK    2  A    between atoms: C_2  and  N_3
REMARK    3  A    between atoms: C_7  and  S_30
REMARK    4  A    between atoms: C_11  and  S_12
REMARK    5  A    between atoms: S_12  and  C_13
REMARK    6  A    between atoms: C_13  and  C_15
REMARK    7  A    between atoms: C_13  and  C_16
REMARK    8  A    between atoms: C_16  and  C_18
REMARK    9  A    between atoms: C_19  and  C_29
REMARK   10  A    between atoms: C_20  and  C_25
REMARK   11  A    between atoms: C_21  and  C_24
REMARK   12  A    between atoms: C_25  and  O_27
REMARK   13  A    between atoms: O_27  and  C_28
REMARK   14  A    between atoms: S_30  and  N_33
REMARK                            x       y       z     vdW  Elec       q    Type
REMARK                         _______ _______ _______ _____ _____    ______ ____
ROOT
ATOM      1  N   UNL     1       4.558   1.189   6.963  0.00  0.00    -0.319 N 
ATOM      2  C   UNL     1       4.396   1.760   8.215  0.00  0.00    +0.070 A 
ATOM      3  C   UNL     1       5.122   1.709   9.395  0.00  0.00    +0.030 A 
ATOM      4  C   UNL     1       4.685   2.412  10.500  0.00  0.00    +0.030 A 
ATOM      5  C   UNL     1       3.525   3.168  10.438  0.00  0.00    +0.107 A 
ATOM      6  C   UNL     1       2.792   3.230   9.274  0.00  0.00    +0.058 A 
ATOM      7  C   UNL     1       3.220   2.526   8.146  0.00  0.00    +0.092 A 
ATOM      8  N   UNL     1       2.731   2.396   6.885  0.00  0.00    -0.222 NA
ATOM      9  C   UNL     1       3.512   1.606   6.189  0.00  0.00    +0.171 A 
ENDROOT
BRANCH   5  10
ATOM     10  S   UNL     1       2.984   4.058  11.860  0.00  0.00    +0.056 S 
ATOM     11  O   UNL     1       1.584   4.250  11.711  0.00  0.00    -0.153 OA
ATOM     12  O   UNL     1       3.548   3.403  12.988  0.00  0.00    -0.153 OA
BRANCH  10  13
ATOM     13  N   UNL     1       3.677   5.560  11.790  0.00  0.00    -0.204 NA
ATOM     14  H   UNL     1       3.363   6.150  12.664  0.00  0.00    +0.144 HD
ATOM     15  H   UNL     1       3.356   6.070  10.870  0.00  0.00    +0.144 HD
ENDBRANCH  10  13
ENDBRANCH   5  10
BRANCH   1  17
ATOM     16  C   UNL     1       6.796   1.139   5.978  0.00  0.00    +0.027 C 
ATOM     17  C   UNL     1       5.648   0.303   6.546  0.00  0.00    +0.121 C 
ENDBRANCH   1  17
BRANCH   9  18
ATOM     18  S   UNL     1       3.255   1.156   4.505  0.00  0.00    -0.077 S 
BRANCH  18  19
ATOM     19  C   UNL     1       1.724   2.061   4.168  0.00  0.00    +0.124 C 
ATOM     20  C   UNL     1       1.990   3.565   4.261  0.00  0.00    +0.028 C 
BRANCH  19  21
ATOM     21  C   UNL     1       1.235   1.722   2.783  0.00  0.00    +0.192 C 
ATOM     22  O   UNL     1       2.020   1.343   1.938  0.00  0.00    -0.289 OA
BRANCH  21  23
ATOM     23  C   UNL     1      -0.139   1.847   2.468  0.00  0.00    +0.087 A 
ATOM     24  C   UNL     1      -0.718   1.572   1.248  0.00  0.00    -0.008 A 
ATOM     25  C   UNL     1      -2.098   1.839   1.381  0.00  0.00    +0.083 A 
ATOM     26  C   UNL     1      -2.309   2.259   2.683  0.00  0.00    +0.028 A 
ATOM     27  N   UNL     1      -1.134   2.266   3.328  0.00  0.00    -0.355 N 
ATOM     28  H   UNL     1      -0.885   2.538   4.365  0.00  0.00    +0.166 HD
ATOM     29  C   UNL     1      -3.638   2.651   3.274  0.00  0.00    +0.064 C 
ATOM     30  C   UNL     1      -0.013   1.086   0.008  0.00  0.00    +0.047 C 
BRANCH  25  31
ATOM     31  C   UNL     1      -3.121   1.694   0.332  0.00  0.00    +0.341 C 
ATOM     32  O   UNL     1      -3.708   0.638   0.197  0.00  0.00    -0.245 OA
BRANCH  31  33
ATOM     33  O   UNL     1      -3.408   2.732  -0.478  0.00  0.00    -0.464 OA
ATOM     34  C   UNL     1      -4.427   2.518  -1.489  0.00  0.00    +0.280 C 
ENDBRANCH  31  33
ENDBRANCH  25  31
ENDBRANCH  21  23
ENDBRANCH  19  21
ENDBRANCH  18  19
ENDBRANCH   9  18
TORSDOF 9
