REMARK  Name = ZINC09216380
REMARK  7 active torsions:
REMARK  status: ('A' for Active; 'I' for Inactive)
REMARK    1  A    between atoms: C_1  and  C_2
REMARK    2  A    between atoms: C_7  and  C_13
REMARK    3  A    between atoms: C_15  and  C_18
REMARK    4  A    between atoms: C_21  and  C_24
REMARK    5  A    between atoms: C_24  and  C_25
REMARK    6  A    between atoms: C_24  and  C_26
REMARK    7  A    between atoms: C_24  and  C_27
REMARK                            x       y       z     vdW  Elec       q    Type
REMARK                         _______ _______ _______ _____ _____    ______ ____
ROOT
ATOM      1  C   UNL     1       0.095  -6.355   1.140  0.00  0.00    +0.208 A 
ATOM      2  N   UNL     1       0.106  -7.130   2.236  0.00  0.00    -0.187 NA
ATOM      3  C   UNL     1       0.123  -8.396   1.889  0.00  0.00    +0.259 A 
ATOM      4  O   UNL     1       0.123  -8.464   0.546  0.00  0.00    -0.332 OA
ATOM      5  N   UNL     1       0.099  -7.125   0.077  0.00  0.00    -0.055 NA
ENDROOT
BRANCH   1  12
ATOM      6  C   UNL     1      -0.018   1.503   0.010  0.00  0.00    +0.044 C 
ATOM      7  C   UNL     1       0.002  -0.004   0.002  0.00  0.00    -0.048 A 
ATOM      8  C   UNL     1       0.006  -0.685  -1.208  0.00  0.00    +0.004 A 
ATOM      9  C   UNL     1       0.024  -2.050  -1.237  0.00  0.00    +0.010 A 
ATOM     10  C   UNL     1       0.040  -2.773  -0.035  0.00  0.00    -0.001 A 
ATOM     11  C   UNL     1       0.059  -4.191  -0.053  0.00  0.00    +0.027 A 
ATOM     12  C   UNL     1       0.075  -4.873   1.131  0.00  0.00    +0.087 A 
ATOM     13  C   UNL     1       0.070  -4.127   2.393  0.00  0.00    +0.260 A 
ATOM     14  N   UNL     1       0.051  -2.781   2.383  0.00  0.00    -0.322 N 
ATOM     15  C   UNL     1       0.036  -2.085   1.192  0.00  0.00    +0.049 A 
ATOM     16  C   UNL     1       0.023  -0.693   1.195  0.00  0.00    +0.029 A 
ATOM     17  O   UNL     1       0.083  -4.727   3.453  0.00  0.00    -0.267 OA
ATOM     18  H   UNL     1       0.049  -2.295   3.223  0.00  0.00    +0.169 HD
ENDBRANCH   1  12
BRANCH   3  19
ATOM     19  C   UNL     1       0.139  -9.548   2.815  0.00  0.00    +0.039 A 
ATOM     20  C   UNL     1       0.130  -9.338   4.195  0.00  0.00    +0.013 A 
ATOM     21  C   UNL     1       0.145 -10.418   5.053  0.00  0.00    +0.005 A 
ATOM     22  C   UNL     1       0.168 -11.706   4.550  0.00  0.00    -0.042 A 
ATOM     23  C   UNL     1       0.176 -11.921   3.183  0.00  0.00    +0.005 A 
ATOM     24  C   UNL     1       0.156 -10.850   2.313  0.00  0.00    +0.013 A 
BRANCH  22  25
ATOM     25  C   UNL     1       0.184 -12.881   5.494  0.00  0.00    -0.013 C 
ATOM     26  C   UNL     1      -1.069 -12.847   6.371  0.00  0.00    +0.015 C 
ATOM     27  C   UNL     1       0.208 -14.182   4.689  0.00  0.00    +0.015 C 
ATOM     28  C   UNL     1       1.429 -12.806   6.380  0.00  0.00    +0.015 C 
ENDBRANCH  22  25
ENDBRANCH   3  19
TORSDOF 3
