REMARK  Name = ZINC36531329
REMARK  13 active torsions:
REMARK  status: ('A' for Active; 'I' for Inactive)
REMARK    1  A    between atoms: C_1  and  C_2
REMARK    2  A    between atoms: C_2  and  C_4
REMARK    3  A    between atoms: C_2  and  C_10
REMARK    4  A    between atoms: C_10  and  C_12
REMARK    5  A    between atoms: C_10  and  N_19
REMARK    6  A    between atoms: N_14  and  C_15
REMARK    7  A    between atoms: C_15  and  C_16
REMARK    8  A    between atoms: C_15  and  C_17
REMARK    9  A    between atoms: C_15  and  C_18
REMARK   10  A    between atoms: N_19  and  C_20
REMARK   11  A    between atoms: C_21  and  C_23
REMARK   12  A    between atoms: C_27  and  O_30
REMARK   13  A    between atoms: C_28  and  O_29
REMARK                            x       y       z     vdW  Elec       q    Type
REMARK                         _______ _______ _______ _____ _____    ______ ____
ROOT
ATOM      1  C   UNL     1       0.929  -0.261  -1.468  0.00  0.00    +0.169 C 
ENDROOT
BRANCH   1   2
ATOM      2  C   UNL     1       2.421  -0.105  -1.618  0.00  0.00    +0.235 C 
ATOM      3  O   UNL     1       2.883   0.344  -2.646  0.00  0.00    -0.274 OA
ATOM      4  N   UNL     1       3.241  -0.464  -0.611  0.00  0.00    -0.309 N 
ATOM      5  H   UNL     1       2.876  -0.881   0.186  0.00  0.00    +0.149 HD
BRANCH   4   6
ATOM      6  C   UNL     1       4.682  -0.225  -0.718  0.00  0.00    +0.026 C 
ATOM      7  C   UNL     1       4.936   1.268  -0.936  0.00  0.00    +0.031 C 
ATOM      8  C   UNL     1       5.372  -0.678   0.570  0.00  0.00    +0.031 C 
ATOM      9  C   UNL     1       5.243  -1.016  -1.902  0.00  0.00    +0.031 C 
ENDBRANCH   4   6
ENDBRANCH   1   2
BRANCH   1  10
ATOM     10  N   UNL     1       0.280  -0.015  -2.758  0.00  0.00    -0.288 N 
ATOM     11  C   UNL     1       0.450   1.276  -3.429  0.00  0.00    +0.133 C 
ATOM     12  C   UNL     1      -0.472  -0.977  -3.328  0.00  0.00    +0.251 C 
ATOM     13  O   UNL     1      -0.683  -2.016  -2.733  0.00  0.00    -0.270 OA
BRANCH  12  14
ATOM     14  C   UNL     1      -1.040  -0.769  -4.674  0.00  0.00    +0.082 A 
ATOM     15  C   UNL     1      -0.221  -0.342  -5.724  0.00  0.00    +0.017 A 
ATOM     16  C   UNL     1      -0.755  -0.150  -6.979  0.00  0.00    +0.005 A 
ATOM     17  C   UNL     1      -2.102  -0.377  -7.209  0.00  0.00    +0.049 A 
ATOM     18  C   UNL     1      -2.925  -0.799  -6.180  0.00  0.00    +0.159 A 
ATOM     19  C   UNL     1      -2.400  -1.004  -4.908  0.00  0.00    +0.171 A 
BRANCH  19  20
ATOM     20  O   UNL     1      -3.203  -1.424  -3.897  0.00  0.00    -0.503 OA
ATOM     21  H   UNL     1      -3.616  -0.706  -3.399  0.00  0.00    +0.292 HD
ENDBRANCH  19  20
BRANCH  18  22
ATOM     22  O   UNL     1      -4.247  -1.020  -6.414  0.00  0.00    -0.503 OA
ATOM     23  H   UNL     1      -4.453  -1.925  -6.685  0.00  0.00    +0.292 HD
ENDBRANCH  18  22
ENDBRANCH  12  14
ENDBRANCH   1  10
BRANCH   1  25
ATOM     24  C   UNL     1       0.952   0.379   0.947  0.00  0.00    +0.015 C 
ATOM     25  C   UNL     1       0.412   0.744  -0.437  0.00  0.00    +0.045 C 
BRANCH  25  26
ATOM     26  C   UNL     1      -1.094   0.711  -0.415  0.00  0.00    -0.042 A 
ATOM     27  C   UNL     1      -1.754  -0.432  -0.003  0.00  0.00    +0.004 A 
ATOM     28  C   UNL     1      -3.136  -0.462   0.018  0.00  0.00    +0.000 A 
ATOM     29  C   UNL     1      -3.858   0.650  -0.373  0.00  0.00    +0.000 A 
ATOM     30  C   UNL     1      -3.198   1.793  -0.784  0.00  0.00    +0.000 A 
ATOM     31  C   UNL     1      -1.816   1.825  -0.800  0.00  0.00    +0.004 A 
ENDBRANCH  25  26
ENDBRANCH   1  25
TORSDOF 8
