REMARK  Name = ZINC15722963
REMARK  7 active torsions:
REMARK  status: ('A' for Active; 'I' for Inactive)
REMARK    1  A    between atoms: C_1  and  C_2
REMARK    2  A    between atoms: C_5  and  N_8
REMARK    3  A    between atoms: C_12  and  C_13
REMARK    4  A    between atoms: C_16  and  C_18
REMARK    5  A    between atoms: C_21  and  O_27
REMARK    6  A    between atoms: C_23  and  N_24
REMARK    7  A    between atoms: O_27  and  C_28
REMARK                            x       y       z     vdW  Elec       q    Type
REMARK                         _______ _______ _______ _____ _____    ______ ____
ROOT
ATOM      1  N   UNL     1      -1.225   7.005  -0.165  0.00  0.00    -0.188 N 
ATOM      2  C   UNL     1      -0.664   6.035   0.585  0.00  0.00    +0.264 C 
ATOM      3  O   UNL     1      -1.350   5.295   1.265  0.00  0.00    -0.269 OA
ATOM      4  C   UNL     1       0.802   5.898   0.564  0.00  0.00    +0.105 C 
ATOM      5  C   UNL     1       1.452   4.923   1.317  0.00  0.00    +0.064 C 
ATOM      6  C   UNL     1       1.550   6.833  -0.293  0.00  0.00    +0.277 C 
ATOM      7  O   UNL     1       2.764   6.778  -0.365  0.00  0.00    -0.268 OA
ATOM      8  N   UNL     1       0.855   7.752  -0.995  0.00  0.00    -0.123 NA
ATOM      9  C   UNL     1      -0.481   7.823  -0.923  0.00  0.00    +0.340 C 
ATOM     10  O   UNL     1      -1.049   8.673  -1.581  0.00  0.00    -0.250 OA
ENDROOT
BRANCH   1  15
ATOM     11  C   UNL     1      -6.866   7.625  -0.130  0.00  0.00    +0.044 C 
ATOM     12  C   UNL     1      -5.368   7.460  -0.139  0.00  0.00    -0.050 A 
ATOM     13  C   UNL     1      -4.772   6.623  -1.063  0.00  0.00    +0.005 A 
ATOM     14  C   UNL     1      -3.399   6.470  -1.075  0.00  0.00    +0.024 A 
ATOM     15  C   UNL     1      -2.618   7.158  -0.156  0.00  0.00    +0.046 A 
ATOM     16  C   UNL     1      -3.220   7.993   0.775  0.00  0.00    +0.024 A 
ATOM     17  C   UNL     1      -4.593   8.146   0.778  0.00  0.00    +0.005 A 
ENDBRANCH   1  15
BRANCH   5  18
ATOM     18  C   UNL     1       0.737   4.175   2.260  0.00  0.00    +0.129 A 
ATOM     19  C   UNL     1       0.927   2.827   2.546  0.00  0.00    +0.050 A 
ATOM     20  C   UNL     1       0.010   2.493   3.537  0.00  0.00    +0.050 A 
ATOM     21  C   UNL     1      -0.713   3.636   3.823  0.00  0.00    +0.138 A 
ATOM     22  O   UNL     1      -0.258   4.636   3.049  0.00  0.00    -0.455 OA
BRANCH  21  23
ATOM     23  C   UNL     1      -1.799   3.741   4.813  0.00  0.00    +0.048 A 
ATOM     24  C   UNL     1      -2.848   2.815   4.806  0.00  0.00    +0.017 A 
ATOM     25  C   UNL     1      -3.858   2.915   5.736  0.00  0.00    +0.046 A 
ATOM     26  C   UNL     1      -3.842   3.939   6.675  0.00  0.00    +0.122 A 
ATOM     27  C   UNL     1      -2.806   4.865   6.683  0.00  0.00    +0.079 A 
ATOM     28  C   UNL     1      -1.788   4.770   5.760  0.00  0.00    +0.140 A 
BRANCH  28  29
ATOM     29  N   UNL     1      -0.684   5.756   5.769  0.00  0.00    +0.057 N 
ATOM     30  O   UNL     1      -0.675   6.652   6.594  0.00  0.00    -0.126 OA
ATOM     31  O   UNL     1       0.215   5.671   4.953  0.00  0.00    -0.126 OA
ENDBRANCH  28  29
BRANCH  26  32
ATOM     32  O   UNL     1      -4.843   4.036   7.588  0.00  0.00    -0.495 OA
ATOM     33  C   UNL     1      -5.877   3.052   7.524  0.00  0.00    +0.277 C 
ENDBRANCH  26  32
ENDBRANCH  21  23
ENDBRANCH   5  18
TORSDOF 5
