REMARK  Name = ZINC39556106
REMARK  10 active torsions:
REMARK  status: ('A' for Active; 'I' for Inactive)
REMARK    1  A    between atoms: C_1  and  C_2
REMARK    2  A    between atoms: C_4  and  N_8
REMARK    3  A    between atoms: C_9  and  C_11
REMARK    4  A    between atoms: C_11  and  S_12
REMARK    5  A    between atoms: S_12  and  C_13
REMARK    6  A    between atoms: C_23  and  C_28
REMARK    7  A    between atoms: C_28  and  C_29
REMARK    8  A    between atoms: C_29  and  C_30
REMARK    9  A    between atoms: N_32  and  C_33
REMARK   10  A    between atoms: C_33  and  C_34
REMARK                            x       y       z     vdW  Elec       q    Type
REMARK                         _______ _______ _______ _____ _____    ______ ____
ROOT
ATOM      1  C   UNL     1      -2.879  -7.294  -3.447  0.00  0.00    +0.169 C 
ATOM      2  N   UNL     1      -2.755  -6.581  -4.533  0.00  0.00    -0.225 NA
ATOM      3  C   UNL     1      -3.096  -7.060  -5.755  0.00  0.00    +0.077 A 
ATOM      4  C   UNL     1      -2.955  -6.281  -6.906  0.00  0.00    +0.028 A 
ATOM      5  C   UNL     1      -3.310  -6.801  -8.131  0.00  0.00    +0.002 A 
ATOM      6  C   UNL     1      -3.808  -8.092  -8.237  0.00  0.00    +0.001 A 
ATOM      7  C   UNL     1      -3.956  -8.880  -7.114  0.00  0.00    +0.013 A 
ATOM      8  C   UNL     1      -3.602  -8.372  -5.869  0.00  0.00    +0.041 A 
ATOM      9  C   UNL     1      -3.742  -9.178  -4.637  0.00  0.00    +0.139 C 
ATOM     10  N   UNL     1      -4.176 -10.396  -4.471  0.00  0.00    -0.255 NA
ATOM     11  C   UNL     1      -4.104 -10.707  -3.036  0.00  0.00    +0.194 C 
ATOM     12  C   UNL     1      -3.549  -9.443  -2.415  0.00  0.00    +0.251 C 
ATOM     13  O   UNL     1      -3.320  -9.242  -1.242  0.00  0.00    -0.272 OA
ATOM     14  N   UNL     1      -3.357  -8.588  -3.445  0.00  0.00    -0.200 N 
ENDROOT
BRANCH   1  15
ATOM     15  S   UNL     1      -2.407  -6.573  -1.910  0.00  0.00    -0.080 S 
BRANCH  15  16
ATOM     16  C   UNL     1      -1.851  -4.906  -2.361  0.00  0.00    +0.172 C 
BRANCH  16  18
ATOM     17  N   UNL     1      -0.957  -2.905  -1.213  0.00  0.00    -0.288 N 
ATOM     18  C   UNL     1      -1.413  -4.170  -1.120  0.00  0.00    +0.225 C 
ATOM     19  O   UNL     1      -1.470  -4.717  -0.039  0.00  0.00    -0.275 OA
ATOM     20  H   UNL     1      -0.911  -2.468  -2.078  0.00  0.00    +0.151 HD
BRANCH  17  24
ATOM     21  C   UNL     1      -0.018   1.503   0.010  0.00  0.00    +0.067 C 
ATOM     22  C   UNL     1       0.002  -0.004   0.002  0.00  0.00    +0.060 C 
ATOM     23  C   UNL     1      -1.086  -0.777   0.003  0.00  0.00    +0.045 C 
ATOM     24  C   UNL     1      -0.531  -2.190  -0.007  0.00  0.00    +0.239 C 
ATOM     25  N   UNL     1       0.926  -1.973  -0.013  0.00  0.00    -0.160 NA
ATOM     26  N   UNL     1       1.125  -0.756  -0.013  0.00  0.00    -0.157 NA
ENDBRANCH  17  24
ENDBRANCH  16  18
ENDBRANCH  15  16
ENDBRANCH   1  15
BRANCH  11  27
ATOM     27  C   UNL     1      -3.162 -11.888  -2.790  0.00  0.00    +0.045 C 
BRANCH  27  28
ATOM     28  C   UNL     1      -3.760 -13.155  -3.404  0.00  0.00    +0.098 C 
BRANCH  28  29
ATOM     29  C   UNL     1      -2.833 -14.317  -3.162  0.00  0.00    +0.213 C 
ATOM     30  O   UNL     1      -1.795 -14.149  -2.557  0.00  0.00    -0.276 OA
ATOM     31  N   UNL     1      -3.156 -15.544  -3.617  0.00  0.00    -0.308 N 
ATOM     32  H   UNL     1      -3.986 -15.678  -4.100  0.00  0.00    +0.149 HD
BRANCH  31  33
ATOM     33  C   UNL     1      -2.254 -16.674  -3.381  0.00  0.00    +0.178 C 
BRANCH  33  34
ATOM     34  C   UNL     1      -2.844 -17.922  -3.986  0.00  0.00    +0.122 A 
ATOM     35  C   UNL     1      -2.635 -18.363  -5.239  0.00  0.00    +0.046 A 
ATOM     36  C   UNL     1      -3.375 -19.559  -5.382  0.00  0.00    +0.041 A 
ATOM     37  C   UNL     1      -3.993 -19.777  -4.207  0.00  0.00    +0.195 A 
ATOM     38  O   UNL     1      -3.663 -18.785  -3.364  0.00  0.00    -0.466 OA
ENDBRANCH  33  34
ENDBRANCH  31  33
ENDBRANCH  28  29
ENDBRANCH  27  28
ENDBRANCH  11  27
TORSDOF 9
