REMARK  Name = ZINC60319438
REMARK  5 active torsions:
REMARK  status: ('A' for Active; 'I' for Inactive)
REMARK    1  A    between atoms: C_3  and  N_21
REMARK    2  A    between atoms: C_6  and  N_7
REMARK    3  A    between atoms: C_8  and  C_10
REMARK    4  A    between atoms: C_11  and  C_12
REMARK    5  A    between atoms: C_24  and  C_27
REMARK                            x       y       z     vdW  Elec       q    Type
REMARK                         _______ _______ _______ _____ _____    ______ ____
ROOT
ATOM      1  C   UNL     1       0.209   1.227   0.242  0.00  0.00    +0.025 A 
ATOM      2  C   UNL     1       1.463   1.787   0.381  0.00  0.00    +0.025 A 
ATOM      3  C   UNL     1       2.586   0.972   0.431  0.00  0.00    +0.030 A 
ATOM      4  C   UNL     1       2.448  -0.407   0.340  0.00  0.00    +0.025 A 
ATOM      5  C   UNL     1       1.194  -0.967   0.201  0.00  0.00    +0.025 A 
ATOM      6  C   UNL     1       0.071  -0.152   0.151  0.00  0.00    +0.034 A 
ENDROOT
BRANCH   3   7
ATOM      7  N   UNL     1       3.857   1.540   0.572  0.00  0.00    -0.330 N 
ATOM      8  C   UNL     1       5.043   0.689   0.739  0.00  0.00    +0.106 C 
ATOM      9  C   UNL     1       6.080   1.075  -0.321  0.00  0.00    +0.031 C 
ATOM     10  C   UNL     1       6.365   2.575  -0.228  0.00  0.00    +0.078 C 
ATOM     11  C   UNL     1       5.080   3.359  -0.503  0.00  0.00    +0.031 C 
ATOM     12  C   UNL     1       4.032   2.999   0.549  0.00  0.00    +0.106 C 
BRANCH  10  13
ATOM     13  C   UNL     1       7.410   2.952  -1.246  0.00  0.00    +0.214 C 
ATOM     14  O   UNL     1       7.880   2.104  -1.974  0.00  0.00    -0.276 OA
ATOM     15  N   UNL     1       7.822   4.231  -1.348  0.00  0.00    -0.329 N 
ATOM     16  H   UNL     1       7.446   4.910  -0.765  0.00  0.00    +0.145 HD
ATOM     17  H   UNL     1       8.495   4.474  -2.003  0.00  0.00    +0.145 HD
ENDBRANCH  10  13
ENDBRANCH   3   7
BRANCH   6  18
ATOM     18  N   UNL     1      -1.201  -0.721   0.010  0.00  0.00    -0.282 N 
ATOM     19  C   UNL     1      -2.150  -0.081  -0.703  0.00  0.00    +0.241 C 
ATOM     20  O   UNL     1      -1.873   0.940  -1.306  0.00  0.00    -0.270 OA
ATOM     21  H   UNL     1      -1.399  -1.575   0.425  0.00  0.00    +0.155 HD
BRANCH  19  22
ATOM     22  C   UNL     1      -3.510  -0.614  -0.752  0.00  0.00    +0.068 C 
ATOM     23  C   UNL     1      -4.460   0.026  -1.466  0.00  0.00    +0.013 C 
BRANCH  23  24
ATOM     24  C   UNL     1      -5.829  -0.509  -1.516  0.00  0.00    -0.021 A 
ATOM     25  C   UNL     1      -6.150  -1.679  -0.819  0.00  0.00    +0.012 A 
ATOM     26  C   UNL     1      -7.433  -2.178  -0.867  0.00  0.00    +0.050 A 
ATOM     27  C   UNL     1      -8.411  -1.524  -1.605  0.00  0.00    +0.166 A 
ATOM     28  C   UNL     1      -8.098  -0.356  -2.302  0.00  0.00    +0.167 A 
ATOM     29  C   UNL     1      -6.815   0.153  -2.255  0.00  0.00    +0.057 A 
ATOM     30  O   UNL     1      -9.222   0.085  -2.940  0.00  0.00    -0.453 OA
ATOM     31  C   UNL     1     -10.118  -1.042  -2.960  0.00  0.00    +0.466 C 
ATOM     32  O   UNL     1      -9.729  -1.810  -1.806  0.00  0.00    -0.453 OA
ENDBRANCH  23  24
ENDBRANCH  19  22
ENDBRANCH   6  18
TORSDOF 5
