REMARK  Name = ZINC44021261
REMARK  14 active torsions:
REMARK  status: ('A' for Active; 'I' for Inactive)
REMARK    1  A    between atoms: C_1  and  C_2
REMARK    2  A    between atoms: C_2  and  C_4
REMARK    3  A    between atoms: C_2  and  C_18
REMARK    4  A    between atoms: C_8  and  C_10
REMARK    5  A    between atoms: C_10  and  C_12
REMARK    6  A    between atoms: C_18  and  O_20
REMARK    7  A    between atoms: O_20  and  C_21
REMARK    8  A    between atoms: C_23  and  O_44
REMARK    9  A    between atoms: C_25  and  O_43
REMARK   10  A    between atoms: C_27  and  O_42
REMARK   11  A    between atoms: C_29  and  C_32
REMARK   12  A    between atoms: C_32  and  O_34
REMARK   13  A    between atoms: O_34  and  C_35
REMARK   14  A    between atoms: C_35  and  C_36
REMARK                            x       y       z     vdW  Elec       q    Type
REMARK                         _______ _______ _______ _____ _____    ______ ____
ROOT
ATOM      1  C   UNL     1       0.158   0.499   3.241  0.00  0.00    +0.343 C 
ATOM      2  C   UNL     1      -0.493   1.385   4.307  0.00  0.00    +0.214 C 
ATOM      3  C   UNL     1      -2.013   1.210   4.245  0.00  0.00    +0.180 C 
ATOM      4  C   UNL     1      -2.354  -0.271   4.433  0.00  0.00    +0.185 C 
ATOM      5  C   UNL     1      -1.631  -1.093   3.362  0.00  0.00    +0.261 C 
ATOM      6  O   UNL     1      -0.224  -0.861   3.455  0.00  0.00    -0.322 OA
ENDROOT
BRANCH   5   7
ATOM      7  C   UNL     1      -1.915  -2.558   3.576  0.00  0.00    +0.339 C 
ATOM      8  O   UNL     1      -1.017  -3.309   3.875  0.00  0.00    -0.248 OA
BRANCH   7   9
ATOM      9  O   UNL     1      -3.164  -3.027   3.435  0.00  0.00    -0.458 OA
BRANCH   9  10
ATOM     10  C   UNL     1      -3.360  -4.426   3.653  0.00  0.00    +0.267 C 
BRANCH  10  11
ATOM     11  C   UNL     1      -4.814  -4.766   3.451  0.00  0.00    -0.010 A 
ATOM     12  C   UNL     1      -5.692  -4.707   4.517  0.00  0.00    +0.007 A 
ATOM     13  C   UNL     1      -7.026  -5.020   4.332  0.00  0.00    +0.000 A 
ATOM     14  C   UNL     1      -7.482  -5.391   3.081  0.00  0.00    +0.000 A 
ATOM     15  C   UNL     1      -6.604  -5.450   2.015  0.00  0.00    +0.000 A 
ATOM     16  C   UNL     1      -5.271  -5.133   2.199  0.00  0.00    +0.007 A 
ENDBRANCH  10  11
ENDBRANCH   9  10
ENDBRANCH   7   9
ENDBRANCH   5   7
BRANCH   4  17
ATOM     17  O   UNL     1      -3.765  -0.457   4.307  0.00  0.00    -0.386 OA
ATOM     18  H   UNL     1      -4.053  -1.373   4.415  0.00  0.00    +0.210 HD
ENDBRANCH   4  17
BRANCH   3  19
ATOM     19  O   UNL     1      -2.625   1.978   5.284  0.00  0.00    -0.386 OA
ATOM     20  H   UNL     1      -2.445   2.927   5.229  0.00  0.00    +0.210 HD
ENDBRANCH   3  19
BRANCH   2  21
ATOM     21  O   UNL     1      -0.158   2.752   4.062  0.00  0.00    -0.383 OA
ATOM     22  H   UNL     1       0.792   2.934   4.082  0.00  0.00    +0.210 HD
ENDBRANCH   2  21
BRANCH   1  23
ATOM     23  O   UNL     1      -0.274   0.917   1.945  0.00  0.00    -0.432 OA
BRANCH  23  24
ATOM     24  C   UNL     1       0.287   0.307   0.889  0.00  0.00    +0.317 C 
ATOM     25  O   UNL     1       1.117  -0.554   1.060  0.00  0.00    -0.250 OA
BRANCH  24  27
ATOM     26  C   UNL     1       0.184   2.178  -0.735  0.00  0.00    +0.024 C 
ATOM     27  C   UNL     1      -0.120   0.696  -0.509  0.00  0.00    +0.125 C 
BRANCH  27  28
ATOM     28  C   UNL     1       0.651  -0.132  -1.504  0.00  0.00    -0.033 A 
ATOM     29  C   UNL     1       2.034  -0.077  -1.524  0.00  0.00    +0.004 A 
ATOM     30  C   UNL     1       2.750  -0.834  -2.435  0.00  0.00    +0.001 A 
ATOM     31  C   UNL     1       2.089  -1.649  -3.330  0.00  0.00    +0.012 A 
ATOM     32  C   UNL     1       0.694  -1.710  -3.315  0.00  0.00    +0.023 A 
ATOM     33  C   UNL     1      -0.022  -0.947  -2.390  0.00  0.00    +0.016 A 
BRANCH  32  34
ATOM     34  C   UNL     1      -0.021  -2.581  -4.271  0.00  0.00    +0.193 C 
ATOM     35  O   UNL     1       0.603  -3.349  -4.978  0.00  0.00    -0.287 OA
BRANCH  34  36
ATOM     36  C   UNL     1      -1.494  -2.520  -4.367  0.00  0.00    +0.022 A 
ATOM     37  C   UNL     1      -2.159  -1.307  -4.175  0.00  0.00    +0.012 A 
ATOM     38  C   UNL     1      -3.535  -1.256  -4.267  0.00  0.00    +0.001 A 
ATOM     39  C   UNL     1      -4.255  -2.404  -4.548  0.00  0.00    +0.000 A 
ATOM     40  C   UNL     1      -3.602  -3.609  -4.739  0.00  0.00    +0.001 A 
ATOM     41  C   UNL     1      -2.227  -3.673  -4.656  0.00  0.00    +0.012 A 
ENDBRANCH  34  36
ENDBRANCH  32  34
ENDBRANCH  27  28
ENDBRANCH  24  27
ENDBRANCH  23  24
ENDBRANCH   1  23
TORSDOF 13
