REMARK  Name = ZINC28382429
REMARK  7 active torsions:
REMARK  status: ('A' for Active; 'I' for Inactive)
REMARK    1  A    between atoms: C_4  and  C_7
REMARK    2  A    between atoms: C_10  and  C_13
REMARK    3  A    between atoms: C_13  and  C_15
REMARK    4  A    between atoms: C_15  and  S_16
REMARK    5  A    between atoms: S_16  and  C_17
REMARK    6  A    between atoms: C_20  and  C_23
REMARK    7  A    between atoms: N_21  and  N_22
REMARK                            x       y       z     vdW  Elec       q    Type
REMARK                         _______ _______ _______ _____ _____    ______ ____
ROOT
ATOM      1  C   UNL     1      -3.230  -1.649   0.026  0.00  0.00    +0.209 A 
ATOM      2  N   UNL     1      -2.378  -2.650   0.013  0.00  0.00    -0.120 NA
ATOM      3  N   UNL     1      -1.173  -2.203   0.003  0.00  0.00    -0.125 NA
ATOM      4  C   UNL     1      -1.182  -0.891   0.009  0.00  0.00    +0.202 A 
ATOM      5  N   UNL     1      -2.499  -0.495   0.029  0.00  0.00    -0.222 N 
ENDROOT
BRANCH   4   6
ATOM      6  C   UNL     1       0.002  -0.004   0.002  0.00  0.00    +0.134 A 
ATOM      7  C   UNL     1       1.353  -0.420  -0.013  0.00  0.00    +0.004 A 
ATOM      8  C   UNL     1       2.125   0.685  -0.015  0.00  0.00    +0.040 A 
ATOM      9  N   UNL     1       1.309   1.766  -0.001  0.00  0.00    -0.281 N 
ATOM     10  H   UNL     1       1.737   2.779   0.000  0.00  0.00    +0.189 HD
ATOM     11  N   UNL     1      -0.016   1.313   0.009  0.00  0.00    -0.170 NA
ATOM     12  C   UNL     1       3.590   0.303  -0.031  0.00  0.00    +0.055 C 
ATOM     13  C   UNL     1       3.619  -1.181   0.395  0.00  0.00    +0.011 C 
ATOM     14  C   UNL     1       2.215  -1.664  -0.028  0.00  0.00    +0.039 C 
ENDBRANCH   4   6
BRANCH   5  15
ATOM     15  N   UNL     1      -2.977   0.784   0.047  0.00  0.00    -0.295 N 
ATOM     16  H   UNL     1      -2.276   1.633   0.048  0.00  0.00    +0.163 HD
ATOM     17  H   UNL     1      -4.061   0.967   0.060  0.00  0.00    +0.163 HD
ENDBRANCH   5  15
BRANCH   1  18
ATOM     18  S   UNL     1      -4.988  -1.773   0.043  0.00  0.00    -0.077 S 
BRANCH  18  19
ATOM     19  C   UNL     1      -5.176  -3.574   0.036  0.00  0.00    +0.157 C 
BRANCH  19  20
ATOM     20  C   UNL     1      -6.641  -3.925   0.049  0.00  0.00    +0.173 C 
ATOM     21  O   UNL     1      -7.476  -3.046   0.062  0.00  0.00    -0.291 OA
BRANCH  20  25
ATOM     22  C   UNL     1      -7.845  -7.990   0.039  0.00  0.00    -0.018 A 
ATOM     23  C   UNL     1      -8.806  -6.978   0.055  0.00  0.00    +0.009 A 
ATOM     24  C   UNL     1      -8.420  -5.663   0.058  0.00  0.00    +0.012 A 
ATOM     25  C   UNL     1      -7.059  -5.335   0.046  0.00  0.00    +0.018 A 
ATOM     26  C   UNL     1      -6.096  -6.351   0.025  0.00  0.00    +0.012 A 
ATOM     27  C   UNL     1      -6.487  -7.665   0.027  0.00  0.00    +0.009 A 
BRANCH  22  31
ATOM     28  C   UNL     1      -9.052 -12.066   0.028  0.00  0.00    +0.000 A 
ATOM     29  C   UNL     1      -7.706 -11.746   0.016  0.00  0.00    +0.001 A 
ATOM     30  C   UNL     1      -7.308 -10.424   0.020  0.00  0.00    +0.008 A 
ATOM     31  C   UNL     1      -8.266  -9.411   0.035  0.00  0.00    -0.018 A 
ATOM     32  C   UNL     1      -9.621  -9.740   0.053  0.00  0.00    +0.008 A 
ATOM     33  C   UNL     1     -10.007 -11.065   0.043  0.00  0.00    +0.001 A 
ENDBRANCH  22  31
ENDBRANCH  20  25
ENDBRANCH  19  20
ENDBRANCH  18  19
ENDBRANCH   1  18
TORSDOF 7
