REMARK  Name = ZINC51106684
REMARK  4 active torsions:
REMARK  status: ('A' for Active; 'I' for Inactive)
REMARK    1  A    between atoms: C_6  and  N_7
REMARK    2  A    between atoms: C_8  and  C_10
REMARK    3  A    between atoms: C_10  and  N_11
REMARK    4  A    between atoms: C_15  and  C_18
REMARK                            x       y       z     vdW  Elec       q    Type
REMARK                         _______ _______ _______ _____ _____    ______ ____
ROOT
ATOM      1  N   UNL     1      -1.202  -0.721   0.009  0.00  0.00    -0.284 N 
ATOM      2  C   UNL     1      -2.374  -0.067   0.125  0.00  0.00    +0.231 C 
ATOM      3  O   UNL     1      -2.395   1.146   0.132  0.00  0.00    -0.274 OA
ATOM      4  H   UNL     1      -1.192  -1.687  -0.073  0.00  0.00    +0.155 HD
ENDROOT
BRANCH   1  10
ATOM      5  C   UNL     1       0.121   1.154   0.763  0.00  0.00    +0.027 A 
ATOM      6  C   UNL     1       1.309   1.862   0.763  0.00  0.00    +0.051 A 
ATOM      7  C   UNL     1       2.381   1.418   0.010  0.00  0.00    +0.167 A 
ATOM      8  C   UNL     1       2.264   0.254  -0.750  0.00  0.00    +0.169 A 
ATOM      9  C   UNL     1       1.076  -0.454  -0.750  0.00  0.00    +0.072 A 
ATOM     10  C   UNL     1       0.002  -0.004   0.008  0.00  0.00    +0.037 A 
ATOM     11  O   UNL     1       3.455   0.038  -1.393  0.00  0.00    -0.447 OA
ATOM     12  C   UNL     1       4.081   1.329  -1.397  0.00  0.00    +0.254 C 
ATOM     13  O   UNL     1       3.645   1.920  -0.165  0.00  0.00    -0.448 OA
ATOM     14  C   UNL     1       3.630   2.162  -2.603  0.00  0.00    +0.093 C 
ATOM     15  C   UNL     1       4.891   2.983  -2.982  0.00  0.00    +0.008 C 
ATOM     16  C   UNL     1       6.046   1.983  -2.722  0.00  0.00    +0.008 C 
ATOM     17  C   UNL     1       5.604   1.214  -1.456  0.00  0.00    +0.093 C 
ENDBRANCH   1  10
BRANCH   2  18
ATOM     18  C   UNL     1      -3.661  -0.842   0.247  0.00  0.00    +0.181 C 
BRANCH  18  19
ATOM     19  N   UNL     1      -4.788   0.093   0.359  0.00  0.00    -0.289 NA
ATOM     20  C   UNL     1      -4.964   0.858  -0.884  0.00  0.00    +0.113 C 
ATOM     21  C   UNL     1      -6.108   1.860  -0.702  0.00  0.00    +0.176 C 
ATOM     22  O   UNL     1      -7.295   1.157  -0.326  0.00  0.00    -0.365 OA
ATOM     23  C   UNL     1      -7.159   0.402   0.881  0.00  0.00    +0.217 C 
ATOM     24  C   UNL     1      -6.026  -0.614   0.716  0.00  0.00    +0.126 C 
BRANCH  23  25
ATOM     25  C   UNL     1      -8.449  -0.322   1.169  0.00  0.00    +0.241 C 
ATOM     26  O   UNL     1      -9.361  -0.278   0.371  0.00  0.00    -0.273 OA
ATOM     27  N   UNL     1      -8.588  -1.020   2.314  0.00  0.00    -0.327 N 
ATOM     28  H   UNL     1      -7.859  -1.055   2.952  0.00  0.00    +0.145 HD
ATOM     29  H   UNL     1      -9.418  -1.486   2.500  0.00  0.00    +0.145 HD
ENDBRANCH  23  25
ENDBRANCH  18  19
ENDBRANCH   2  18
TORSDOF 4
