REMARK  Name = ZINC23659394
REMARK  11 active torsions:
REMARK  status: ('A' for Active; 'I' for Inactive)
REMARK    1  A    between atoms: C_1  and  C_2
REMARK    2  A    between atoms: C_2  and  C_4
REMARK    3  A    between atoms: C_2  and  S_17
REMARK    4  A    between atoms: C_4  and  C_6
REMARK    5  A    between atoms: S_17  and  C_18
REMARK    6  A    between atoms: C_21  and  C_24
REMARK    7  A    between atoms: N_22  and  C_23
REMARK    8  A    between atoms: C_27  and  C_30
REMARK    9  A    between atoms: C_30  and  C_31
REMARK   10  A    between atoms: C_30  and  C_32
REMARK   11  A    between atoms: C_30  and  C_33
REMARK                            x       y       z     vdW  Elec       q    Type
REMARK                         _______ _______ _______ _____ _____    ______ ____
ROOT
ATOM      1  S   UNL     1      -4.843   3.699   1.189  0.00  0.00    -0.075 S 
ENDROOT
BRANCH   1   2
ATOM      2  C   UNL     1      -6.330   2.780   0.970  0.00  0.00    +0.192 A 
ATOM      3  N   UNL     1      -6.431   1.567   0.473  0.00  0.00    -0.122 NA
ATOM      4  N   UNL     1      -7.662   1.197   0.460  0.00  0.00    -0.128 NA
ATOM      5  C   UNL     1      -8.423   2.153   0.938  0.00  0.00    +0.165 A 
ATOM      6  N   UNL     1      -7.593   3.196   1.280  0.00  0.00    -0.305 N 
ATOM      7  C   UNL     1      -7.984   4.485   1.856  0.00  0.00    +0.153 C 
BRANCH   5   8
ATOM      8  C   UNL     1      -9.893   2.116   1.083  0.00  0.00    +0.019 A 
ATOM      9  C   UNL     1     -10.565   0.893   1.104  0.00  0.00    +0.012 A 
ATOM     10  C   UNL     1     -11.937   0.866   1.245  0.00  0.00    +0.005 A 
ATOM     11  C   UNL     1     -12.649   2.047   1.353  0.00  0.00    -0.042 A 
ATOM     12  C   UNL     1     -11.989   3.264   1.327  0.00  0.00    +0.005 A 
ATOM     13  C   UNL     1     -10.617   3.305   1.193  0.00  0.00    +0.012 A 
BRANCH  11  14
ATOM     14  C   UNL     1     -14.148   2.010   1.500  0.00  0.00    -0.013 C 
ATOM     15  C   UNL     1     -14.794   2.758   0.331  0.00  0.00    +0.015 C 
ATOM     16  C   UNL     1     -14.624   0.556   1.500  0.00  0.00    +0.015 C 
ATOM     17  C   UNL     1     -14.548   2.679   2.816  0.00  0.00    +0.015 C 
ENDBRANCH  11  14
ENDBRANCH   5   8
ENDBRANCH   1   2
BRANCH   1  19
ATOM     18  C   UNL     1      -3.881   2.269  -0.930  0.00  0.00    +0.028 C 
ATOM     19  C   UNL     1      -3.639   2.502   0.562  0.00  0.00    +0.122 C 
BRANCH  19  20
ATOM     20  C   UNL     1      -2.245   3.038   0.767  0.00  0.00    +0.176 C 
ATOM     21  O   UNL     1      -2.060   4.234   0.846  0.00  0.00    -0.291 OA
BRANCH  20  22
ATOM     22  C   UNL     1      -1.110   2.111   0.872  0.00  0.00    +0.020 A 
ATOM     23  C   UNL     1      -1.320   0.730   0.775  0.00  0.00    +0.015 A 
ATOM     24  C   UNL     1      -0.257  -0.139   0.878  0.00  0.00    +0.048 A 
ATOM     25  C   UNL     1       1.028   0.352   1.067  0.00  0.00    +0.142 A 
ATOM     26  C   UNL     1       1.246   1.730   1.159  0.00  0.00    +0.076 A 
ATOM     27  C   UNL     1       0.186   2.607   1.062  0.00  0.00    +0.038 A 
ATOM     28  N   UNL     1       2.552   2.205   1.351  0.00  0.00    -0.280 N 
ATOM     29  C   UNL     1       3.591   1.371   1.127  0.00  0.00    +0.255 C 
ATOM     30  O   UNL     1       4.728   1.751   1.315  0.00  0.00    -0.272 OA
ATOM     31  C   UNL     1       3.332  -0.033   0.643  0.00  0.00    +0.325 C 
ATOM     32  O   UNL     1       2.083  -0.497   1.162  0.00  0.00    -0.481 OA
ATOM     33  H   UNL     1       2.717   3.242   1.679  0.00  0.00    +0.155 HD
ENDBRANCH  20  22
ENDBRANCH  19  20
ENDBRANCH   1  19
TORSDOF 6
