REMARK  Name = ZINC38597930
REMARK  7 active torsions:
REMARK  status: ('A' for Active; 'I' for Inactive)
REMARK    1  A    between atoms: C_3  and  C_6
REMARK    2  A    between atoms: C_6  and  C_8
REMARK    3  A    between atoms: C_6  and  N_23
REMARK    4  A    between atoms: C_8  and  N_9
REMARK    5  A    between atoms: C_10  and  C_12
REMARK    6  A    between atoms: N_14  and  C_15
REMARK    7  A    between atoms: N_26  and  C_29
REMARK                            x       y       z     vdW  Elec       q    Type
REMARK                         _______ _______ _______ _____ _____    ______ ____
ROOT
ATOM      1  C   UNL     1       3.729   0.410   0.062  0.00  0.00    +0.017 C 
ENDROOT
BRANCH   1   2
ATOM      2  N   UNL     1       4.368  -0.745   0.707  0.00  0.00    +0.389 N 
ATOM      3  C   UNL     1       3.956  -1.976   0.020  0.00  0.00    -0.059 C 
ATOM      4  C   UNL     1       4.709  -3.169   0.618  0.00  0.00    +0.086 C 
ATOM      5  N   UNL     1       4.485  -3.181   2.071  0.00  0.00    -0.333 N 
ATOM      6  C   UNL     1       4.717  -1.935   2.819  0.00  0.00    +0.086 C 
ATOM      7  C   UNL     1       3.964  -0.800   2.117  0.00  0.00    -0.059 C 
ATOM      8  H   UNL     1       5.370  -0.649   0.649  0.00  0.00    -0.081 HD
BRANCH   5   9
ATOM      9  C   UNL     1       4.064  -4.344   2.724  0.00  0.00    +0.030 A 
ATOM     10  C   UNL     1       3.970  -5.539   2.024  0.00  0.00    +0.026 A 
ATOM     11  C   UNL     1       3.554  -6.686   2.671  0.00  0.00    +0.040 A 
ATOM     12  C   UNL     1       3.231  -6.645   4.017  0.00  0.00    +0.124 A 
ATOM     13  C   UNL     1       3.324  -5.454   4.717  0.00  0.00    +0.040 A 
ATOM     14  C   UNL     1       3.744  -4.306   4.075  0.00  0.00    +0.026 A 
ATOM     15  F   UNL     1       2.824  -7.768   4.648  0.00  0.00    -0.205 F 
ENDBRANCH   5   9
ENDBRANCH   1   2
BRANCH   1  18
ATOM     16  C   UNL     1       0.114   0.809   0.653  0.00  0.00    +0.041 A 
ATOM     17  C   UNL     1       1.428   1.330   0.617  0.00  0.00    +0.043 A 
ATOM     18  C   UNL     1       2.236   0.323   0.239  0.00  0.00    +0.093 A 
ATOM     19  O   UNL     1       1.485  -0.774   0.046  0.00  0.00    -0.469 OA
ATOM     20  C   UNL     1       0.197  -0.485   0.296  0.00  0.00    +0.195 A 
ENDBRANCH   1  18
BRANCH   1  21
ATOM     21  C   UNL     1       4.067   0.412  -1.431  0.00  0.00    +0.097 C 
BRANCH  21  22
ATOM     22  N   UNL     1       5.521   0.383  -1.603  0.00  0.00    -0.309 N 
ATOM     23  C   UNL     1       6.052   0.275  -2.837  0.00  0.00    +0.299 C 
ATOM     24  O   UNL     1       5.325   0.202  -3.806  0.00  0.00    -0.265 OA
ATOM     25  H   UNL     1       6.103   0.441  -0.828  0.00  0.00    +0.149 HD
BRANCH  23  26
ATOM     26  C   UNL     1       7.535   0.245  -3.012  0.00  0.00    +0.303 C 
ATOM     27  O   UNL     1       8.262   0.318  -2.043  0.00  0.00    -0.265 OA
ATOM     28  N   UNL     1       8.066   0.137  -4.246  0.00  0.00    -0.278 N 
ATOM     29  H   UNL     1       7.488   0.150  -5.025  0.00  0.00    +0.155 HD
BRANCH  28  30
ATOM     30  C   UNL     1       9.449   0.006  -4.403  0.00  0.00    +0.037 A 
ATOM     31  C   UNL     1      10.082   0.584  -5.497  0.00  0.00    +0.026 A 
ATOM     32  C   UNL     1      11.448   0.454  -5.651  0.00  0.00    +0.043 A 
ATOM     33  C   UNL     1      12.188  -0.252  -4.718  0.00  0.00    +0.159 A 
ATOM     34  C   UNL     1      11.559  -0.830  -3.625  0.00  0.00    +0.160 A 
ATOM     35  C   UNL     1      10.192  -0.697  -3.464  0.00  0.00    +0.064 A 
ATOM     36  F   UNL     1      12.282  -1.519  -2.716  0.00  0.00    -0.202 F 
ATOM     37  F   UNL     1      13.524  -0.378  -4.871  0.00  0.00    -0.202 F 
ENDBRANCH  28  30
ENDBRANCH  23  26
ENDBRANCH  21  22
ENDBRANCH   1  21
TORSDOF 7
