REMARK  Name = ZINC39946026
REMARK  13 active torsions:
REMARK  status: ('A' for Active; 'I' for Inactive)
REMARK    1  A    between atoms: C_1  and  C_2
REMARK    2  A    between atoms: C_2  and  C_3
REMARK    3  A    between atoms: C_3  and  C_4
REMARK    4  A    between atoms: C_4  and  N_5
REMARK    5  A    between atoms: N_5  and  C_6
REMARK    6  A    between atoms: C_9  and  S_26
REMARK    7  A    between atoms: C_11  and  N_12
REMARK    8  A    between atoms: C_13  and  C_15
REMARK    9  A    between atoms: S_26  and  N_29
REMARK   10  A    between atoms: N_29  and  C_30
REMARK   11  A    between atoms: N_29  and  C_32
REMARK   12  A    between atoms: C_30  and  C_31
REMARK   13  A    between atoms: C_32  and  C_33
REMARK                            x       y       z     vdW  Elec       q    Type
REMARK                         _______ _______ _______ _____ _____    ______ ____
ROOT
ATOM      1  C   UNL     1       1.537  -3.888  -2.727  0.00  0.00    +0.049 A 
ATOM      2  C   UNL     1       1.019  -4.809  -1.828  0.00  0.00    +0.027 A 
ATOM      3  C   UNL     1       1.173  -6.162  -2.060  0.00  0.00    +0.030 A 
ATOM      4  C   UNL     1       1.843  -6.604  -3.187  0.00  0.00    +0.107 A 
ATOM      5  C   UNL     1       2.362  -5.696  -4.088  0.00  0.00    +0.053 A 
ATOM      6  C   UNL     1       2.208  -4.334  -3.868  0.00  0.00    +0.057 A 
ENDROOT
BRANCH   6   7
ATOM      7  N   UNL     1       2.727  -3.412  -4.781  0.00  0.00    -0.280 N 
ATOM      8  C   UNL     1       3.880  -3.679  -5.426  0.00  0.00    +0.245 C 
ATOM      9  O   UNL     1       4.427  -4.754  -5.273  0.00  0.00    -0.270 OA
ATOM     10  H   UNL     1       2.257  -2.581  -4.951  0.00  0.00    +0.155 HD
BRANCH   8  11
ATOM     11  C   UNL     1       4.478  -2.666  -6.317  0.00  0.00    +0.032 C 
ATOM     12  C   UNL     1       5.594  -2.947  -7.080  0.00  0.00    +0.005 A 
ATOM     13  C   UNL     1       6.227  -4.264  -7.033  0.00  0.00    +0.010 A 
ATOM     14  C   UNL     1       7.322  -4.491  -7.801  0.00  0.00    +0.001 A 
ATOM     15  C   UNL     1       7.851  -3.496  -8.631  0.00  0.00    +0.002 A 
ATOM     16  C   UNL     1       7.313  -2.255  -8.722  0.00  0.00    +0.024 A 
ATOM     17  C   UNL     1       6.172  -1.913  -7.964  0.00  0.00    +0.041 A 
ATOM     18  N   UNL     1       5.652  -0.697  -8.057  0.00  0.00    -0.285 N 
ATOM     19  C   UNL     1       4.582  -0.308  -7.375  0.00  0.00    +0.222 C 
ATOM     20  O   UNL     1       4.156   0.823  -7.507  0.00  0.00    -0.275 OA
ATOM     21  C   UNL     1       3.890  -1.274  -6.441  0.00  0.00    +0.137 C 
ATOM     22  H   UNL     1       6.075  -0.060  -8.653  0.00  0.00    +0.155 HD
ENDBRANCH   8  11
ENDBRANCH   6   7
BRANCH   4  23
ATOM     23  S   UNL     1       2.036  -8.332  -3.472  0.00  0.00    +0.061 S 
ATOM     24  O   UNL     1       3.172  -8.481  -4.312  0.00  0.00    -0.153 OA
ATOM     25  O   UNL     1       1.937  -8.967  -2.205  0.00  0.00    -0.153 OA
BRANCH  23  26
ATOM     26  N   UNL     1       0.726  -8.832  -4.355  0.00  0.00    -0.177 NA
BRANCH  26  27
ATOM     27  C   UNL     1       0.776  -8.805  -5.819  0.00  0.00    +0.106 C 
ATOM     28  C   UNL     1       1.192 -10.182  -6.340  0.00  0.00    +0.022 C 
ENDBRANCH  26  27
BRANCH  26  29
ATOM     29  C   UNL     1      -0.482  -9.300  -3.671  0.00  0.00    +0.106 C 
ATOM     30  C   UNL     1      -1.474  -8.143  -3.538  0.00  0.00    +0.022 C 
ENDBRANCH  26  29
ENDBRANCH  23  26
ENDBRANCH   4  23
BRANCH   1  31
ATOM     31  N   UNL     1       1.383  -2.518  -2.495  0.00  0.00    -0.342 N 
ATOM     32  H   UNL     1       1.742  -1.875  -3.127  0.00  0.00    +0.146 HD
BRANCH  31  33
ATOM     33  C   UNL     1       0.678  -2.053  -1.298  0.00  0.00    +0.101 C 
BRANCH  33  34
ATOM     34  C   UNL     1       0.650  -0.523  -1.285  0.00  0.00    +0.018 C 
BRANCH  34  36
ATOM     35  C   UNL     1      -0.115   1.493  -0.022  0.00  0.00    +0.004 C 
ATOM     36  C   UNL     1      -0.086  -0.037  -0.035  0.00  0.00    -0.002 C 
ENDBRANCH  34  36
ENDBRANCH  33  34
ENDBRANCH  31  33
ENDBRANCH   1  31
TORSDOF 10
