REMARK  Name = ZINC32841090
REMARK  14 active torsions:
REMARK  status: ('A' for Active; 'I' for Inactive)
REMARK    1  A    between atoms: C_1  and  C_2
REMARK    2  A    between atoms: C_2  and  C_3
REMARK    3  A    between atoms: C_5  and  C_30
REMARK    4  A    between atoms: C_6  and  C_11
REMARK    5  A    between atoms: C_11  and  O_12
REMARK    6  A    between atoms: O_12  and  C_13
REMARK    7  A    between atoms: C_13  and  C_15
REMARK    8  A    between atoms: C_15  and  C_16
REMARK    9  A    between atoms: C_16  and  C_17
REMARK   10  A    between atoms: C_18  and  C_29
REMARK   11  A    between atoms: C_22  and  C_28
REMARK   12  A    between atoms: C_30  and  O_32
REMARK   13  A    between atoms: O_32  and  C_33
REMARK   14  A    between atoms: C_33  and  C_34
REMARK                            x       y       z     vdW  Elec       q    Type
REMARK                         _______ _______ _______ _____ _____    ______ ____
ROOT
ATOM      1  O   UNL     1       3.164  -0.751  -0.916  0.00  0.00    -0.459 OA
ENDROOT
BRANCH   1   2
ATOM      2  C   UNL     1       3.288  -2.086  -0.965  0.00  0.00    +0.308 C 
ATOM      3  O   UNL     1       2.795  -2.771  -0.100  0.00  0.00    -0.251 OA
BRANCH   2   4
ATOM      4  C   UNL     1       4.043  -2.732  -2.099  0.00  0.00    +0.125 C 
BRANCH   4   5
ATOM      5  C   UNL     1       4.035  -4.251  -1.917  0.00  0.00    +0.054 C 
BRANCH   5   6
ATOM      6  C   UNL     1       4.789  -4.896  -3.051  0.00  0.00    +0.041 A 
ATOM      7  C   UNL     1       6.123  -5.118  -2.942  0.00  0.00    -0.030 A 
ATOM      8  C   UNL     1       6.815  -5.749  -4.071  0.00  0.00    +0.021 A 
ATOM      9  C   UNL     1       8.188  -6.006  -4.022  0.00  0.00    +0.012 A 
ATOM     10  C   UNL     1       8.806  -6.594  -5.090  0.00  0.00    +0.004 A 
ATOM     11  C   UNL     1       8.079  -6.939  -6.221  0.00  0.00    -0.047 A 
ATOM     12  C   UNL     1       6.724  -6.694  -6.288  0.00  0.00    +0.050 A 
ATOM     13  C   UNL     1       6.076  -6.097  -5.215  0.00  0.00    +0.140 A 
ATOM     14  O   UNL     1       4.749  -5.848  -5.259  0.00  0.00    -0.422 OA
ATOM     15  C   UNL     1       4.108  -5.277  -4.228  0.00  0.00    +0.341 A 
ATOM     16  O   UNL     1       2.910  -5.077  -4.312  0.00  0.00    -0.245 OA
ATOM     17  C   UNL     1       8.779  -7.587  -7.388  0.00  0.00    +0.044 C 
ATOM     18  C   UNL     1       6.873  -4.728  -1.694  0.00  0.00    +0.045 C 
ENDBRANCH   5   6
ENDBRANCH   4   5
ENDBRANCH   2   4
ENDBRANCH   1   2
BRANCH   1  19
ATOM     19  C   UNL     1       2.425  -0.198   0.205  0.00  0.00    +0.283 C 
BRANCH  19  22
ATOM     20  C   UNL     1       1.220   3.440  -0.210  0.00  0.00    +0.113 C 
ATOM     21  C   UNL     1       1.210   1.929  -0.109  0.00  0.00    +0.077 C 
ATOM     22  C   UNL     1       2.391   1.304   0.093  0.00  0.00    +0.061 C 
ATOM     23  N   UNL     1       3.554   2.012   0.192  0.00  0.00    -0.269 N 
ATOM     24  C   UNL     1       3.621   3.347   0.110  0.00  0.00    +0.304 C 
ATOM     25  O   UNL     1       4.704   3.889   0.214  0.00  0.00    -0.252 OA
ATOM     26  N   UNL     1       2.526   4.109  -0.084  0.00  0.00    -0.292 N 
ATOM     27  H   UNL     1       4.507   1.485   0.347  0.00  0.00    +0.156 HD
ATOM     28  H   UNL     1       2.591   5.205  -0.150  0.00  0.00    +0.151 HD
BRANCH  20  30
ATOM     29  C   UNL     1       0.188   5.510   0.735  0.00  0.00    +0.006 C 
ATOM     30  C   UNL     1       0.302   3.992   0.883  0.00  0.00    +0.024 C 
ENDBRANCH  20  30
BRANCH  21  31
ATOM     31  C   UNL     1       0.005   1.196  -0.216  0.00  0.00    +0.339 C 
ATOM     32  O   UNL     1      -0.482   0.982  -1.311  0.00  0.00    -0.245 OA
BRANCH  31  33
ATOM     33  O   UNL     1      -0.609   0.740   0.895  0.00  0.00    -0.462 OA
BRANCH  33  34
ATOM     34  C   UNL     1      -1.826   0.013   0.713  0.00  0.00    +0.229 C 
ATOM     35  C   UNL     1      -2.370  -0.420   2.076  0.00  0.00    +0.048 C 
ENDBRANCH  33  34
ENDBRANCH  31  33
ENDBRANCH  21  31
ENDBRANCH  19  22
ENDBRANCH   1  19
TORSDOF 10
