REMARK  Name = ZINC20459403
REMARK  9 active torsions:
REMARK  status: ('A' for Active; 'I' for Inactive)
REMARK    1  A    between atoms: C_1  and  C_2
REMARK    2  A    between atoms: C_10  and  C_22
REMARK    3  A    between atoms: C_12  and  C_20
REMARK    4  A    between atoms: C_13  and  N_19
REMARK    5  A    between atoms: C_14  and  C_15
REMARK    6  A    between atoms: C_14  and  C_17
REMARK    7  A    between atoms: C_25  and  O_28
REMARK    8  A    between atoms: O_28  and  C_29
REMARK    9  A    between atoms: C_29  and  C_30
REMARK                            x       y       z     vdW  Elec       q    Type
REMARK                         _______ _______ _______ _____ _____    ______ ____
ROOT
ATOM      1  C   UNL     1      -7.317   3.929  -0.383  0.00  0.00    +0.008 C 
ATOM      2  C   UNL     1      -6.098   3.045  -0.110  0.00  0.00    -0.010 C 
ATOM      3  C   UNL     1      -5.818   2.159  -1.329  0.00  0.00    +0.030 C 
ATOM      4  C   UNL     1      -4.597   1.332  -1.034  0.00  0.00    -0.024 C 
ATOM      5  C   UNL     1      -3.652   1.744  -0.243  0.00  0.00    -0.030 C 
ATOM      6  C   UNL     1      -3.641   3.083   0.442  0.00  0.00    +0.030 C 
ATOM      7  C   UNL     1      -4.872   3.921   0.136  0.00  0.00    +0.012 C 
ATOM      8  C   UNL     1      -2.390   3.848  -0.006  0.00  0.00    +0.068 C 
ATOM      9  C   UNL     1      -1.182   2.966   0.029  0.00  0.00    +0.057 C 
ATOM     10  C   UNL     1      -1.207   1.635   0.017  0.00  0.00    +0.054 C 
ATOM     11  C   UNL     1      -2.472   0.825   0.018  0.00  0.00    +0.202 C 
ENDROOT
BRANCH   8  12
ATOM     12  C   UNL     1      -2.171   5.020   0.915  0.00  0.00    -0.038 A 
ATOM     13  C   UNL     1      -1.977   4.808   2.268  0.00  0.00    +0.008 A 
ATOM     14  C   UNL     1      -1.770   5.880   3.114  0.00  0.00    +0.046 A 
ATOM     15  C   UNL     1      -1.767   7.172   2.607  0.00  0.00    +0.121 A 
ATOM     16  C   UNL     1      -1.967   7.382   1.250  0.00  0.00    +0.046 A 
ATOM     17  C   UNL     1      -2.168   6.306   0.407  0.00  0.00    +0.008 A 
BRANCH  15  18
ATOM     18  O   UNL     1      -1.569   8.229   3.438  0.00  0.00    -0.483 OA
BRANCH  18  19
ATOM     19  C   UNL     1      -1.369   7.937   4.822  0.00  0.00    +0.324 C 
BRANCH  19  20
ATOM     20  C   UNL     1      -1.168   9.223   5.582  0.00  0.00    +0.248 C 
ATOM     21  O   UNL     1      -1.192  10.284   4.996  0.00  0.00    -0.272 OA
ATOM     22  N   UNL     1      -0.960   9.193   6.914  0.00  0.00    -0.327 N 
ATOM     23  H   UNL     1      -0.813  10.131   7.469  0.00  0.00    +0.145 HD
ATOM     24  H   UNL     1      -0.938   8.230   7.445  0.00  0.00    +0.145 HD
ENDBRANCH  19  20
ENDBRANCH  18  19
ENDBRANCH  15  18
ENDBRANCH   8  12
BRANCH  10  25
ATOM     25  N   UNL     1      -0.011   0.966   0.007  0.00  0.00    -0.358 N 
ATOM     26  H   UNL     1       0.004  -0.134  -0.003  0.00  0.00    +0.142 HD
ATOM     27  H   UNL     1       0.934   1.529   0.010  0.00  0.00    +0.142 HD
ENDBRANCH  10  25
BRANCH  11  28
ATOM     28  C   UNL     1      -2.402  -0.199  -1.038  0.00  0.00    +0.095 C 
ATOM     29  N   UNL     1      -2.348  -0.988  -1.852  0.00  0.00    -0.194 NA
ENDBRANCH  11  28
BRANCH  11  30
ATOM     30  C   UNL     1      -2.636   0.171   1.327  0.00  0.00    +0.095 C 
ATOM     31  N   UNL     1      -2.763  -0.333   2.337  0.00  0.00    -0.194 NA
ENDBRANCH  11  30
BRANCH   9  32
ATOM     32  C   UNL     1       0.100   3.602   0.075  0.00  0.00    +0.097 C 
ATOM     33  N   UNL     1       1.117   4.106   0.111  0.00  0.00    -0.191 NA
ENDBRANCH   9  32
TORSDOF 8
