REMARK  Name = ZINC15044537
REMARK  10 active torsions:
REMARK  status: ('A' for Active; 'I' for Inactive)
REMARK    1  A    between atoms: C_3  and  C_6
REMARK    2  A    between atoms: N_10  and  C_14
REMARK    3  A    between atoms: C_14  and  C_15
REMARK    4  A    between atoms: C_15  and  C_16
REMARK    5  A    between atoms: C_16  and  C_17
REMARK    6  A    between atoms: C_17  and  C_18
REMARK    7  A    between atoms: C_18  and  C_19
REMARK    8  A    between atoms: N_21  and  C_22
REMARK    9  A    between atoms: C_25  and  S_28
REMARK   10  A    between atoms: S_28  and  N_31
REMARK                            x       y       z     vdW  Elec       q    Type
REMARK                         _______ _______ _______ _____ _____    ______ ____
ROOT
ATOM      1  C   UNL     1       4.610   0.036  -2.927  0.00  0.00    +0.009 C 
ENDROOT
BRANCH   1   2
ATOM      2  C   UNL     1       4.179   0.278  -1.479  0.00  0.00    +0.002 C 
BRANCH   2   3
ATOM      3  C   UNL     1       2.830   1.000  -1.462  0.00  0.00    +0.019 C 
BRANCH   3   4
ATOM      4  C   UNL     1       2.400   1.242  -0.014  0.00  0.00    +0.115 C 
BRANCH   4   9
ATOM      5  C   UNL     1      -2.556   1.514   0.037  0.00  0.00    +0.066 C 
ATOM      6  C   UNL     1      -1.272   1.973   0.027  0.00  0.00    +0.080 C 
ATOM      7  C   UNL     1      -0.006   1.221   0.018  0.00  0.00    +0.258 C 
ATOM      8  O   UNL     1       0.014   0.004   0.018  0.00  0.00    -0.269 OA
ATOM      9  N   UNL     1       1.108   1.933   0.003  0.00  0.00    -0.255 N 
ATOM     10  C   UNL     1       1.082   3.282   0.002  0.00  0.00    +0.121 C 
ATOM     11  S   UNL     1       2.402   4.371  -0.016  0.00  0.00    -0.027 S 
ATOM     12  S   UNL     1      -0.664   3.654   0.024  0.00  0.00    -0.061 S 
BRANCH   5  15
ATOM     13  C   UNL     1      -5.680   3.318   0.060  0.00  0.00    +0.042 A 
ATOM     14  C   UNL     1      -4.976   2.104   0.050  0.00  0.00    +0.049 A 
ATOM     15  C   UNL     1      -3.634   2.428   0.045  0.00  0.00    +0.129 A 
ATOM     16  O   UNL     1      -3.536   3.774   0.044  0.00  0.00    -0.463 OA
ATOM     17  C   UNL     1      -4.765   4.311   0.053  0.00  0.00    +0.195 A 
ENDBRANCH   5  15
ENDBRANCH   4   9
ENDBRANCH   3   4
ENDBRANCH   2   3
ENDBRANCH   1   2
BRANCH   1  18
ATOM     18  C   UNL     1       5.959  -0.686  -2.944  0.00  0.00    +0.096 C 
BRANCH  18  19
ATOM     19  C   UNL     1       6.383  -0.924  -4.370  0.00  0.00    +0.217 C 
ATOM     20  O   UNL     1       5.676  -0.553  -5.283  0.00  0.00    -0.275 OA
ATOM     21  N   UNL     1       7.548  -1.550  -4.631  0.00  0.00    -0.285 N 
ATOM     22  H   UNL     1       8.145  -1.787  -3.904  0.00  0.00    +0.155 HD
BRANCH  21  23
ATOM     23  C   UNL     1       7.897  -1.857  -5.951  0.00  0.00    +0.033 A 
ATOM     24  C   UNL     1       8.600  -3.021  -6.231  0.00  0.00    +0.025 A 
ATOM     25  C   UNL     1       8.938  -3.325  -7.536  0.00  0.00    +0.030 A 
ATOM     26  C   UNL     1       8.587  -2.465  -8.560  0.00  0.00    +0.105 A 
ATOM     27  C   UNL     1       7.891  -1.302  -8.284  0.00  0.00    +0.030 A 
ATOM     28  C   UNL     1       7.545  -0.996  -6.982  0.00  0.00    +0.025 A 
BRANCH  26  29
ATOM     29  S   UNL     1       9.025  -2.853 -10.222  0.00  0.00    +0.056 S 
ATOM     30  O   UNL     1       9.194  -4.262 -10.280  0.00  0.00    -0.153 OA
ATOM     31  O   UNL     1       8.106  -2.161 -11.057  0.00  0.00    -0.153 OA
BRANCH  29  32
ATOM     32  N   UNL     1      10.515  -2.186 -10.504  0.00  0.00    -0.204 NA
ATOM     33  H   UNL     1      10.966  -1.692  -9.801  0.00  0.00    +0.144 HD
ATOM     34  H   UNL     1      10.936  -2.288 -11.372  0.00  0.00    +0.144 HD
ENDBRANCH  29  32
ENDBRANCH  26  29
ENDBRANCH  21  23
ENDBRANCH  18  19
ENDBRANCH   1  18
TORSDOF 10
