REMARK  Name = ZINC12743099
REMARK  7 active torsions:
REMARK  status: ('A' for Active; 'I' for Inactive)
REMARK    1  A    between atoms: C_1  and  C_2
REMARK    2  A    between atoms: C_2  and  C_4
REMARK    3  A    between atoms: C_2  and  N_15
REMARK    4  A    between atoms: N_6  and  C_7
REMARK    5  A    between atoms: C_8  and  C_12
REMARK    6  A    between atoms: N_18  and  S_21
REMARK    7  A    between atoms: S_21  and  C_24
REMARK                            x       y       z     vdW  Elec       q    Type
REMARK                         _______ _______ _______ _____ _____    ______ ____
ROOT
ATOM      1  N   UNL     1      -1.323  -0.596   0.231  0.00  0.00    -0.289 NA
ATOM      2  C   UNL     1      -1.221  -2.045   0.449  0.00  0.00    +0.102 C 
ATOM      3  C   UNL     1      -2.591  -2.594   0.862  0.00  0.00    +0.125 C 
ATOM      4  N   UNL     1      -3.581  -2.184  -0.146  0.00  0.00    -0.174 NA
ATOM      5  C   UNL     1      -3.648  -0.763  -0.518  0.00  0.00    +0.125 C 
ATOM      6  C   UNL     1      -2.236  -0.287  -0.876  0.00  0.00    +0.102 C 
ENDROOT
BRANCH   4   7
ATOM      7  S   UNL     1      -4.594  -3.294  -0.842  0.00  0.00    +0.061 S 
ATOM      8  O   UNL     1      -4.994  -2.750  -2.092  0.00  0.00    -0.153 OA
ATOM      9  O   UNL     1      -3.951  -4.556  -0.731  0.00  0.00    -0.153 OA
BRANCH   7  10
ATOM     10  C   UNL     1      -6.043  -3.377   0.158  0.00  0.00    +0.107 A 
ATOM     11  C   UNL     1      -6.107  -4.273   1.208  0.00  0.00    +0.030 A 
ATOM     12  C   UNL     1      -7.243  -4.339   1.992  0.00  0.00    +0.023 A 
ATOM     13  C   UNL     1      -8.316  -3.507   1.727  0.00  0.00    +0.059 A 
ATOM     14  C   UNL     1      -8.251  -2.609   0.676  0.00  0.00    +0.061 A 
ATOM     15  C   UNL     1      -7.112  -2.541  -0.105  0.00  0.00    +0.050 A 
ATOM     16 CL   UNL     1      -9.597  -1.565   0.342  0.00  0.00    -0.082 Cl
ATOM     17 CL   UNL     1      -9.743  -3.590   2.712  0.00  0.00    -0.082 Cl
ENDBRANCH   7  10
ENDBRANCH   4   7
BRANCH   1  19
ATOM     18  C   UNL     1       0.462  -0.319  -1.423  0.00  0.00    +0.034 C 
ATOM     19  C   UNL     1       0.002  -0.004   0.002  0.00  0.00    +0.140 C 
BRANCH  19  20
ATOM     20  C   UNL     1      -0.077   1.490   0.186  0.00  0.00    +0.235 C 
ATOM     21  O   UNL     1      -1.156   2.041   0.213  0.00  0.00    -0.274 OA
ATOM     22  N   UNL     1       1.053   2.212   0.320  0.00  0.00    -0.278 N 
ATOM     23  H   UNL     1       1.917   1.771   0.298  0.00  0.00    +0.155 HD
BRANCH  22  24
ATOM     24  C   UNL     1       0.981   3.587   0.489  0.00  0.00    +0.084 A 
ATOM     25  C   UNL     1       2.028   4.484   0.636  0.00  0.00    +0.065 A 
ATOM     26  C   UNL     1       1.670   5.875   0.798  0.00  0.00    +0.022 A 
ATOM     27  C   UNL     1       0.351   6.146   0.788  0.00  0.00    +0.048 A 
ATOM     28  S   UNL     1      -0.394   4.547   0.556  0.00  0.00    -0.081 S 
BRANCH  25  29
ATOM     29  C   UNL     1       3.427   4.045   0.629  0.00  0.00    +0.244 C 
ATOM     30  O   UNL     1       3.693   2.865   0.491  0.00  0.00    -0.270 OA
ATOM     31  N   UNL     1       4.418   4.947   0.775  0.00  0.00    -0.325 N 
ATOM     32  H   UNL     1       4.205   5.887   0.885  0.00  0.00    +0.145 HD
ATOM     33  H   UNL     1       5.343   4.656   0.769  0.00  0.00    +0.145 HD
ENDBRANCH  25  29
ENDBRANCH  22  24
ENDBRANCH  19  20
ENDBRANCH   1  19
TORSDOF 6
