REMARK  Name = ZINC10869700
REMARK  11 active torsions:
REMARK  status: ('A' for Active; 'I' for Inactive)
REMARK    1  A    between atoms: C_1  and  C_2
REMARK    2  A    between atoms: C_7  and  O_8
REMARK    3  A    between atoms: O_8  and  C_9
REMARK    4  A    between atoms: C_9  and  C_10
REMARK    5  A    between atoms: C_10  and  C_11
REMARK    6  A    between atoms: C_11  and  C_12
REMARK    7  A    between atoms: C_12  and  O_14
REMARK    8  A    between atoms: O_14  and  C_15
REMARK    9  A    between atoms: C_15  and  C_16
REMARK   10  A    between atoms: N_18  and  N_19
REMARK   11  A    between atoms: C_25  and  C_28
REMARK                            x       y       z     vdW  Elec       q    Type
REMARK                         _______ _______ _______ _____ _____    ______ ____
ROOT
ATOM      1  C   UNL     1      -0.014   1.209   0.009  0.00  0.00    +0.267 C 
ATOM      2  O   UNL     1       0.002  -0.004   0.002  0.00  0.00    -0.271 OA
ATOM      3  N   UNL     1      -1.191   1.867   0.018  0.00  0.00    -0.221 N 
ATOM      4  H   UNL     1      -1.204   2.837   0.023  0.00  0.00    +0.174 HD
ENDROOT
BRANCH   3   5
ATOM      5  N   UNL     1      -2.394   1.150   0.020  0.00  0.00    -0.137 N 
ATOM      6  C   UNL     1      -3.188   1.004   1.101  0.00  0.00    +0.263 C 
ATOM      7  O   UNL     1      -3.004   1.451   2.212  0.00  0.00    -0.271 OA
ATOM      8  C   UNL     1      -4.357   0.167   0.633  0.00  0.00    +0.114 C 
ATOM      9  C   UNL     1      -5.660   0.944   0.781  0.00  0.00    +0.035 C 
ATOM     10  C   UNL     1      -6.827   0.090   0.276  0.00  0.00    +0.006 C 
ATOM     11  C   UNL     1      -6.893  -1.208   1.083  0.00  0.00    -0.014 C 
ATOM     12  C   UNL     1      -5.589  -1.988   0.906  0.00  0.00    +0.006 C 
ATOM     13  C   UNL     1      -4.418  -1.143   1.412  0.00  0.00    +0.035 C 
ATOM     14  C   UNL     1      -8.066  -2.056   0.588  0.00  0.00    +0.007 C 
ATOM     15  N   UNL     1      -4.067  -0.090  -0.783  0.00  0.00    -0.284 N 
ATOM     16  C   UNL     1      -2.902   0.529  -1.052  0.00  0.00    +0.326 C 
ATOM     17  O   UNL     1      -2.369   0.522  -2.145  0.00  0.00    -0.251 OA
ATOM     18  H   UNL     1      -4.611  -0.601  -1.404  0.00  0.00    +0.151 HD
ENDBRANCH   3   5
BRANCH   1  19
ATOM     19  C   UNL     1       1.280   1.980   0.001  0.00  0.00    +0.329 C 
BRANCH  19  20
ATOM     20  O   UNL     1       2.397   1.051  -0.015  0.00  0.00    -0.455 OA
BRANCH  20  21
ATOM     21  C   UNL     1       3.630   1.581  -0.024  0.00  0.00    +0.308 C 
ATOM     22  O   UNL     1       3.772   2.781  -0.019  0.00  0.00    -0.251 OA
BRANCH  21  23
ATOM     23  C   UNL     1       4.837   0.680  -0.041  0.00  0.00    +0.124 C 
BRANCH  23  24
ATOM     24  C   UNL     1       6.109   1.530  -0.048  0.00  0.00    +0.052 C 
BRANCH  24  25
ATOM     25  C   UNL     1       7.335   0.615  -0.065  0.00  0.00    +0.229 C 
BRANCH  25  26
ATOM     26  O   UNL     1       8.523   1.409  -0.072  0.00  0.00    -0.492 OA
BRANCH  26  33
ATOM     27  C   UNL     1      10.882   2.962  -0.098  0.00  0.00    +0.047 C 
ATOM     28  C   UNL     1      10.901   1.455  -0.100  0.00  0.00    -0.007 A 
ATOM     29  C   UNL     1      12.106   0.778  -0.110  0.00  0.00    +0.027 A 
ATOM     30  C   UNL     1      12.123  -0.605  -0.118  0.00  0.00    +0.041 A 
ATOM     31  C   UNL     1      10.935  -1.314  -0.110  0.00  0.00    +0.023 A 
ATOM     32  C   UNL     1       9.729  -0.641  -0.094  0.00  0.00    +0.047 A 
ATOM     33  C   UNL     1       9.709   0.746  -0.087  0.00  0.00    +0.123 A 
ATOM     34 CL   UNL     1      13.638  -1.452  -0.138  0.00  0.00    -0.084 Cl
ENDBRANCH  26  33
ENDBRANCH  25  26
ENDBRANCH  24  25
ENDBRANCH  23  24
ENDBRANCH  21  23
ENDBRANCH  20  21
ENDBRANCH  19  20
ENDBRANCH   1  19
TORSDOF 9
