REMARK  Name = ZINC13389124
REMARK  4 active torsions:
REMARK  status: ('A' for Active; 'I' for Inactive)
REMARK    1  A    between atoms: C_1  and  O_2
REMARK    2  A    between atoms: O_2  and  C_3
REMARK    3  A    between atoms: C_6  and  C_9
REMARK    4  A    between atoms: C_20  and  N_25
REMARK                            x       y       z     vdW  Elec       q    Type
REMARK                         _______ _______ _______ _____ _____    ______ ____
ROOT
ATOM      1  C   UNL     1      -2.513   0.977   0.019  0.00  0.00    +0.105 C 
ATOM      2  C   UNL     1      -3.132   0.992   1.405  0.00  0.00    +0.029 C 
ATOM      3  C   UNL     1      -2.401   0.213   2.507  0.00  0.00    +0.033 C 
ATOM      4  C   UNL     1      -3.560  -0.183   3.424  0.00  0.00    -0.030 C 
ATOM      5  C   UNL     1      -4.681  -0.217   2.735  0.00  0.00    -0.023 C 
ATOM      6  C   UNL     1      -4.390   0.078   1.309  0.00  0.00    +0.049 C 
ATOM      7  C   UNL     1      -5.373   0.752   0.434  0.00  0.00    -0.017 A 
ATOM      8  C   UNL     1      -6.733   0.655   0.637  0.00  0.00    +0.038 A 
ATOM      9  C   UNL     1      -7.614   1.278  -0.229  0.00  0.00    +0.127 A 
ATOM     10  C   UNL     1      -7.130   2.001  -1.304  0.00  0.00    +0.034 A 
ATOM     11  C   UNL     1      -5.771   2.111  -1.511  0.00  0.00    +0.025 A 
ATOM     12  C   UNL     1      -4.877   1.494  -0.644  0.00  0.00    +0.032 A 
ATOM     13  N   UNL     1      -3.501   1.633  -0.865  0.00  0.00    -0.336 N 
ATOM     14  H   UNL     1      -3.191   2.169  -1.612  0.00  0.00    +0.147 HD
ENDROOT
BRANCH   1  18
ATOM     15  C   UNL     1       1.155   3.169   0.008  0.00  0.00    +0.120 A 
ATOM     16  C   UNL     1       1.175   1.782   0.000  0.00  0.00    +0.046 A 
ATOM     17  C   UNL     1      -0.013   1.076   0.008  0.00  0.00    +0.009 A 
ATOM     18  C   UNL     1      -1.220   1.750   0.017  0.00  0.00    -0.027 A 
ATOM     19  C   UNL     1      -1.242   3.133   0.031  0.00  0.00    +0.009 A 
ATOM     20  C   UNL     1      -0.057   3.844   0.023  0.00  0.00    +0.046 A 
BRANCH  15  22
ATOM     21  C   UNL     1       2.225   5.292   0.009  0.00  0.00    +0.277 C 
ATOM     22  O   UNL     1       2.322   3.866   0.000  0.00  0.00    -0.495 OA
ENDBRANCH  15  22
ENDBRANCH   1  18
BRANCH   9  23
ATOM     23  N   UNL     1      -9.072   1.169  -0.005  0.00  0.00    +0.056 N 
ATOM     24  O   UNL     1      -9.848   1.718  -0.767  0.00  0.00    -0.126 OA
ATOM     25  O   UNL     1      -9.498   0.532   0.942  0.00  0.00    -0.126 OA
ENDBRANCH   9  23
TORSDOF 3
