REMARK  Name = ZINC13032170
REMARK  15 active torsions:
REMARK  status: ('A' for Active; 'I' for Inactive)
REMARK    1  A    between atoms: C_1  and  C_2
REMARK    2  A    between atoms: C_2  and  C_3
REMARK    3  A    between atoms: C_3  and  C_4
REMARK    4  A    between atoms: C_3  and  C_5
REMARK    5  A    between atoms: C_3  and  N_6
REMARK    6  A    between atoms: C_7  and  C_9
REMARK    7  A    between atoms: C_9  and  C_11
REMARK    8  A    between atoms: C_9  and  N_17
REMARK    9  A    between atoms: C_14  and  C_16
REMARK   10  A    between atoms: N_17  and  C_18
REMARK   11  A    between atoms: C_21  and  O_24
REMARK   12  A    between atoms: O_24  and  C_25
REMARK   13  A    between atoms: C_25  and  C_26
REMARK   14  A    between atoms: C_27  and  C_29
REMARK   15  A    between atoms: C_29  and  N_30
REMARK                            x       y       z     vdW  Elec       q    Type
REMARK                         _______ _______ _______ _____ _____    ______ ____
ROOT
ATOM      1  N   UNL     1      -5.532   3.462  -1.589  0.00  0.00    -0.251 N 
ATOM      2  C   UNL     1      -4.227   3.790  -1.506  0.00  0.00    +0.242 C 
ATOM      3  O   UNL     1      -3.549   3.837  -2.510  0.00  0.00    -0.273 OA
ENDROOT
BRANCH   1   4
ATOM      4  C   UNL     1      -6.135   3.299  -2.843  0.00  0.00    +0.038 A 
ATOM      5  C   UNL     1      -7.490   3.010  -2.929  0.00  0.00    +0.027 A 
ATOM      6  C   UNL     1      -8.085   2.856  -4.166  0.00  0.00    +0.047 A 
ATOM      7  C   UNL     1      -7.327   2.978  -5.321  0.00  0.00    +0.121 A 
ATOM      8  C   UNL     1      -5.972   3.260  -5.235  0.00  0.00    +0.047 A 
ATOM      9  C   UNL     1      -5.377   3.421  -3.999  0.00  0.00    +0.027 A 
BRANCH   7  10
ATOM     10  O   UNL     1      -7.912   2.819  -6.538  0.00  0.00    -0.492 OA
BRANCH  10  11
ATOM     11  C   UNL     1      -9.312   2.529  -6.552  0.00  0.00    +0.225 C 
ATOM     12  C   UNL     1      -9.788   2.386  -7.999  0.00  0.00    +0.048 C 
ENDBRANCH  10  11
ENDBRANCH   7  10
ENDBRANCH   1   4
BRANCH   1  13
ATOM     13  C   UNL     1      -6.319   3.277  -0.367  0.00  0.00    +0.233 C 
BRANCH  13  14
ATOM     14  C   UNL     1      -6.861   1.871  -0.328  0.00  0.00    +0.135 A 
ATOM     15  C   UNL     1      -6.865   1.060   0.745  0.00  0.00    +0.047 A 
ATOM     16  C   UNL     1      -7.463  -0.155   0.338  0.00  0.00    +0.045 A 
ATOM     17  C   UNL     1      -7.788  -0.013  -0.959  0.00  0.00    +0.102 A 
ATOM     18  O   UNL     1      -7.427   1.218  -1.356  0.00  0.00    -0.462 OA
ATOM     19  C   UNL     1      -8.453  -1.056  -1.820  0.00  0.00    +0.086 C 
ENDBRANCH  13  14
BRANCH  13  21
ATOM     20  N   UNL     1      -8.077   4.562   0.807  0.00  0.00    -0.308 N 
ATOM     21  C   UNL     1      -7.464   4.257  -0.354  0.00  0.00    +0.242 C 
ATOM     22  O   UNL     1      -7.834   4.771  -1.389  0.00  0.00    -0.273 OA
ATOM     23  H   UNL     1      -7.781   4.151   1.634  0.00  0.00    +0.149 HD
BRANCH  20  24
ATOM     24  C   UNL     1      -9.190   5.514   0.819  0.00  0.00    +0.029 C 
ATOM     25  C   UNL     1      -8.710   6.867   0.288  0.00  0.00    +0.031 C 
ATOM     26  C   UNL     1     -10.320   4.990  -0.069  0.00  0.00    +0.031 C 
BRANCH  24  28
ATOM     27  C   UNL     1     -10.864   6.676   2.265  0.00  0.00    +0.006 C 
ATOM     28  C   UNL     1      -9.702   5.682   2.251  0.00  0.00    +0.022 C 
ENDBRANCH  24  28
ENDBRANCH  20  24
ENDBRANCH  13  21
ENDBRANCH   1  13
BRANCH   2  29
ATOM     29  C   UNL     1      -3.611   4.096  -0.165  0.00  0.00    +0.242 C 
BRANCH  29  30
ATOM     30  N   UNL     1      -2.193   4.421  -0.342  0.00  0.00    -0.235 N 
ATOM     31  C   UNL     1      -1.138   3.539  -0.318  0.00  0.00    +0.090 A 
ATOM     32  C   UNL     1      -1.032   2.164  -0.142  0.00  0.00    +0.029 A 
ATOM     33  C   UNL     1       0.198   1.569  -0.168  0.00  0.00    +0.002 A 
ATOM     34  C   UNL     1       1.344   2.324  -0.380  0.00  0.00    +0.002 A 
ATOM     35  C   UNL     1       1.266   3.674  -0.560  0.00  0.00    +0.032 A 
ATOM     36  C   UNL     1       0.018   4.309  -0.533  0.00  0.00    +0.113 A 
ATOM     37  N   UNL     1      -0.366   5.594  -0.675  0.00  0.00    -0.129 NA
ATOM     38  N   UNL     1      -1.645   5.692  -0.570  0.00  0.00    -0.064 NA
ENDBRANCH  29  30
ENDBRANCH   2  29
TORSDOF 10
