REMARK  Name = ZINC13414639
REMARK  9 active torsions:
REMARK  status: ('A' for Active; 'I' for Inactive)
REMARK    1  A    between atoms: C_1  and  O_2
REMARK    2  A    between atoms: O_2  and  C_3
REMARK    3  A    between atoms: C_6  and  C_9
REMARK    4  A    between atoms: C_12  and  S_21
REMARK    5  A    between atoms: N_13  and  C_14
REMARK    6  A    between atoms: C_14  and  C_15
REMARK    7  A    between atoms: S_21  and  C_22
REMARK    8  A    between atoms: C_22  and  C_23
REMARK    9  A    between atoms: C_29  and  C_32
REMARK                            x       y       z     vdW  Elec       q    Type
REMARK                         _______ _______ _______ _____ _____    ______ ____
ROOT
ATOM      1  C   UNL     1       0.034   1.476   0.055  0.00  0.00    +0.165 A 
ATOM      2  N   UNL     1       1.042   2.317   0.021  0.00  0.00    -0.128 NA
ATOM      3  N   UNL     1       0.605   3.525  -0.018  0.00  0.00    -0.122 NA
ATOM      4  C   UNL     1      -0.709   3.530  -0.011  0.00  0.00    +0.192 A 
ATOM      5  N   UNL     1      -1.119   2.228   0.029  0.00  0.00    -0.300 N 
ENDROOT
BRANCH   1   9
ATOM      6  C   UNL     1       0.283  -2.763   0.199  0.00  0.00    +0.120 A 
ATOM      7  C   UNL     1      -0.889  -2.125   0.583  0.00  0.00    +0.046 A 
ATOM      8  C   UNL     1      -0.974  -0.750   0.538  0.00  0.00    +0.015 A 
ATOM      9  C   UNL     1       0.120   0.002   0.105  0.00  0.00    +0.020 A 
ATOM     10  C   UNL     1       1.295  -0.644  -0.286  0.00  0.00    +0.015 A 
ATOM     11  C   UNL     1       1.373  -2.019  -0.232  0.00  0.00    +0.046 A 
BRANCH   6  13
ATOM     12  C   UNL     1       1.597  -4.710  -0.164  0.00  0.00    +0.277 C 
ATOM     13  O   UNL     1       0.363  -4.118   0.245  0.00  0.00    -0.495 OA
ENDBRANCH   6  13
ENDBRANCH   1   9
BRANCH   5  14
ATOM     14  C   UNL     1      -2.498   1.734   0.046  0.00  0.00    +0.157 C 
BRANCH  14  15
ATOM     15  C   UNL     1      -3.001   1.674   1.489  0.00  0.00    +0.138 C 
ATOM     16  C   UNL     1      -4.408   1.038   1.543  0.00  0.00    +0.035 C 
ATOM     17  C   UNL     1      -5.139   1.836   2.646  0.00  0.00    +0.031 C 
ATOM     18  C   UNL     1      -4.087   2.859   3.128  0.00  0.00    +0.160 C 
ATOM     19  O   UNL     1      -3.178   3.007   2.016  0.00  0.00    -0.375 OA
ENDBRANCH  14  15
ENDBRANCH   5  14
BRANCH   4  20
ATOM     20  S   UNL     1      -1.748   4.952  -0.055  0.00  0.00    -0.077 S 
BRANCH  20  21
ATOM     21  C   UNL     1      -0.494   6.257  -0.105  0.00  0.00    +0.173 C 
BRANCH  21  22
ATOM     22  C   UNL     1      -1.171   7.603  -0.147  0.00  0.00    +0.226 C 
ATOM     23  O   UNL     1      -2.382   7.673  -0.144  0.00  0.00    -0.275 OA
ATOM     24  N   UNL     1      -0.431   8.728  -0.189  0.00  0.00    -0.300 N 
ATOM     25  C   UNL     1       1.037   8.659  -0.194  0.00  0.00    +0.108 C 
ATOM     26  C   UNL     1       1.575   9.535   0.942  0.00  0.00    +0.020 C 
ATOM     27  C   UNL     1       1.012  10.951   0.799  0.00  0.00    +0.018 C 
ATOM     28  C   UNL     1      -0.514  10.908   0.905  0.00  0.00    +0.119 C 
ATOM     29  C   UNL     1      -1.076  10.047  -0.237  0.00  0.00    +0.122 C 
BRANCH  28  30
ATOM     30  C   UNL     1      -1.065  12.306   0.797  0.00  0.00    +0.361 C 
ATOM     31  O   UNL     1      -0.315  13.242   0.650  0.00  0.00    -0.246 OA
ATOM     32  O   UNL     1      -2.390  12.512   0.863  0.00  0.00    -0.246 OA
ENDBRANCH  28  30
ENDBRANCH  21  22
ENDBRANCH  20  21
ENDBRANCH   4  20
TORSDOF 8
