REMARK  Name = ZINC22049307
REMARK  12 active torsions:
REMARK  status: ('A' for Active; 'I' for Inactive)
REMARK    1  A    between atoms: C_1  and  C_2
REMARK    2  A    between atoms: C_2  and  C_3
REMARK    3  A    between atoms: C_3  and  C_39
REMARK    4  A    between atoms: C_5  and  O_27
REMARK    5  A    between atoms: C_7  and  C_26
REMARK    6  A    between atoms: C_8  and  C_25
REMARK    7  A    between atoms: C_19  and  C_24
REMARK    8  A    between atoms: C_21  and  O_23
REMARK    9  A    between atoms: O_27  and  C_28
REMARK   10  A    between atoms: C_28  and  C_30
REMARK   11  A    between atoms: C_30  and  S_31
REMARK   12  A    between atoms: S_31  and  C_32
REMARK                            x       y       z     vdW  Elec       q    Type
REMARK                         _______ _______ _______ _____ _____    ______ ____
ROOT
ATOM      1  C   UNL     1      -0.892   2.311  -0.719  0.00  0.00    -0.003 C 
ATOM      2  C   UNL     1       0.109   1.405   0.048  0.00  0.00    +0.054 C 
ATOM      3  C   UNL     1      -0.458   1.217   1.454  0.00  0.00    +0.184 C 
ATOM      4  C   UNL     1       0.612   1.596   2.441  0.00  0.00    +0.018 C 
ATOM      5  C   UNL     1       2.051   1.363   2.010  0.00  0.00    -0.004 C 
ATOM      6  C   UNL     1       2.652   2.496   1.219  0.00  0.00    +0.004 C 
ATOM      7  C   UNL     1       1.826   3.740   0.965  0.00  0.00    +0.008 C 
ATOM      8  C   UNL     1       0.692   4.031   1.882  0.00  0.00    -0.014 C 
ATOM      9  C   UNL     1       0.523   2.945   3.003  0.00  0.00    +0.071 C 
ATOM     10  C   UNL     1      -0.596   3.502   3.815  0.00  0.00    +0.138 C 
ATOM     11  O   UNL     1      -1.545   2.935   4.290  0.00  0.00    -0.297 OA
ATOM     12  C   UNL     1      -0.254   4.997   3.897  0.00  0.00    +0.075 C 
ATOM     13  C   UNL     1       0.907   5.201   2.878  0.00  0.00    +0.015 C 
ATOM     14  C   UNL     1      -0.634   4.274   1.161  0.00  0.00    +0.022 C 
ATOM     15  C   UNL     1      -0.908   3.684  -0.177  0.00  0.00    +0.124 C 
ATOM     16  C   UNL     1      -0.806   5.798   0.916  0.00  0.00    +0.010 C 
ATOM     17  C   UNL     1       2.260   0.008   1.348  0.00  0.00    +0.008 C 
ATOM     18  C   UNL     1       0.409   0.644   3.633  0.00  0.00    +0.016 C 
ATOM     19  C   UNL     1      -0.377   2.414  -2.183  0.00  0.00    +0.014 C 
ENDROOT
BRANCH   1  21
ATOM     20  C   UNL     1      -2.197   0.300  -1.429  0.00  0.00    +0.004 C 
ATOM     21  C   UNL     1      -2.293   1.700  -0.820  0.00  0.00    +0.006 C 
ENDBRANCH   1  21
BRANCH  15  22
ATOM     22  O   UNL     1      -2.212   4.209  -0.548  0.00  0.00    -0.391 OA
ATOM     23  H   UNL     1      -2.494   5.233  -0.263  0.00  0.00    +0.210 HD
ENDBRANCH  15  22
BRANCH   3  24
ATOM     24  O   UNL     1      -1.669   1.947   1.750  0.00  0.00    -0.460 OA
BRANCH  24  25
ATOM     25  C   UNL     1      -2.643   1.279   2.387  0.00  0.00    +0.318 C 
ATOM     26  O   UNL     1      -2.453   0.146   2.762  0.00  0.00    -0.250 OA
BRANCH  25  27
ATOM     27  C   UNL     1      -3.973   1.943   2.636  0.00  0.00    +0.197 C 
BRANCH  27  28
ATOM     28  S   UNL     1      -5.068   0.792   3.511  0.00  0.00    -0.073 S 
BRANCH  28  29
ATOM     29  C   UNL     1      -6.561   1.703   3.724  0.00  0.00    +0.211 A 
ATOM     30  N   UNL     1      -7.698   1.251   4.334  0.00  0.00    -0.188 NA
ATOM     31  H   UNL     1      -8.478   4.278   3.434  0.00  0.00    +0.192 HD
ATOM     32  C   UNL     1      -8.626   2.253   4.292  0.00  0.00    +0.209 A 
ATOM     33  N   UNL     1      -8.087   3.280   3.682  0.00  0.00    -0.246 N 
ATOM     34  N   UNL     1      -6.777   2.933   3.326  0.00  0.00    -0.144 NA
ATOM     35  N   UNL     1      -9.916   2.193   4.805  0.00  0.00    -0.328 N 
ATOM     36  H   UNL     1     -10.584   3.063   4.716  0.00  0.00    +0.145 HD
ATOM     37  H   UNL     1     -10.269   1.277   5.300  0.00  0.00    +0.145 HD
ENDBRANCH  28  29
ENDBRANCH  27  28
ENDBRANCH  25  27
ENDBRANCH  24  25
ENDBRANCH   3  24
TORSDOF 7
