REMARK  Name = ZINC36572820
REMARK  15 active torsions:
REMARK  status: ('A' for Active; 'I' for Inactive)
REMARK    1  A    between atoms: C_1  and  C_2
REMARK    2  A    between atoms: C_2  and  C_3
REMARK    3  A    between atoms: C_3  and  N_4
REMARK    4  A    between atoms: N_4  and  C_5
REMARK    5  A    between atoms: C_5  and  C_7
REMARK    6  A    between atoms: C_5  and  C_16
REMARK    7  A    between atoms: C_8  and  O_15
REMARK    8  A    between atoms: C_10  and  O_14
REMARK    9  A    between atoms: C_12  and  O_13
REMARK   10  A    between atoms: N_18  and  C_19
REMARK   11  A    between atoms: C_19  and  C_20
REMARK   12  A    between atoms: C_19  and  C_21
REMARK   13  A    between atoms: C_19  and  C_22
REMARK   14  A    between atoms: C_23  and  C_25
REMARK   15  A    between atoms: C_25  and  C_26
REMARK                            x       y       z     vdW  Elec       q    Type
REMARK                         _______ _______ _______ _____ _____    ______ ____
ROOT
ATOM      1  C   UNL     1      -0.588  -2.374  -2.201  0.00  0.00    +0.199 C 
ENDROOT
BRANCH   1   2
ATOM      2  C   UNL     1      -1.920  -2.413  -1.497  0.00  0.00    +0.065 A 
ATOM      3  C   UNL     1      -2.803  -3.453  -1.743  0.00  0.00    +0.129 A 
ATOM      4  C   UNL     1      -4.029  -3.489  -1.095  0.00  0.00    +0.091 A 
ATOM      5  C   UNL     1      -4.371  -2.485  -0.202  0.00  0.00    +0.124 A 
ATOM      6  C   UNL     1      -3.487  -1.445   0.044  0.00  0.00    +0.091 A 
ATOM      7  C   UNL     1      -2.260  -1.412  -0.600  0.00  0.00    +0.129 A 
BRANCH   7   8
ATOM      8  O   UNL     1      -1.391  -0.395  -0.355  0.00  0.00    -0.506 OA
ATOM      9  H   UNL     1      -1.434   0.323  -1.002  0.00  0.00    +0.292 HD
ENDBRANCH   7   8
BRANCH   5  10
ATOM     10  O   UNL     1      -5.573  -2.519   0.431  0.00  0.00    -0.507 OA
ATOM     11  H   UNL     1      -5.560  -2.993   1.274  0.00  0.00    +0.292 HD
ENDBRANCH   5  10
BRANCH   3  12
ATOM     12  O   UNL     1      -2.468  -4.437  -2.618  0.00  0.00    -0.506 OA
ATOM     13  H   UNL     1      -2.079  -5.218  -2.202  0.00  0.00    +0.292 HD
ENDBRANCH   3  12
ENDBRANCH   1   2
BRANCH   1  14
ATOM     14  C   UNL     1      -0.766  -1.802  -3.584  0.00  0.00    +0.239 C 
ATOM     15  O   UNL     1       0.120  -1.145  -4.087  0.00  0.00    -0.273 OA
ATOM     16  N   UNL     1      -1.911  -2.022  -4.261  0.00  0.00    -0.309 N 
ATOM     17  H   UNL     1      -2.641  -2.499  -3.837  0.00  0.00    +0.149 HD
BRANCH  16  18
ATOM     18  C   UNL     1      -2.051  -1.540  -5.637  0.00  0.00    +0.026 C 
ATOM     19  C   UNL     1      -0.974  -2.180  -6.515  0.00  0.00    +0.031 C 
ATOM     20  C   UNL     1      -3.435  -1.918  -6.171  0.00  0.00    +0.031 C 
ATOM     21  C   UNL     1      -1.893  -0.018  -5.663  0.00  0.00    +0.031 C 
ENDBRANCH  16  18
ENDBRANCH   1  14
BRANCH   1  22
ATOM     22  N   UNL     1       0.341  -1.534  -1.441  0.00  0.00    -0.285 N 
ATOM     23  C   UNL     1       0.386  -0.205  -1.666  0.00  0.00    +0.221 C 
ATOM     24  O   UNL     1      -0.308   0.287  -2.530  0.00  0.00    -0.275 OA
BRANCH  22  25
ATOM     25  C   UNL     1       1.222  -2.137  -0.438  0.00  0.00    +0.108 C 
BRANCH  25  27
ATOM     26  C   UNL     1       3.535  -2.975  -0.000  0.00  0.00    +0.005 C 
ATOM     27  C   UNL     1       2.574  -2.461  -1.075  0.00  0.00    +0.016 C 
ENDBRANCH  25  27
ENDBRANCH  22  25
BRANCH  23  28
ATOM     28  C   UNL     1       1.299   0.667  -0.844  0.00  0.00    +0.131 C 
BRANCH  28  29
ATOM     29  C   UNL     1       1.160   2.100  -1.290  0.00  0.00    -0.035 A 
ATOM     30  C   UNL     1       1.970   2.590  -2.298  0.00  0.00    +0.008 A 
ATOM     31  C   UNL     1       1.847   3.903  -2.712  0.00  0.00    +0.050 A 
ATOM     32  C   UNL     1       0.911   4.732  -2.116  0.00  0.00    +0.166 A 
ATOM     33  C   UNL     1       0.095   4.239  -1.101  0.00  0.00    +0.166 A 
ATOM     34  C   UNL     1       0.220   2.920  -0.696  0.00  0.00    +0.053 A 
ATOM     35  O   UNL     1      -0.734   5.240  -0.683  0.00  0.00    -0.453 OA
ATOM     36  C   UNL     1      -0.140   6.459  -1.167  0.00  0.00    +0.466 C 
ATOM     37  O   UNL     1       0.593   6.042  -2.334  0.00  0.00    -0.453 OA
ENDBRANCH  28  29
ENDBRANCH  23  28
ENDBRANCH   1  22
TORSDOF 11
