REMARK  Name = ZINC39681330
REMARK  9 active torsions:
REMARK  status: ('A' for Active; 'I' for Inactive)
REMARK    1  A    between atoms: C_1  and  C_2
REMARK    2  A    between atoms: C_2  and  C_3
REMARK    3  A    between atoms: C_3  and  C_5
REMARK    4  A    between atoms: C_3  and  C_11
REMARK    5  A    between atoms: C_15  and  C_24
REMARK    6  A    between atoms: N_26  and  C_27
REMARK    7  A    between atoms: C_27  and  C_28
REMARK    8  A    between atoms: C_28  and  O_29
REMARK    9  A    between atoms: O_29  and  C_30
REMARK                            x       y       z     vdW  Elec       q    Type
REMARK                         _______ _______ _______ _____ _____    ______ ____
ROOT
ATOM      1  C   UNL     1      -2.051  -0.057  -1.024  0.00  0.00    +0.223 C 
ATOM      2  O   UNL     1      -2.677  -0.872  -1.667  0.00  0.00    -0.275 OA
ATOM      3  N   UNL     1      -2.101   1.248  -1.359  0.00  0.00    -0.300 N 
ATOM      4  C   UNL     1      -1.482   2.392  -0.650  0.00  0.00    +0.121 C 
ATOM      5  C   UNL     1      -0.963   3.315  -1.775  0.00  0.00    +0.100 C 
ATOM      6  C   UNL     1      -1.824   2.963  -3.000  0.00  0.00    -0.004 C 
ATOM      7  C   UNL     1      -2.782   1.861  -2.525  0.00  0.00    +0.115 C 
ATOM      8  C   UNL     1      -0.945   2.438  -4.131  0.00  0.00    -0.010 C 
ATOM      9  C   UNL     1      -1.817   2.150  -5.356  0.00  0.00    -0.082 C 
ATOM     10  N   UNL     1      -2.501   3.380  -5.772  0.00  0.00    +0.379 N 
ATOM     11  C   UNL     1      -3.415   3.827  -4.714  0.00  0.00    -0.082 C 
ATOM     12  C   UNL     1      -2.611   4.186  -3.461  0.00  0.00    -0.010 C 
ATOM     13  H   UNL     1      -1.818   4.100  -5.951  0.00  0.00    -0.086 HD
ATOM     14  H   UNL     1      -3.027   3.202  -6.615  0.00  0.00    -0.086 HD
ENDROOT
BRANCH   5  15
ATOM     15  C   UNL     1      -1.150   4.761  -1.397  0.00  0.00    +0.218 C 
ATOM     16  O   UNL     1      -2.047   5.080  -0.644  0.00  0.00    -0.275 OA
ATOM     17  N   UNL     1      -0.322   5.701  -1.894  0.00  0.00    -0.312 N 
ATOM     18  H   UNL     1       0.395   5.446  -2.495  0.00  0.00    +0.149 HD
BRANCH  17  19
ATOM     19  C   UNL     1      -0.504   7.107  -1.526  0.00  0.00    +0.145 C 
BRANCH  19  20
ATOM     20  C   UNL     1       0.560   7.958  -2.221  0.00  0.00    +0.248 C 
BRANCH  20  21
ATOM     21  O   UNL     1       0.360   7.909  -3.635  0.00  0.00    -0.489 OA
BRANCH  21  22
ATOM     22  C   UNL     1       1.227   8.617  -4.406  0.00  0.00    +0.139 A 
ATOM     23  C   UNL     1       2.252   9.340  -3.814  0.00  0.00    +0.047 A 
ATOM     24  C   UNL     1       3.133  10.059  -4.600  0.00  0.00    +0.004 A 
ATOM     25  C   UNL     1       2.993  10.058  -5.976  0.00  0.00    +0.002 A 
ATOM     26  C   UNL     1       1.972   9.339  -6.569  0.00  0.00    +0.023 A 
ATOM     27  C   UNL     1       1.092   8.614  -5.788  0.00  0.00    +0.083 A 
ATOM     28 CL   UNL     1      -0.186   7.705  -6.533  0.00  0.00    -0.080 Cl
ENDBRANCH  21  22
ENDBRANCH  20  21
ENDBRANCH  19  20
ENDBRANCH  17  19
ENDBRANCH   5  15
BRANCH   1  29
ATOM     29  C   UNL     1      -1.217  -0.501   0.149  0.00  0.00    +0.105 C 
BRANCH  29  30
ATOM     30  C   UNL     1      -2.074  -0.539   1.389  0.00  0.00    -0.036 A 
ATOM     31  C   UNL     1      -3.181  -1.366   1.439  0.00  0.00    +0.004 A 
ATOM     32  C   UNL     1      -3.967  -1.401   2.575  0.00  0.00    +0.000 A 
ATOM     33  C   UNL     1      -3.645  -0.609   3.662  0.00  0.00    +0.000 A 
ATOM     34  C   UNL     1      -2.538   0.217   3.612  0.00  0.00    +0.000 A 
ATOM     35  C   UNL     1      -1.750   0.248   2.477  0.00  0.00    +0.004 A 
ENDBRANCH  29  30
BRANCH  29  37
ATOM     36  C   UNL     1       0.326  -1.831  -1.297  0.00  0.00    +0.005 C 
ATOM     37  C   UNL     1      -0.655  -1.898  -0.125  0.00  0.00    +0.014 C 
ENDBRANCH  29  37
ENDBRANCH   1  29
TORSDOF 8
