REMARK  Name = ZINC23393118
REMARK  6 active torsions:
REMARK  status: ('A' for Active; 'I' for Inactive)
REMARK    1  A    between atoms: C_1  and  C_2
REMARK    2  A    between atoms: C_2  and  C_4
REMARK    3  A    between atoms: C_2  and  S_16
REMARK    4  A    between atoms: C_10  and  C_13
REMARK    5  A    between atoms: S_16  and  C_17
REMARK    6  A    between atoms: N_22  and  C_23
REMARK                            x       y       z     vdW  Elec       q    Type
REMARK                         _______ _______ _______ _____ _____    ______ ____
ROOT
ATOM      1  C   UNL     1       3.053   4.238  -1.312  0.00  0.00    +0.029 C 
ATOM      2  C   UNL     1       3.734   3.800  -0.013  0.00  0.00    +0.136 C 
ENDROOT
BRANCH   2   3
ATOM      3  C   UNL     1       5.077   4.474   0.101  0.00  0.00    +0.229 C 
ATOM      4  O   UNL     1       6.077   3.901  -0.277  0.00  0.00    -0.274 OA
ATOM      5  N   UNL     1       5.167   5.713   0.623  0.00  0.00    -0.300 N 
ATOM      6  C   UNL     1       3.964   6.423   1.079  0.00  0.00    +0.108 C 
ATOM      7  C   UNL     1       4.184   6.874   2.531  0.00  0.00    +0.020 C 
ATOM      8  C   UNL     1       5.470   7.700   2.613  0.00  0.00    +0.016 C 
ATOM      9  C   UNL     1       6.661   6.837   2.191  0.00  0.00    +0.092 C 
ATOM     10  C   UNL     1       6.470   6.383   0.741  0.00  0.00    +0.120 C 
BRANCH   9  11
ATOM     11  C   UNL     1       7.930   7.642   2.303  0.00  0.00    +0.215 C 
ATOM     12  O   UNL     1       8.615   7.834   1.321  0.00  0.00    -0.276 OA
ATOM     13  N   UNL     1       8.305   8.148   3.495  0.00  0.00    -0.329 N 
ATOM     14  H   UNL     1       9.231   8.735   3.576  0.00  0.00    +0.145 HD
ATOM     15  H   UNL     1       7.684   7.973   4.386  0.00  0.00    +0.145 HD
ENDBRANCH   9  11
ENDBRANCH   2   3
BRANCH   2  16
ATOM     16  S   UNL     1       3.959   2.000  -0.025  0.00  0.00    -0.084 S 
BRANCH  16  17
ATOM     17  C   UNL     1       2.316   1.365  -0.013  0.00  0.00    +0.161 A 
ATOM     18  N   UNL     1       1.168   2.015   0.002  0.00  0.00    -0.133 NA
ATOM     19  N   UNL     1      -0.016   1.314   0.009  0.00  0.00    -0.125 NA
ATOM     20  C   UNL     1       0.002  -0.004   0.002  0.00  0.00    +0.183 A 
ATOM     21  S   UNL     1       1.758  -0.332  -0.017  0.00  0.00    -0.025 S 
ATOM     22  N   UNL     1      -1.061  -0.899   0.008  0.00  0.00    -0.319 N 
ATOM     23  H   UNL     1      -0.868  -1.982   0.001  0.00  0.00    +0.148 HD
BRANCH  22  24
ATOM     24  C   UNL     1      -2.439  -0.401   0.024  0.00  0.00    +0.072 C 
ATOM     25  C   UNL     1      -2.861  -0.116   1.467  0.00  0.00    +0.022 C 
ATOM     26  C   UNL     1      -4.300   0.405   1.484  0.00  0.00    +0.002 C 
ATOM     27  C   UNL     1      -5.230  -0.648   0.878  0.00  0.00    +0.000 C 
ATOM     28  C   UNL     1      -4.808  -0.933  -0.565  0.00  0.00    +0.002 C 
ATOM     29  C   UNL     1      -3.369  -1.453  -0.582  0.00  0.00    +0.022 C 
ENDBRANCH  22  24
ENDBRANCH  16  17
ENDBRANCH   2  16
TORSDOF 5
