REMARK  Name = ZINC38549566
REMARK  10 active torsions:
REMARK  status: ('A' for Active; 'I' for Inactive)
REMARK    1  A    between atoms: C_1  and  C_2
REMARK    2  A    between atoms: C_2  and  C_3
REMARK    3  A    between atoms: C_3  and  C_4
REMARK    4  A    between atoms: C_6  and  C_16
REMARK    5  A    between atoms: C_7  and  O_15
REMARK    6  A    between atoms: C_9  and  O_10
REMARK    7  A    between atoms: O_10  and  C_11
REMARK    8  A    between atoms: C_11  and  C_12
REMARK    9  A    between atoms: C_18  and  C_23
REMARK   10  A    between atoms: C_19  and  C_22
REMARK                            x       y       z     vdW  Elec       q    Type
REMARK                         _______ _______ _______ _____ _____    ______ ____
ROOT
ATOM      1  C   UNL     1       3.055  -4.801  -0.232  0.00  0.00    +0.164 C 
ATOM      2  C   UNL     1       2.812  -5.241   1.202  0.00  0.00    +0.011 C 
ATOM      3  C   UNL     1       3.772  -4.590   1.901  0.00  0.00    +0.064 C 
ATOM      4  N   UNL     1       4.527  -3.846   1.085  0.00  0.00    -0.182 NA
ATOM      5  N   UNL     1       4.212  -3.897  -0.110  0.00  0.00    -0.297 N 
ATOM      6  C   UNL     1       3.964  -4.691   3.393  0.00  0.00    +0.068 C 
ATOM      7  H   UNL     1       4.646  -3.426  -0.838  0.00  0.00    +0.183 HD
ENDROOT
BRANCH   2   8
ATOM      8  C   UNL     1       1.779  -6.156   1.709  0.00  0.00    -0.014 A 
ATOM      9  C   UNL     1       1.790  -7.504   1.336  0.00  0.00    +0.012 A 
ATOM     10  C   UNL     1       0.820  -8.357   1.813  0.00  0.00    +0.050 A 
ATOM     11  C   UNL     1      -0.172  -7.886   2.665  0.00  0.00    +0.162 A 
ATOM     12  C   UNL     1      -0.188  -6.545   3.043  0.00  0.00    +0.163 A 
ATOM     13  C   UNL     1       0.784  -5.683   2.572  0.00  0.00    +0.057 A 
ATOM     14  O   UNL     1      -1.149  -6.070   3.882  0.00  0.00    -0.485 OA
ATOM     15  C   UNL     1      -2.320  -6.878   4.043  0.00  0.00    +0.270 C 
ATOM     16  C   UNL     1      -1.875  -8.330   4.263  0.00  0.00    +0.270 C 
ATOM     17  O   UNL     1      -1.122  -8.747   3.119  0.00  0.00    -0.485 OA
ENDBRANCH   2   8
BRANCH   1  20
ATOM     18  C   UNL     1       0.739  -2.004  -1.265  0.00  0.00    -0.005 A 
ATOM     19  C   UNL     1       1.835  -2.683  -0.768  0.00  0.00    +0.016 A 
ATOM     20  C   UNL     1       1.857  -4.064  -0.774  0.00  0.00    +0.023 A 
ATOM     21  C   UNL     1       0.777  -4.774  -1.280  0.00  0.00    +0.126 A 
ATOM     22  C   UNL     1      -0.324  -4.096  -1.779  0.00  0.00    +0.091 A 
ATOM     23  C   UNL     1      -0.346  -2.709  -1.766  0.00  0.00    +0.128 A 
BRANCH  21  24
ATOM     24  O   UNL     1       0.799  -6.133  -1.286  0.00  0.00    -0.506 OA
ATOM     25  H   UNL     1       0.436  -6.536  -0.486  0.00  0.00    +0.292 HD
ENDBRANCH  21  24
BRANCH  18  26
ATOM     26  C   UNL     1       0.718  -0.497  -1.257  0.00  0.00    +0.038 C 
BRANCH  26  28
ATOM     27  C   UNL     1      -0.019   1.526   0.010  0.00  0.00    +0.004 C 
ATOM     28  C   UNL     1       0.002  -0.004   0.002  0.00  0.00    +0.001 C 
ENDBRANCH  26  28
ENDBRANCH  18  26
BRANCH  23  29
ATOM     29  O   UNL     1      -1.427  -2.042  -2.250  0.00  0.00    -0.480 OA
BRANCH  29  30
ATOM     30  C   UNL     1      -2.507  -2.832  -2.750  0.00  0.00    +0.353 C 
BRANCH  30  31
ATOM     31  C   UNL     1      -3.607  -1.926  -3.239  0.00  0.00    +0.393 C 
ATOM     32  O   UNL     1      -3.479  -0.716  -3.166  0.00  0.00    -0.243 OA
ATOM     33  O   UNL     1      -4.627  -2.404  -3.708  0.00  0.00    -0.243 OA
ENDBRANCH  30  31
ENDBRANCH  29  30
ENDBRANCH  23  29
ENDBRANCH   1  20
TORSDOF 8
