REMARK  Name = ZINC39685796
REMARK  11 active torsions:
REMARK  status: ('A' for Active; 'I' for Inactive)
REMARK    1  A    between atoms: C_1  and  C_2
REMARK    2  A    between atoms: C_2  and  C_3
REMARK    3  A    between atoms: C_2  and  C_4
REMARK    4  A    between atoms: C_4  and  C_6
REMARK    5  A    between atoms: C_4  and  N_13
REMARK    6  A    between atoms: N_8  and  C_9
REMARK    7  A    between atoms: C_9  and  C_10
REMARK    8  A    between atoms: C_9  and  C_11
REMARK    9  A    between atoms: C_9  and  C_12
REMARK   10  A    between atoms: C_14  and  C_16
REMARK   11  A    between atoms: C_27  and  C_29
REMARK                            x       y       z     vdW  Elec       q    Type
REMARK                         _______ _______ _______ _____ _____    ______ ____
ROOT
ATOM      1  C   UNL     1      -0.080  -4.061   1.529  0.00  0.00    +0.100 C 
ATOM      2  C   UNL     1      -1.447  -4.474   0.938  0.00  0.00    +0.121 C 
ATOM      3  N   UNL     1      -1.987  -5.463   1.901  0.00  0.00    -0.296 N 
ATOM      4  C   UNL     1      -1.614  -4.925   3.231  0.00  0.00    +0.115 C 
ATOM      5  C   UNL     1      -0.194  -4.358   3.033  0.00  0.00    -0.004 C 
ATOM      6  C   UNL     1      -0.023  -3.074   3.839  0.00  0.00    -0.010 C 
ATOM      7  C   UNL     1      -0.082  -3.403   5.334  0.00  0.00    -0.082 C 
ATOM      8  N   UNL     1       0.980  -4.360   5.668  0.00  0.00    +0.379 N 
ATOM      9  C   UNL     1       0.754  -5.625   4.960  0.00  0.00    -0.082 C 
ATOM     10  C   UNL     1       0.849  -5.390   3.449  0.00  0.00    -0.010 C 
ATOM     11  C   UNL     1      -2.665  -6.596   1.628  0.00  0.00    +0.248 C 
ATOM     12  O   UNL     1      -3.116  -7.267   2.535  0.00  0.00    -0.270 OA
ATOM     13  H   UNL     1       1.873  -3.978   5.397  0.00  0.00    -0.086 HD
ATOM     14  H   UNL     1       0.978  -4.528   6.663  0.00  0.00    -0.086 HD
ENDROOT
BRANCH  11  15
ATOM     15  C   UNL     1      -2.859  -7.021   0.227  0.00  0.00    +0.057 A 
ATOM     16  C   UNL     1      -3.107  -6.072  -0.767  0.00  0.00    +0.014 A 
ATOM     17  C   UNL     1      -3.288  -6.475  -2.073  0.00  0.00    +0.002 A 
ATOM     18  C   UNL     1      -3.224  -7.818  -2.402  0.00  0.00    +0.021 A 
ATOM     19  C   UNL     1      -2.979  -8.766  -1.424  0.00  0.00    +0.060 A 
ATOM     20  C   UNL     1      -2.790  -8.375  -0.112  0.00  0.00    +0.071 A 
ATOM     21 CL   UNL     1      -2.475  -9.563   1.114  0.00  0.00    -0.081 Cl
ATOM     22 CL   UNL     1      -2.902 -10.448  -1.847  0.00  0.00    -0.082 Cl
ENDBRANCH  11  15
BRANCH   1  24
ATOM     23  N   UNL     1      -0.766  -1.688   1.655  0.00  0.00    -0.303 N 
ATOM     24  C   UNL     1       0.168  -2.593   1.300  0.00  0.00    +0.219 C 
ATOM     25  O   UNL     1       1.209  -2.224   0.798  0.00  0.00    -0.275 OA
ATOM     26  H   UNL     1      -1.564  -1.974   2.126  0.00  0.00    +0.149 HD
BRANCH  23  27
ATOM     27  C   UNL     1      -0.576  -0.273   1.329  0.00  0.00    +0.161 C 
BRANCH  27  28
ATOM     28  C   UNL     1      -1.358   0.575   2.299  0.00  0.00    +0.234 C 
ATOM     29  O   UNL     1      -2.170   0.059   3.038  0.00  0.00    -0.274 OA
ATOM     30  N   UNL     1      -1.156   1.907   2.345  0.00  0.00    -0.309 N 
ATOM     31  H   UNL     1      -0.461   2.311   1.802  0.00  0.00    +0.149 HD
BRANCH  30  32
ATOM     32  C   UNL     1      -1.986   2.744   3.214  0.00  0.00    +0.026 C 
ATOM     33  C   UNL     1      -1.818   2.295   4.667  0.00  0.00    +0.031 C 
ATOM     34  C   UNL     1      -1.554   4.206   3.079  0.00  0.00    +0.031 C 
ATOM     35  C   UNL     1      -3.454   2.607   2.805  0.00  0.00    +0.031 C 
ENDBRANCH  30  32
ENDBRANCH  27  28
BRANCH  27  37
ATOM     36  C   UNL     1      -0.172  -0.743  -1.091  0.00  0.00    +0.009 C 
ATOM     37  C   UNL     1      -1.069  -0.006  -0.094  0.00  0.00    +0.012 C 
ATOM     38  C   UNL     1      -2.508  -0.505  -0.238  0.00  0.00    +0.009 C 
ENDBRANCH  27  37
ENDBRANCH  23  27
ENDBRANCH   1  24
TORSDOF 6
