REMARK  Name = ZINC59040260
REMARK  5 active torsions:
REMARK  status: ('A' for Active; 'I' for Inactive)
REMARK    1  A    between atoms: C_4  and  N_8
REMARK    2  A    between atoms: C_9  and  C_11
REMARK    3  A    between atoms: C_11  and  S_12
REMARK    4  A    between atoms: S_12  and  C_13
REMARK    5  A    between atoms: N_18  and  N_19
REMARK                            x       y       z     vdW  Elec       q    Type
REMARK                         _______ _______ _______ _____ _____    ______ ____
ROOT
ATOM      1  C   UNL     1       6.278  -5.206   0.374  0.00  0.00    +0.211 A 
ATOM      2  N   UNL     1       6.556  -6.511   0.468  0.00  0.00    -0.186 NA
ATOM      3  C   UNL     1       7.860  -6.683   0.524  0.00  0.00    +0.232 A 
ATOM      4  N   UNL     1       8.444  -5.468   0.466  0.00  0.00    -0.245 N 
ATOM      5  N   UNL     1       7.403  -4.531   0.364  0.00  0.00    -0.144 NA
ATOM      6  N   UNL     1       8.516  -7.897   0.627  0.00  0.00    -0.205 N 
ATOM      7  H   UNL     1       9.485  -7.923   0.662  0.00  0.00    +0.177 HD
ATOM      8  H   UNL     1       9.395  -5.279   0.487  0.00  0.00    +0.192 HD
ENDROOT
BRANCH   6   9
ATOM      9  N   UNL     1       7.781  -9.088   0.679  0.00  0.00    -0.189 NA
ATOM     10  C   UNL     1       8.382 -10.203   0.870  0.00  0.00    +0.037 C 
ATOM     11  C   UNL     1       9.891 -10.269   0.938  0.00  0.00    +0.052 C 
ATOM     12  C   UNL     1      10.289 -11.016   2.215  0.00  0.00    +0.006 C 
ATOM     13  C   UNL     1       9.597 -12.380   2.243  0.00  0.00    +0.001 C 
ATOM     14  C   UNL     1       8.081 -12.190   2.309  0.00  0.00    +0.006 C 
ATOM     15  C   UNL     1       7.599 -11.486   1.041  0.00  0.00    +0.052 C 
ENDBRANCH   6   9
BRANCH   1  16
ATOM     16  S   UNL     1       4.664  -4.508   0.272  0.00  0.00    -0.075 S 
BRANCH  16  17
ATOM     17  C   UNL     1       4.964  -2.722   0.158  0.00  0.00    +0.173 C 
BRANCH  17  19
ATOM     18  N   UNL     1       3.624  -0.652  -0.030  0.00  0.00    -0.282 N 
ATOM     19  C   UNL     1       3.647  -1.996   0.064  0.00  0.00    +0.228 C 
ATOM     20  O   UNL     1       2.608  -2.622   0.073  0.00  0.00    -0.275 OA
ATOM     21  H   UNL     1       4.454  -0.158  -0.118  0.00  0.00    +0.155 HD
BRANCH  18  25
ATOM     22  C   UNL     1      -0.015   1.383   0.055  0.00  0.00    +0.041 A 
ATOM     23  C   UNL     1       1.082   1.957  -0.560  0.00  0.00    +0.043 A 
ATOM     24  C   UNL     1       2.290   1.286  -0.590  0.00  0.00    +0.145 A 
ATOM     25  C   UNL     1       2.402   0.031  -0.001  0.00  0.00    +0.072 A 
ATOM     26  C   UNL     1       1.300  -0.543   0.616  0.00  0.00    +0.064 A 
ATOM     27  C   UNL     1       0.093   0.134   0.643  0.00  0.00    +0.125 A 
ATOM     28  F   UNL     1      -0.981  -0.424   1.244  0.00  0.00    -0.205 F 
ATOM     29  F   UNL     1       3.361   1.847  -1.192  0.00  0.00    -0.204 F 
ENDBRANCH  18  25
ENDBRANCH  17  19
ENDBRANCH  16  17
ENDBRANCH   1  16
TORSDOF 5
