REMARK  Name = ZINC39744508
REMARK  12 active torsions:
REMARK  status: ('A' for Active; 'I' for Inactive)
REMARK    1  A    between atoms: C_1  and  C_2
REMARK    2  A    between atoms: C_2  and  N_3
REMARK    3  A    between atoms: C_4  and  CA_21
REMARK    4  A    between atoms: C_7  and  S_8
REMARK    5  A    between atoms: S_8  and  C_9
REMARK    6  A    between atoms: C_9  and  C_10
REMARK    7  A    between atoms: N_12  and  C_13
REMARK    8  A    between atoms: C_13  and  C_14
REMARK    9  A    between atoms: CA_21  and  C_23
REMARK   10  A    between atoms: CA_21  and  N_25
REMARK   11  A    between atoms: C_23  and  O_24
REMARK   12  A    between atoms: C_26  and  C_28
REMARK                            x       y       z     vdW  Elec       q    Type
REMARK                         _______ _______ _______ _____ _____    ______ ____
ROOT
ATOM      1  N   UNL     1       0.688  -0.476  -1.203  0.00  0.00    -0.305 N 
ATOM      2  C   UNL     1       0.126  -0.748  -2.420  0.00  0.00    +0.157 A 
ATOM      3  N   UNL     1       1.084  -1.140  -3.211  0.00  0.00    -0.131 NA
ATOM      4  N   UNL     1       2.205  -1.136  -2.582  0.00  0.00    -0.122 NA
ATOM      5  C   UNL     1       2.021  -0.732  -1.347  0.00  0.00    +0.192 A 
ENDROOT
BRANCH   1   7
ATOM      6  C   UNL     1      -0.019   1.526   0.010  0.00  0.00    +0.027 C 
ATOM      7  C   UNL     1       0.002  -0.004   0.002  0.00  0.00    +0.122 C 
ENDBRANCH   1   7
BRANCH   5   8
ATOM      8  S   UNL     1       3.261  -0.556  -0.107  0.00  0.00    -0.077 S 
BRANCH   8   9
ATOM      9  C   UNL     1       4.792  -1.052  -0.943  0.00  0.00    +0.173 C 
BRANCH   9  10
ATOM     10  C   UNL     1       5.947  -0.946   0.019  0.00  0.00    +0.224 C 
ATOM     11  O   UNL     1       5.756  -0.573   1.157  0.00  0.00    -0.275 OA
ATOM     12  N   UNL     1       7.192  -1.266  -0.386  0.00  0.00    -0.310 N 
ATOM     13  H   UNL     1       7.345  -1.565  -1.296  0.00  0.00    +0.149 HD
BRANCH  12  14
ATOM     14  C   UNL     1       8.315  -1.163   0.550  0.00  0.00    +0.141 C 
BRANCH  14  15
ATOM     15  C   UNL     1       9.587  -1.575  -0.145  0.00  0.00    -0.012 A 
ATOM     16  C   UNL     1      10.097  -2.847   0.042  0.00  0.00    +0.006 A 
ATOM     17  C   UNL     1      11.264  -3.225  -0.596  0.00  0.00    +0.000 A 
ATOM     18  C   UNL     1      11.922  -2.332  -1.421  0.00  0.00    +0.001 A 
ATOM     19  C   UNL     1      11.413  -1.060  -1.609  0.00  0.00    +0.020 A 
ATOM     20  C   UNL     1      10.242  -0.683  -0.976  0.00  0.00    +0.046 A 
ATOM     21 CL   UNL     1       9.599   0.911  -1.216  0.00  0.00    -0.083 Cl
ENDBRANCH  14  15
ENDBRANCH  12  14
ENDBRANCH   9  10
ENDBRANCH   8   9
ENDBRANCH   5   8
BRANCH   2  22
ATOM     22  CA  UNL     1      -1.332  -0.617  -2.780  0.00  0.00    +0.167 C 
BRANCH  22  23
ATOM     23  N   UNL     1      -1.758  -1.802  -3.529  0.00  0.00    -0.299 N 
ATOM     24  C   UNL     1      -3.055  -2.169  -3.527  0.00  0.00    +0.245 C 
ATOM     25  O   UNL     1      -3.870  -1.517  -2.905  0.00  0.00    -0.270 OA
ATOM     26  H   UNL     1      -1.107  -2.322  -4.025  0.00  0.00    +0.150 HD
BRANCH  24  27
ATOM     27  C   UNL     1      -3.485  -3.364  -4.282  0.00  0.00    +0.037 A 
ATOM     28  C   UNL     1      -2.550  -4.118  -4.993  0.00  0.00    +0.014 A 
ATOM     29  C   UNL     1      -2.957  -5.233  -5.696  0.00  0.00    +0.021 A 
ATOM     30  C   UNL     1      -4.291  -5.605  -5.697  0.00  0.00    +0.041 A 
ATOM     31  C   UNL     1      -5.224  -4.861  -4.993  0.00  0.00    +0.021 A 
ATOM     32  C   UNL     1      -4.828  -3.747  -4.283  0.00  0.00    +0.014 A 
ATOM     33 CL   UNL     1      -4.797  -7.008  -6.584  0.00  0.00    -0.084 Cl
ENDBRANCH  24  27
ENDBRANCH  22  23
BRANCH  22  34
ATOM     34  C   UNL     1      -1.534   0.631  -3.642  0.00  0.00    +0.186 C 
BRANCH  34  35
ATOM     35  O   UNL     1      -0.670   0.571  -4.778  0.00  0.00    -0.393 OA
ATOM     36  H   UNL     1      -0.745   1.331  -5.371  0.00  0.00    +0.209 HD
ENDBRANCH  34  35
ENDBRANCH  22  34
ENDBRANCH   2  22
TORSDOF 11
