REMARK  Name = ZINC39676292
REMARK  7 active torsions:
REMARK  status: ('A' for Active; 'I' for Inactive)
REMARK    1  A    between atoms: C_4  and  C_7
REMARK    2  A    between atoms: C_7  and  C_8
REMARK    3  A    between atoms: C_8  and  C_9
REMARK    4  A    between atoms: C_9  and  C_10
REMARK    5  A    between atoms: C_14  and  C_23
REMARK    6  A    between atoms: N_25  and  C_26
REMARK    7  A    between atoms: C_26  and  C_27
REMARK                            x       y       z     vdW  Elec       q    Type
REMARK                         _______ _______ _______ _____ _____    ______ ____
ROOT
ATOM      1  C   UNL     1       5.961  -2.003   2.956  0.00  0.00    +0.216 C 
ATOM      2  O   UNL     1       5.331  -1.587   3.905  0.00  0.00    -0.276 OA
ATOM      3  N   UNL     1       7.142  -2.623   3.151  0.00  0.00    -0.300 N 
ATOM      4  C   UNL     1       8.051  -3.188   2.126  0.00  0.00    +0.121 C 
ATOM      5  C   UNL     1       9.470  -2.836   2.626  0.00  0.00    +0.100 C 
ATOM      6  C   UNL     1       9.315  -2.646   4.144  0.00  0.00    -0.004 C 
ATOM      7  C   UNL     1       7.828  -2.889   4.438  0.00  0.00    +0.115 C 
ATOM      8  C   UNL     1      10.175  -3.659   4.893  0.00  0.00    -0.010 C 
ATOM      9  C   UNL     1      10.050  -3.413   6.399  0.00  0.00    -0.082 C 
ATOM     10  N   UNL     1      10.485  -2.046   6.712  0.00  0.00    +0.379 N 
ATOM     11  C   UNL     1       9.595  -1.077   6.061  0.00  0.00    -0.082 C 
ATOM     12  C   UNL     1       9.701  -1.224   4.540  0.00  0.00    -0.010 C 
ATOM     13  H   UNL     1      10.459  -1.906   7.711  0.00  0.00    -0.086 HD
ATOM     14  H   UNL     1      11.428  -1.910   6.380  0.00  0.00    -0.086 HD
ENDROOT
BRANCH   5  15
ATOM     15  C   UNL     1      10.425  -3.963   2.330  0.00  0.00    +0.219 C 
ATOM     16  O   UNL     1      10.025  -5.107   2.307  0.00  0.00    -0.275 OA
ATOM     17  N   UNL     1      11.725  -3.699   2.090  0.00  0.00    -0.308 N 
ATOM     18  H   UNL     1      12.046  -2.784   2.108  0.00  0.00    +0.149 HD
BRANCH  17  19
ATOM     19  C   UNL     1      12.654  -4.795   1.803  0.00  0.00    +0.178 C 
BRANCH  19  20
ATOM     20  C   UNL     1      14.035  -4.236   1.574  0.00  0.00    +0.128 A 
ATOM     21  N   UNL     1      15.041  -5.102   1.286  0.00  0.00    -0.309 N 
ATOM     22  H   UNL     1      14.856  -6.053   1.233  0.00  0.00    +0.170 HD
ATOM     23  C   UNL     1      16.299  -4.651   1.071  0.00  0.00    +0.259 A 
ATOM     24  O   UNL     1      17.210  -5.415   0.812  0.00  0.00    -0.267 OA
ATOM     25  C   UNL     1      16.522  -3.200   1.163  0.00  0.00    +0.065 A 
ATOM     26  C   UNL     1      17.779  -2.634   0.960  0.00  0.00    +0.015 A 
ATOM     27  C   UNL     1      17.931  -1.268   1.059  0.00  0.00    +0.001 A 
ATOM     28  C   UNL     1      16.845  -0.456   1.359  0.00  0.00    +0.002 A 
ATOM     29  C   UNL     1      15.596  -0.996   1.563  0.00  0.00    +0.028 A 
ATOM     30  C   UNL     1      15.415  -2.377   1.468  0.00  0.00    +0.078 A 
ATOM     31  N   UNL     1      14.201  -2.951   1.657  0.00  0.00    -0.232 NA
ENDBRANCH  19  20
ENDBRANCH  17  19
ENDBRANCH   5  15
BRANCH   1  32
ATOM     32  C   UNL     1       5.424  -1.827   1.559  0.00  0.00    +0.096 C 
BRANCH  32  33
ATOM     33  C   UNL     1       4.080  -1.098   1.618  0.00  0.00    +0.014 C 
BRANCH  33  34
ATOM     34  C   UNL     1       3.535  -0.919   0.200  0.00  0.00    +0.035 C 
BRANCH  34  38
ATOM     35  C   UNL     1      -0.218   1.115   0.361  0.00  0.00    +0.000 A 
ATOM     36  C   UNL     1       0.955   1.837   0.251  0.00  0.00    +0.000 A 
ATOM     37  C   UNL     1       2.170   1.179   0.199  0.00  0.00    +0.003 A 
ATOM     38  C   UNL     1       2.211  -0.201   0.258  0.00  0.00    -0.047 A 
ATOM     39  C   UNL     1       1.037  -0.924   0.369  0.00  0.00    +0.003 A 
ATOM     40  C   UNL     1      -0.177  -0.266   0.419  0.00  0.00    +0.000 A 
ENDBRANCH  34  38
ENDBRANCH  33  34
ENDBRANCH  32  33
ENDBRANCH   1  32
TORSDOF 7
