REMARK  Name = ZINC64609883
REMARK  7 active torsions:
REMARK  status: ('A' for Active; 'I' for Inactive)
REMARK    1  A    between atoms: C_1  and  C_2
REMARK    2  A    between atoms: C_9  and  C_28
REMARK    3  A    between atoms: C_11  and  C_13
REMARK    4  A    between atoms: C_13  and  N_14
REMARK    5  A    between atoms: N_14  and  C_15
REMARK    6  A    between atoms: N_14  and  C_16
REMARK    7  A    between atoms: C_16  and  C_17
REMARK                            x       y       z     vdW  Elec       q    Type
REMARK                         _______ _______ _______ _____ _____    ______ ____
ROOT
ATOM      1  C   UNL     1      -0.213   1.591   0.095  0.00  0.00    +0.047 C 
ATOM      2  C   UNL     1      -0.168   0.086   0.036  0.00  0.00    -0.011 C 
ATOM      3  C   UNL     1      -0.224  -0.550  -1.159  0.00  0.00    +0.008 C 
ATOM      4  C   UNL     1      -0.180  -1.954  -1.206  0.00  0.00    +0.016 C 
ATOM      5  C   UNL     1      -0.083  -2.665  -0.064  0.00  0.00    +0.077 C 
ATOM      6  N   UNL     1      -0.025  -2.041   1.148  0.00  0.00    -0.285 N 
ATOM      7  C   UNL     1      -0.058  -0.673   1.236  0.00  0.00    +0.124 C 
ATOM      8  N   UNL     1       0.013  -0.234   2.475  0.00  0.00    -0.254 NA
ATOM      9  C   UNL     1       0.116  -1.358   3.410  0.00  0.00    +0.215 C 
ATOM     10  C   UNL     1       0.082  -2.603   2.505  0.00  0.00    +0.127 C 
ENDROOT
BRANCH   9  11
ATOM     11  C   UNL     1       1.408  -1.286   4.183  0.00  0.00    +0.242 C 
ATOM     12  O   UNL     1       2.324  -0.606   3.770  0.00  0.00    -0.273 OA
ATOM     13  N   UNL     1       1.546  -1.977   5.331  0.00  0.00    -0.300 N 
ATOM     14  C   UNL     1       0.448  -2.810   5.840  0.00  0.00    +0.108 C 
ATOM     15  C   UNL     1       0.977  -4.226   6.088  0.00  0.00    +0.019 C 
ATOM     16  C   UNL     1       2.194  -4.157   7.014  0.00  0.00    +0.003 C 
ATOM     17  C   UNL     1       3.300  -3.338   6.344  0.00  0.00    +0.019 C 
ATOM     18  C   UNL     1       2.800  -1.917   6.095  0.00  0.00    +0.108 C 
ENDBRANCH   9  11
BRANCH  10  19
ATOM     19  C   UNL     1      -1.131  -3.482   2.820  0.00  0.00    +0.109 C 
BRANCH  19  20
ATOM     20  N   UNL     1      -1.250  -4.535   1.802  0.00  0.00    -0.300 NA
ATOM     21  C   UNL     1      -0.070  -5.410   1.809  0.00  0.00    +0.105 C 
BRANCH  20  22
ATOM     22  C   UNL     1      -2.483  -5.311   1.991  0.00  0.00    +0.130 C 
BRANCH  22  23
ATOM     23  C   UNL     1      -3.674  -4.517   1.451  0.00  0.00    +0.188 C 
ATOM     24  N   UNL     1      -3.399  -4.065   0.081  0.00  0.00    -0.362 N 
ATOM     25  C   UNL     1      -3.436  -2.764   0.084  0.00  0.00    +0.060 A 
ATOM     26  C   UNL     1      -3.243  -1.757  -0.970  0.00  0.00    +0.030 A 
ATOM     27  C   UNL     1      -3.343  -0.449  -0.667  0.00  0.00    +0.040 A 
ATOM     28  C   UNL     1      -3.630   0.008   0.635  0.00  0.00    +0.125 A 
ATOM     29  C   UNL     1      -3.824  -0.833   1.675  0.00  0.00    +0.065 A 
ATOM     30  C   UNL     1      -3.738  -2.282   1.459  0.00  0.00    +0.063 A 
ATOM     31  N   UNL     1      -3.877  -3.305   2.255  0.00  0.00    -0.362 N 
ATOM     32  F   UNL     1      -3.712   1.339   0.853  0.00  0.00    -0.205 F 
ATOM     33  H   UNL     1      -3.221  -4.632  -0.685  0.00  0.00    +0.162 HD
ATOM     34  H   UNL     1      -4.078  -3.273   3.204  0.00  0.00    +0.162 HD
ENDBRANCH  22  23
ENDBRANCH  20  22
ENDBRANCH  19  20
ENDBRANCH  10  19
TORSDOF 5
