REMARK  Name = ZINC59461846
REMARK  8 active torsions:
REMARK  status: ('A' for Active; 'I' for Inactive)
REMARK    1  A    between atoms: C_1  and  C_2
REMARK    2  A    between atoms: C_3  and  C_22
REMARK    3  A    between atoms: C_9  and  C_12
REMARK    4  A    between atoms: C_16  and  N_18
REMARK    5  A    between atoms: C_22  and  C_24
REMARK    6  A    between atoms: C_22  and  C_31
REMARK    7  A    between atoms: C_31  and  C_33
REMARK    8  A    between atoms: C_31  and  C_35
REMARK                            x       y       z     vdW  Elec       q    Type
REMARK                         _______ _______ _______ _____ _____    ______ ____
ROOT
ATOM      1  C   UNL     1      -0.245   1.332   0.723  0.00  0.00    +0.065 C 
ATOM      2  C   UNL     1      -0.871   1.558  -0.629  0.00  0.00    +0.039 A 
ATOM      3  C   UNL     1      -0.976   2.745  -1.261  0.00  0.00    +0.048 A 
ATOM      4  C   UNL     1      -1.622   2.529  -2.500  0.00  0.00    +0.277 A 
ATOM      5  N   UNL     1      -1.895   1.211  -2.592  0.00  0.00    -0.194 N 
ATOM      6  N   UNL     1      -1.423   0.595  -1.426  0.00  0.00    -0.292 N 
ATOM      7  C   UNL     1      -2.526   0.578  -3.655  0.00  0.00    +0.196 A 
ATOM      8  N   UNL     1      -2.828  -0.698  -3.807  0.00  0.00    -0.221 NA
ATOM      9  C   UNL     1      -3.439  -1.135  -4.899  0.00  0.00    +0.081 A 
ATOM     10  C   UNL     1      -3.763  -0.247  -5.886  0.00  0.00    +0.077 A 
ATOM     11  S   UNL     1      -3.153   1.276  -5.176  0.00  0.00    -0.056 S 
ATOM     12  O   UNL     1      -1.884   3.378  -3.332  0.00  0.00    -0.265 OA
ATOM     13  H   UNL     1      -1.480  -0.350  -1.219  0.00  0.00    +0.187 HD
ENDROOT
BRANCH   9  14
ATOM     14  C   UNL     1      -3.767  -2.573  -5.048  0.00  0.00    +0.003 A 
ATOM     15  C   UNL     1      -4.404  -3.030  -6.200  0.00  0.00    +0.010 A 
ATOM     16  C   UNL     1      -4.707  -4.369  -6.334  0.00  0.00    +0.003 A 
ATOM     17  C   UNL     1      -4.380  -5.259  -5.326  0.00  0.00    +0.033 A 
ATOM     18  C   UNL     1      -3.748  -4.812  -4.180  0.00  0.00    +0.127 A 
ATOM     19  C   UNL     1      -3.435  -3.475  -4.038  0.00  0.00    +0.042 A 
BRANCH  18  20
ATOM     20  N   UNL     1      -3.402  -5.769  -3.106  0.00  0.00    +0.056 N 
ATOM     21  O   UNL     1      -3.671  -6.941  -3.231  0.00  0.00    -0.126 OA
ATOM     22  O   UNL     1      -2.849  -5.380  -2.103  0.00  0.00    -0.126 OA
ENDBRANCH  18  20
ENDBRANCH   9  14
BRANCH   3  23
ATOM     23  C   UNL     1      -0.489   4.072  -0.737  0.00  0.00    +0.082 C 
BRANCH  23  24
ATOM     24  C   UNL     1      -1.671   4.956  -0.432  0.00  0.00    -0.038 A 
ATOM     25  C   UNL     1      -2.472   5.418  -1.460  0.00  0.00    +0.006 A 
ATOM     26  C   UNL     1      -3.557   6.228  -1.181  0.00  0.00    +0.020 A 
ATOM     27  C   UNL     1      -3.841   6.577   0.128  0.00  0.00    +0.041 A 
ATOM     28  C   UNL     1      -3.039   6.114   1.156  0.00  0.00    +0.020 A 
ATOM     29  C   UNL     1      -1.958   5.300   0.876  0.00  0.00    +0.006 A 
ATOM     30 CL   UNL     1      -5.202   7.595   0.479  0.00  0.00    -0.084 Cl
ENDBRANCH  23  24
BRANCH  23  31
ATOM     31  C   UNL     1       0.392   4.745  -1.791  0.00  0.00    +0.189 C 
BRANCH  31  32
ATOM     32  C   UNL     1       0.878   6.072  -1.267  0.00  0.00    +0.228 C 
ATOM     33  O   UNL     1       2.067   6.279  -1.153  0.00  0.00    -0.275 OA
ATOM     34  N   UNL     1      -0.009   7.027  -0.926  0.00  0.00    -0.328 N 
ATOM     35  H   UNL     1      -0.960   6.861  -1.018  0.00  0.00    +0.145 HD
ATOM     36  H   UNL     1       0.304   7.881  -0.589  0.00  0.00    +0.145 HD
ENDBRANCH  31  32
BRANCH  31  37
ATOM     37  C   UNL     1       1.546   3.882  -2.089  0.00  0.00    +0.076 C 
ATOM     38  N   UNL     1       2.438   3.216  -2.319  0.00  0.00    -0.196 NA
ENDBRANCH  31  37
ENDBRANCH  23  31
ENDBRANCH   3  23
TORSDOF 7
