REMARK  Name = ZINC12467363
REMARK  12 active torsions:
REMARK  status: ('A' for Active; 'I' for Inactive)
REMARK    1  A    between atoms: C_1  and  C_2
REMARK    2  A    between atoms: C_2  and  N_3
REMARK    3  A    between atoms: C_7  and  C_8
REMARK    4  A    between atoms: C_11  and  O_16
REMARK    5  A    between atoms: C_12  and  O_14
REMARK    6  A    between atoms: O_14  and  C_15
REMARK    7  A    between atoms: O_16  and  C_17
REMARK    8  A    between atoms: C_17  and  C_18
REMARK    9  A    between atoms: N_23  and  C_24
REMARK   10  A    between atoms: C_27  and  C_30
REMARK   11  A    between atoms: C_30  and  O_32
REMARK   12  A    between atoms: O_32  and  C_33
REMARK                            x       y       z     vdW  Elec       q    Type
REMARK                         _______ _______ _______ _____ _____    ______ ____
ROOT
ATOM      1  N   UNL     1       3.993  -2.019  -6.549  0.00  0.00    -0.246 N 
ATOM      2  C   UNL     1       3.266  -1.700  -5.492  0.00  0.00    +0.259 C 
ATOM      3  O   UNL     1       2.779  -2.553  -4.774  0.00  0.00    -0.269 OA
ATOM      4  C   UNL     1       3.073  -0.262  -5.221  0.00  0.00    +0.078 C 
ATOM      5  C   UNL     1       2.383   0.341  -4.220  0.00  0.00    +0.028 C 
ATOM      6  S   UNL     1       3.986   0.471  -6.572  0.00  0.00    -0.049 S 
ATOM      7  C   UNL     1       4.536  -1.040  -7.349  0.00  0.00    +0.168 C 
ATOM      8  N   UNL     1       5.277  -1.182  -8.429  0.00  0.00    -0.225 NA
ENDROOT
BRANCH   5   9
ATOM      9  C   UNL     1       1.848  -0.459  -3.111  0.00  0.00    -0.020 A 
ATOM     10  C   UNL     1       2.600  -1.514  -2.580  0.00  0.00    +0.012 A 
ATOM     11  C   UNL     1       2.095  -2.263  -1.540  0.00  0.00    +0.050 A 
ATOM     12  C   UNL     1       0.844  -1.972  -1.012  0.00  0.00    +0.163 A 
ATOM     13  C   UNL     1       0.087  -0.926  -1.539  0.00  0.00    +0.162 A 
ATOM     14  C   UNL     1       0.584  -0.170  -2.582  0.00  0.00    +0.057 A 
BRANCH  13  15
ATOM     15  O   UNL     1      -1.140  -0.648  -1.022  0.00  0.00    -0.491 OA
ATOM     16  C   UNL     1      -1.858   0.440  -1.607  0.00  0.00    +0.277 C 
ENDBRANCH  13  15
BRANCH  12  17
ATOM     17  O   UNL     1       0.354  -2.711   0.017  0.00  0.00    -0.479 OA
BRANCH  17  18
ATOM     18  C   UNL     1       1.182  -3.767   0.509  0.00  0.00    +0.324 C 
BRANCH  18  19
ATOM     19  C   UNL     1       0.479  -4.471   1.640  0.00  0.00    +0.248 C 
ATOM     20  O   UNL     1      -0.623  -4.105   1.991  0.00  0.00    -0.272 OA
ATOM     21  N   UNL     1       1.074  -5.508   2.263  0.00  0.00    -0.327 N 
ATOM     22  H   UNL     1       1.955  -5.801   1.982  0.00  0.00    +0.145 HD
ATOM     23  H   UNL     1       0.621  -5.961   2.991  0.00  0.00    +0.145 HD
ENDBRANCH  18  19
ENDBRANCH  17  18
ENDBRANCH  12  17
ENDBRANCH   5   9
BRANCH   8  24
ATOM     24  C   UNL     1       5.728  -0.083  -9.095  0.00  0.00    +0.067 A 
ATOM     25  C   UNL     1       4.857   0.983  -9.358  0.00  0.00    +0.028 A 
ATOM     26  C   UNL     1       5.310   2.086 -10.021  0.00  0.00    +0.017 A 
ATOM     27  C   UNL     1       6.642   2.148 -10.448  0.00  0.00    +0.059 A 
ATOM     28  C   UNL     1       7.511   1.080 -10.191  0.00  0.00    +0.017 A 
ATOM     29  C   UNL     1       7.060  -0.020  -9.523  0.00  0.00    +0.028 A 
BRANCH  27  30
ATOM     30  C   UNL     1       7.129   3.336 -11.168  0.00  0.00    +0.339 C 
ATOM     31  O   UNL     1       8.285   3.390 -11.540  0.00  0.00    -0.245 OA
BRANCH  30  32
ATOM     32  O   UNL     1       6.293   4.364 -11.416  0.00  0.00    -0.464 OA
ATOM     33  C   UNL     1       6.842   5.502 -12.131  0.00  0.00    +0.280 C 
ENDBRANCH  30  32
ENDBRANCH  27  30
ENDBRANCH   8  24
BRANCH   1  35
ATOM     34  C   UNL     1       3.113  -3.926  -7.800  0.00  0.00    +0.025 C 
ATOM     35  C   UNL     1       4.223  -3.429  -6.872  0.00  0.00    +0.112 C 
ENDBRANCH   1  35
TORSDOF 9
