REMARK  Name = ZINC40144666
REMARK  12 active torsions:
REMARK  status: ('A' for Active; 'I' for Inactive)
REMARK    1  A    between atoms: C_1  and  C_2
REMARK    2  A    between atoms: C_3  and  C_12
REMARK    3  A    between atoms: C_4  and  C_11
REMARK    4  A    between atoms: N_5  and  C_7
REMARK    5  A    between atoms: C_7  and  C_8
REMARK    6  A    between atoms: C_7  and  C_9
REMARK    7  A    between atoms: C_7  and  C_10
REMARK    8  A    between atoms: N_14  and  N_15
REMARK    9  A    between atoms: C_16  and  C_18
REMARK   10  A    between atoms: C_21  and  C_23
REMARK   11  A    between atoms: C_23  and  O_24
REMARK   12  A    between atoms: O_24  and  C_25
REMARK                            x       y       z     vdW  Elec       q    Type
REMARK                         _______ _______ _______ _____ _____    ______ ____
ROOT
ATOM      1  N   UNL     1      -0.700   0.300  -4.621  0.00  0.00    -0.228 N 
ATOM      2  C   UNL     1      -1.770   0.350  -5.439  0.00  0.00    +0.295 C 
ATOM      3  O   UNL     1      -2.857  -0.025  -5.042  0.00  0.00    -0.265 OA
ATOM      4  H   UNL     1       0.167   0.599  -4.937  0.00  0.00    +0.173 HD
ENDROOT
BRANCH   2   5
ATOM      5  C   UNL     1      -1.623   0.855  -6.808  0.00  0.00    +0.191 A 
ATOM      6  C   UNL     1      -2.620   0.963  -7.734  0.00  0.00    +0.055 A 
ATOM      7  C   UNL     1      -2.036   1.490  -8.897  0.00  0.00    +0.049 A 
ATOM      8  C   UNL     1      -0.724   1.677  -8.632  0.00  0.00    +0.143 A 
ATOM      9  O   UNL     1      -0.480   1.299  -7.371  0.00  0.00    -0.452 OA
BRANCH   8  10
ATOM     10  C   UNL     1       0.296   2.228  -9.596  0.00  0.00    +0.303 C 
BRANCH  10  11
ATOM     11  O   UNL     1       0.352   3.650  -9.468  0.00  0.00    -0.484 OA
BRANCH  11  12
ATOM     12  C   UNL     1       1.229   4.307 -10.273  0.00  0.00    +0.121 A 
ATOM     13  C   UNL     1       2.014   3.598 -11.170  0.00  0.00    +0.045 A 
ATOM     14  C   UNL     1       2.904   4.269 -11.987  0.00  0.00    +0.004 A 
ATOM     15  C   UNL     1       3.013   5.645 -11.910  0.00  0.00    +0.000 A 
ATOM     16  C   UNL     1       2.232   6.354 -11.016  0.00  0.00    +0.004 A 
ATOM     17  C   UNL     1       1.336   5.689 -10.202  0.00  0.00    +0.045 A 
ENDBRANCH  11  12
ENDBRANCH  10  11
ENDBRANCH   8  10
ENDBRANCH   2   5
BRANCH   1  20
ATOM     18  C   UNL     1       0.230  -0.232  -2.494  0.00  0.00    +0.264 C 
ATOM     19  O   UNL     1       1.316   0.142  -2.891  0.00  0.00    -0.269 OA
ATOM     20  N   UNL     1      -0.840  -0.182  -3.313  0.00  0.00    -0.230 N 
ATOM     21  H   UNL     1      -1.707  -0.481  -2.996  0.00  0.00    +0.173 HD
BRANCH  18  24
ATOM     22  C   UNL     1      -0.476   1.511   0.063  0.00  0.00    +0.068 C 
ATOM     23  C   UNL     1      -0.232   0.024   0.028  0.00  0.00    +0.072 A 
ATOM     24  C   UNL     1       0.082  -0.740  -1.118  0.00  0.00    +0.081 A 
ATOM     25  C   UNL     1       0.224  -2.050  -0.709  0.00  0.00    +0.049 A 
ATOM     26  N   UNL     1       0.009  -2.083   0.616  0.00  0.00    -0.262 N 
ATOM     27  N   UNL     1      -0.268  -0.782   1.053  0.00  0.00    -0.175 NA
ATOM     28  C   UNL     1       0.560  -3.228  -1.587  0.00  0.00    +0.066 C 
BRANCH  26  29
ATOM     29  C   UNL     1       0.059  -3.277   1.462  0.00  0.00    +0.056 C 
ATOM     30  C   UNL     1       1.398  -3.990   1.260  0.00  0.00    +0.036 C 
ATOM     31  C   UNL     1      -0.084  -2.869   2.930  0.00  0.00    +0.036 C 
ATOM     32  C   UNL     1      -1.083  -4.221   1.081  0.00  0.00    +0.036 C 
ENDBRANCH  26  29
ENDBRANCH  18  24
ENDBRANCH   1  20
TORSDOF 7
