REMARK  Name = ZINC17983825
REMARK  11 active torsions:
REMARK  status: ('A' for Active; 'I' for Inactive)
REMARK    1  A    between atoms: C_1  and  C_2
REMARK    2  A    between atoms: C_3  and  C_32
REMARK    3  A    between atoms: N_4  and  C_26
REMARK    4  A    between atoms: C_5  and  N_9
REMARK    5  A    between atoms: C_6  and  C_7
REMARK    6  A    between atoms: C_10  and  C_12
REMARK    7  A    between atoms: C_12  and  S_13
REMARK    8  A    between atoms: S_13  and  C_14
REMARK    9  A    between atoms: N_19  and  C_20
REMARK   10  A    between atoms: C_20  and  C_21
REMARK   11  A    between atoms: C_26  and  C_27
REMARK                            x       y       z     vdW  Elec       q    Type
REMARK                         _______ _______ _______ _____ _____    ______ ____
ROOT
ATOM      1  N   UNL     1       3.487   1.180   0.279  0.00  0.00    -0.270 N 
ATOM      2  C   UNL     1       3.926   2.454   0.325  0.00  0.00    +0.229 C 
ATOM      3  O   UNL     1       3.130   3.369   0.325  0.00  0.00    -0.275 OA
ATOM      4  H   UNL     1       4.122   0.447   0.307  0.00  0.00    +0.156 HD
ENDROOT
BRANCH   1   9
ATOM      5  C   UNL     1      -1.402   1.330  -0.990  0.00  0.00    +0.047 C 
ATOM      6  C   UNL     1      -0.085   0.958  -0.359  0.00  0.00    -0.011 A 
ATOM      7  C   UNL     1       0.127  -0.017   0.540  0.00  0.00    +0.022 A 
ATOM      8  N   UNL     1       1.455  -0.045   0.873  0.00  0.00    -0.324 N 
ATOM      9  C   UNL     1       2.128   0.917   0.192  0.00  0.00    +0.124 A 
ATOM     10  C   UNL     1       1.216   1.591  -0.608  0.00  0.00    +0.095 A 
ATOM     11  C   UNL     1      -0.932  -0.932   1.099  0.00  0.00    +0.064 C 
BRANCH  10  12
ATOM     12  C   UNL     1       1.488   2.683  -1.494  0.00  0.00    +0.103 C 
ATOM     13  N   UNL     1       1.704   3.548  -2.198  0.00  0.00    -0.191 NA
ENDBRANCH  10  12
BRANCH   8  14
ATOM     14  C   UNL     1       2.061  -0.978   1.826  0.00  0.00    +0.197 C 
BRANCH  14  15
ATOM     15  C   UNL     1       2.395  -2.268   1.123  0.00  0.00    +0.124 A 
ATOM     16  C   UNL     1       3.556  -2.549   0.505  0.00  0.00    +0.046 A 
ATOM     17  C   UNL     1       3.439  -3.860  -0.011  0.00  0.00    +0.041 A 
ATOM     18  C   UNL     1       2.210  -4.299   0.316  0.00  0.00    +0.195 A 
ATOM     19  O   UNL     1       1.582  -3.330   1.003  0.00  0.00    -0.466 OA
ENDBRANCH  14  15
ENDBRANCH   8  14
ENDBRANCH   1   9
BRANCH   2  20
ATOM     20  C   UNL     1       5.404   2.740   0.378  0.00  0.00    +0.172 C 
BRANCH  20  21
ATOM     21  S   UNL     1       5.671   4.534   0.432  0.00  0.00    -0.088 S 
BRANCH  21  22
ATOM     22  C   UNL     1       7.424   4.702   0.490  0.00  0.00    +0.160 A 
ATOM     23  N   UNL     1       8.354   3.767   0.494  0.00  0.00    -0.133 NA
ATOM     24  N   UNL     1       9.682   4.123   0.543  0.00  0.00    -0.125 NA
ATOM     25  C   UNL     1      10.020   5.397   0.586  0.00  0.00    +0.183 A 
ATOM     26  S   UNL     1       8.417   6.186   0.551  0.00  0.00    -0.025 S 
ATOM     27  N   UNL     1      11.284   5.972   0.638  0.00  0.00    -0.315 N 
ATOM     28  H   UNL     1      11.377   6.937   0.665  0.00  0.00    +0.148 HD
BRANCH  27  29
ATOM     29  C   UNL     1      12.476   5.121   0.653  0.00  0.00    +0.178 C 
BRANCH  29  30
ATOM     30  C   UNL     1      13.709   5.984   0.712  0.00  0.00    +0.122 A 
ATOM     31  C   UNL     1      14.320   6.408   1.833  0.00  0.00    +0.046 A 
ATOM     32  C   UNL     1      15.429   7.186   1.426  0.00  0.00    +0.041 A 
ATOM     33  C   UNL     1      15.429   7.191   0.081  0.00  0.00    +0.195 A 
ATOM     34  O   UNL     1      14.388   6.457  -0.346  0.00  0.00    -0.466 OA
ENDBRANCH  29  30
ENDBRANCH  27  29
ENDBRANCH  21  22
ENDBRANCH  20  21
ENDBRANCH   2  20
TORSDOF 9
