REMARK  Name = ZINC13211377
REMARK  10 active torsions:
REMARK  status: ('A' for Active; 'I' for Inactive)
REMARK    1  A    between atoms: C_1  and  C_2
REMARK    2  A    between atoms: C_5  and  O_8
REMARK    3  A    between atoms: O_8  and  C_9
REMARK    4  A    between atoms: C_9  and  C_10
REMARK    5  A    between atoms: C_10  and  N_11
REMARK    6  A    between atoms: N_11  and  C_12
REMARK    7  A    between atoms: C_15  and  N_29
REMARK    8  A    between atoms: C_17  and  S_18
REMARK    9  A    between atoms: S_18  and  N_21
REMARK   10  A    between atoms: C_24  and  C_27
REMARK                            x       y       z     vdW  Elec       q    Type
REMARK                         _______ _______ _______ _____ _____    ______ ____
ROOT
ATOM      1  C   UNL     1      -3.782  -0.838  -1.751  0.00  0.00    +0.054 A 
ATOM      2  C   UNL     1      -4.595  -1.703  -1.029  0.00  0.00    +0.027 A 
ATOM      3  C   UNL     1      -5.923  -1.850  -1.376  0.00  0.00    +0.034 A 
ATOM      4  C   UNL     1      -6.445  -1.137  -2.440  0.00  0.00    +0.128 A 
ATOM      5  C   UNL     1      -5.639  -0.276  -3.161  0.00  0.00    +0.063 A 
ATOM      6  C   UNL     1      -4.311  -0.119  -2.816  0.00  0.00    +0.128 A 
ENDROOT
BRANCH   6   7
ATOM      7  S   UNL     1      -3.286   0.985  -3.730  0.00  0.00    +0.063 S 
ATOM      8  O   UNL     1      -4.104   1.552  -4.745  0.00  0.00    -0.153 OA
ATOM      9  O   UNL     1      -2.593   1.779  -2.777  0.00  0.00    -0.153 OA
BRANCH   7  10
ATOM     10  N   UNL     1      -2.143   0.067  -4.502  0.00  0.00    -0.176 NA
ATOM     11  C   UNL     1      -0.811  -0.121  -3.911  0.00  0.00    +0.110 C 
ATOM     12  C   UNL     1       0.248   0.273  -4.939  0.00  0.00    +0.032 C 
ATOM     13  C   UNL     1       0.017  -0.511  -6.233  0.00  0.00    +0.105 C 
ATOM     14  C   UNL     1      -1.361  -0.166  -6.801  0.00  0.00    +0.032 C 
ATOM     15  C   UNL     1      -2.441  -0.570  -5.792  0.00  0.00    +0.110 C 
BRANCH  13  16
ATOM     16  C   UNL     1       1.080  -0.147  -7.237  0.00  0.00    +0.359 C 
ATOM     17  O   UNL     1       0.767   0.339  -8.298  0.00  0.00    -0.246 OA
ATOM     18  O   UNL     1       2.374  -0.362  -6.953  0.00  0.00    -0.246 OA
ENDBRANCH  13  16
ENDBRANCH   7  10
ENDBRANCH   6   7
BRANCH   4  19
ATOM     19  N   UNL     1      -7.870  -1.298  -2.808  0.00  0.00    +0.056 N 
ATOM     20  O   UNL     1      -8.581  -2.056  -2.174  0.00  0.00    -0.126 OA
ATOM     21  O   UNL     1      -8.330  -0.671  -3.745  0.00  0.00    -0.126 OA
ENDBRANCH   4  19
BRANCH   1  22
ATOM     22  N   UNL     1      -2.438  -0.686  -1.403  0.00  0.00    -0.339 N 
ATOM     23  H   UNL     1      -1.892  -0.022  -1.853  0.00  0.00    +0.146 HD
BRANCH  22  24
ATOM     24  C   UNL     1      -1.851  -1.531  -0.359  0.00  0.00    +0.142 C 
BRANCH  24  25
ATOM     25  C   UNL     1      -0.378  -1.164  -0.175  0.00  0.00    +0.247 C 
BRANCH  25  26
ATOM     26  O   UNL     1      -0.278   0.173   0.320  0.00  0.00    -0.490 OA
BRANCH  26  31
ATOM     27  C   UNL     1       4.905   2.180   1.234  0.00  0.00    +0.044 C 
ATOM     28  C   UNL     1       3.518   1.643   0.989  0.00  0.00    -0.050 A 
ATOM     29  C   UNL     1       2.416   2.438   1.244  0.00  0.00    +0.007 A 
ATOM     30  C   UNL     1       1.143   1.947   1.021  0.00  0.00    +0.046 A 
ATOM     31  C   UNL     1       0.973   0.657   0.541  0.00  0.00    +0.121 A 
ATOM     32  C   UNL     1       2.081  -0.140   0.291  0.00  0.00    +0.046 A 
ATOM     33  C   UNL     1       3.351   0.357   0.510  0.00  0.00    +0.007 A 
ENDBRANCH  26  31
ENDBRANCH  25  26
ENDBRANCH  24  25
ENDBRANCH  22  24
ENDBRANCH   1  22
TORSDOF 9
