REMARK  Name = ZINC60240977
REMARK  14 active torsions:
REMARK  status: ('A' for Active; 'I' for Inactive)
REMARK    1  A    between atoms: C_1  and  C_2
REMARK    2  A    between atoms: C_2  and  C_4
REMARK    3  A    between atoms: C_2  and  N_26
REMARK    4  A    between atoms: C_10  and  C_13
REMARK    5  A    between atoms: N_15  and  C_16
REMARK    6  A    between atoms: C_16  and  C_17
REMARK    7  A    between atoms: C_17  and  N_18
REMARK    8  A    between atoms: C_19  and  O_21
REMARK    9  A    between atoms: O_21  and  C_22
REMARK   10  A    between atoms: C_22  and  C_23
REMARK   11  A    between atoms: C_22  and  C_24
REMARK   12  A    between atoms: C_22  and  C_25
REMARK   13  A    between atoms: C_27  and  C_29
REMARK   14  A    between atoms: C_30  and  C_31
REMARK                            x       y       z     vdW  Elec       q    Type
REMARK                         _______ _______ _______ _____ _____    ______ ____
ROOT
ATOM      1  C   UNL     1       0.598  -0.531  -1.278  0.00  0.00    +0.236 C 
ATOM      2  O   UNL     1      -0.088  -1.170  -2.048  0.00  0.00    -0.274 OA
ATOM      3  N   UNL     1       1.893  -0.294  -1.567  0.00  0.00    -0.299 N 
ATOM      4  C   UNL     1       2.766   0.377  -0.594  0.00  0.00    +0.108 C 
ATOM      5  C   UNL     1       4.008  -0.491  -0.366  0.00  0.00    +0.020 C 
ATOM      6  C   UNL     1       4.675  -0.783  -1.712  0.00  0.00    +0.016 C 
ATOM      7  C   UNL     1       3.703  -1.555  -2.608  0.00  0.00    +0.092 C 
ATOM      8  C   UNL     1       2.459  -0.706  -2.858  0.00  0.00    +0.120 C 
ENDROOT
BRANCH   7   9
ATOM      9  C   UNL     1       4.372  -1.871  -3.921  0.00  0.00    +0.218 C 
ATOM     10  O   UNL     1       3.899  -1.456  -4.958  0.00  0.00    -0.275 OA
ATOM     11  N   UNL     1       5.496  -2.615  -3.943  0.00  0.00    -0.314 N 
ATOM     12  H   UNL     1       5.874  -2.947  -3.113  0.00  0.00    +0.149 HD
BRANCH  11  13
ATOM     13  C   UNL     1       6.146  -2.922  -5.219  0.00  0.00    +0.123 C 
BRANCH  13  14
ATOM     14  C   UNL     1       7.392  -3.773  -4.965  0.00  0.00    +0.126 C 
BRANCH  14  15
ATOM     15  N   UNL     1       8.043  -4.080  -6.241  0.00  0.00    -0.280 N 
ATOM     16  C   UNL     1       9.166  -4.824  -6.263  0.00  0.00    +0.401 C 
ATOM     17  O   UNL     1       9.640  -5.239  -5.224  0.00  0.00    -0.226 OA
ATOM     18  H   UNL     1       7.664  -3.748  -7.070  0.00  0.00    +0.152 HD
BRANCH  16  19
ATOM     19  O   UNL     1       9.764  -5.106  -7.436  0.00  0.00    -0.445 OA
BRANCH  19  20
ATOM     20  C   UNL     1      10.952  -5.899  -7.384  0.00  0.00    +0.107 C 
ATOM     21  C   UNL     1      10.633  -7.254  -6.749  0.00  0.00    +0.055 C 
ATOM     22  C   UNL     1      11.484  -6.113  -8.803  0.00  0.00    +0.055 C 
ATOM     23  C   UNL     1      12.010  -5.179  -6.547  0.00  0.00    +0.055 C 
ENDBRANCH  19  20
ENDBRANCH  16  19
ENDBRANCH  14  15
ENDBRANCH  13  14
ENDBRANCH  11  13
ENDBRANCH   7   9
BRANCH   1  25
ATOM     24  C   UNL     1      -0.302   1.488  -0.155  0.00  0.00    +0.038 C 
ATOM     25  C   UNL     1       0.002  -0.003   0.002  0.00  0.00    +0.156 C 
BRANCH  25  26
ATOM     26  N   UNL     1      -1.238  -0.726   0.298  0.00  0.00    -0.301 N 
ATOM     27  C   UNL     1      -1.679  -0.815   1.568  0.00  0.00    +0.237 C 
ATOM     28  O   UNL     1      -1.048  -0.294   2.469  0.00  0.00    -0.271 OA
ATOM     29  H   UNL     1      -1.741  -1.140  -0.420  0.00  0.00    +0.150 HD
BRANCH  27  30
ATOM     30  C   UNL     1      -2.918  -1.537   1.864  0.00  0.00    +0.068 C 
ATOM     31  C   UNL     1      -3.359  -1.626   3.135  0.00  0.00    +0.013 C 
BRANCH  31  32
ATOM     32  C   UNL     1      -4.604  -2.352   3.433  0.00  0.00    -0.025 A 
ATOM     33  C   UNL     1      -5.330  -2.956   2.401  0.00  0.00    +0.008 A 
ATOM     34  C   UNL     1      -6.495  -3.634   2.687  0.00  0.00    +0.001 A 
ATOM     35  C   UNL     1      -6.948  -3.718   3.993  0.00  0.00    +0.000 A 
ATOM     36  C   UNL     1      -6.236  -3.123   5.019  0.00  0.00    +0.001 A 
ATOM     37  C   UNL     1      -5.065  -2.446   4.749  0.00  0.00    +0.008 A 
ENDBRANCH  31  32
ENDBRANCH  27  30
ENDBRANCH  25  26
ENDBRANCH   1  25
TORSDOF 10
