REMARK  Name = ZINC02841456
REMARK  11 active torsions:
REMARK  status: ('A' for Active; 'I' for Inactive)
REMARK    1  A    between atoms: C_1  and  C_2
REMARK    2  A    between atoms: C_2  and  N_3
REMARK    3  A    between atoms: C_4  and  C_24
REMARK    4  A    between atoms: C_7  and  S_8
REMARK    5  A    between atoms: S_8  and  C_9
REMARK    6  A    between atoms: C_9  and  C_10
REMARK    7  A    between atoms: N_12  and  C_13
REMARK    8  A    between atoms: C_14  and  C_22
REMARK    9  A    between atoms: C_24  and  N_25
REMARK   10  A    between atoms: C_26  and  C_28
REMARK   11  A    between atoms: C_31  and  C_34
REMARK                            x       y       z     vdW  Elec       q    Type
REMARK                         _______ _______ _______ _____ _____    ______ ____
ROOT
ATOM      1  N   UNL     1      -3.768  11.011  -6.436  0.00  0.00    -0.305 N 
ATOM      2  C   UNL     1      -3.981  12.319  -6.096  0.00  0.00    +0.151 A 
ATOM      3  N   UNL     1      -3.749  12.431  -4.819  0.00  0.00    -0.132 NA
ATOM      4  N   UNL     1      -3.412  11.290  -4.330  0.00  0.00    -0.122 NA
ATOM      5  C   UNL     1      -3.411  10.382  -5.278  0.00  0.00    +0.192 A 
ENDROOT
BRANCH   1   7
ATOM      6  C   UNL     1      -5.333   9.910  -7.959  0.00  0.00    +0.027 C 
ATOM      7  C   UNL     1      -3.900  10.410  -7.765  0.00  0.00    +0.122 C 
ENDBRANCH   1   7
BRANCH   5   8
ATOM      8  S   UNL     1      -3.016   8.675  -5.093  0.00  0.00    -0.077 S 
BRANCH   8   9
ATOM      9  C   UNL     1      -2.653   8.627  -3.320  0.00  0.00    +0.173 C 
BRANCH   9  10
ATOM     10  C   UNL     1      -2.279   7.222  -2.922  0.00  0.00    +0.228 C 
ATOM     11  O   UNL     1      -2.260   6.341  -3.755  0.00  0.00    -0.275 OA
ATOM     12  N   UNL     1      -1.965   6.946  -1.641  0.00  0.00    -0.278 N 
ATOM     13  H   UNL     1      -1.980   7.652  -0.975  0.00  0.00    +0.155 HD
BRANCH  12  14
ATOM     14  C   UNL     1      -1.621   5.653  -1.274  0.00  0.00    +0.090 A 
ATOM     15  C   UNL     1      -1.271   5.177  -0.019  0.00  0.00    +0.084 A 
ATOM     16  C   UNL     1      -0.951   3.765   0.100  0.00  0.00    -0.018 A 
ATOM     17  C   UNL     1      -1.032   3.059  -1.049  0.00  0.00    -0.004 A 
ATOM     18  S   UNL     1      -1.524   4.240  -2.273  0.00  0.00    -0.077 S 
ATOM     19  C   UNL     1      -0.761   1.597  -1.232  0.00  0.00    +0.043 C 
ATOM     20  C   UNL     1      -0.013   1.086   0.008  0.00  0.00    +0.005 C 
ATOM     21  C   UNL     1      -0.735   1.583   1.264  0.00  0.00    +0.005 C 
ATOM     22  C   UNL     1      -0.551   3.094   1.407  0.00  0.00    +0.037 C 
BRANCH  15  23
ATOM     23  C   UNL     1      -1.226   6.046   1.118  0.00  0.00    +0.102 C 
ATOM     24  N   UNL     1      -1.191   6.736   2.020  0.00  0.00    -0.191 NA
ENDBRANCH  15  23
ENDBRANCH  12  14
ENDBRANCH   9  10
ENDBRANCH   8   9
ENDBRANCH   5   8
BRANCH   2  25
ATOM     25  C   UNL     1      -4.399  13.427  -7.028  0.00  0.00    +0.181 C 
BRANCH  25  26
ATOM     26  N   UNL     1      -3.208  14.065  -7.594  0.00  0.00    -0.304 N 
ATOM     27  C   UNL     1      -3.340  15.089  -8.461  0.00  0.00    +0.244 C 
ATOM     28  O   UNL     1      -4.447  15.483  -8.772  0.00  0.00    -0.270 OA
ATOM     29  H   UNL     1      -2.325  13.750  -7.346  0.00  0.00    +0.149 HD
BRANCH  27  30
ATOM     30  C   UNL     1      -2.138  15.732  -9.033  0.00  0.00    +0.037 A 
ATOM     31  C   UNL     1      -0.865  15.286  -8.673  0.00  0.00    +0.013 A 
ATOM     32  C   UNL     1       0.252  15.887  -9.214  0.00  0.00    +0.004 A 
ATOM     33  C   UNL     1       0.114  16.938 -10.103  0.00  0.00    -0.050 A 
ATOM     34  C   UNL     1      -1.145  17.389 -10.460  0.00  0.00    +0.004 A 
ATOM     35  C   UNL     1      -2.271  16.793  -9.930  0.00  0.00    +0.013 A 
ATOM     36  C   UNL     1       1.339  17.595 -10.685  0.00  0.00    +0.044 C 
ENDBRANCH  27  30
ENDBRANCH  25  26
ENDBRANCH   2  25
TORSDOF 9
