REMARK  Name = ZINC08766703
REMARK  11 active torsions:
REMARK  status: ('A' for Active; 'I' for Inactive)
REMARK    1  A    between atoms: C_1  and  C_2
REMARK    2  A    between atoms: C_2  and  C_3
REMARK    3  A    between atoms: C_10  and  C_12
REMARK    4  A    between atoms: C_15  and  S_18
REMARK    5  A    between atoms: N_16  and  C_17
REMARK    6  A    between atoms: S_18  and  C_19
REMARK    7  A    between atoms: C_19  and  C_20
REMARK    8  A    between atoms: N_22  and  N_23
REMARK    9  A    between atoms: C_26  and  C_30
REMARK   10  A    between atoms: C_26  and  C_31
REMARK   11  A    between atoms: C_31  and  C_32
REMARK                            x       y       z     vdW  Elec       q    Type
REMARK                         _______ _______ _______ _____ _____    ______ ____
ROOT
ATOM      1  C   UNL     1      -6.812   8.551  -2.644  0.00  0.00    +0.171 A 
ATOM      2  N   UNL     1      -6.354   8.547  -1.411  0.00  0.00    -0.128 NA
ATOM      3  N   UNL     1      -5.468   7.627  -1.276  0.00  0.00    -0.122 NA
ATOM      4  C   UNL     1      -5.297   6.992  -2.414  0.00  0.00    +0.192 A 
ATOM      5  N   UNL     1      -6.149   7.554  -3.324  0.00  0.00    -0.305 N 
ATOM      6  C   UNL     1      -6.320   7.175  -4.729  0.00  0.00    +0.153 C 
ENDROOT
BRANCH   1  13
ATOM      7  C   UNL     1     -11.738  12.290  -3.598  0.00  0.00    -0.007 C 
ATOM      8  C   UNL     1     -11.118  12.821  -4.893  0.00  0.00    +0.009 C 
ATOM      9  C   UNL     1     -10.405  11.664  -5.609  0.00  0.00    +0.043 C 
ATOM     10  C   UNL     1      -9.562  10.941  -4.608  0.00  0.00    -0.006 A 
ATOM     11  C   UNL     1      -9.622  11.037  -3.249  0.00  0.00    -0.036 A 
ATOM     12  C   UNL     1      -8.727  10.255  -2.528  0.00  0.00    +0.023 A 
ATOM     13  C   UNL     1      -7.840   9.451  -3.192  0.00  0.00    +0.057 A 
ATOM     14  S   UNL     1      -8.261   9.772  -4.899  0.00  0.00    -0.090 S 
ATOM     15  C   UNL     1     -10.639  11.963  -2.587  0.00  0.00    +0.039 C 
BRANCH   7  17
ATOM     16  C   UNL     1     -13.396  12.774  -1.792  0.00  0.00    +0.004 C 
ATOM     17  C   UNL     1     -12.670  13.351  -3.008  0.00  0.00    +0.000 C 
ENDBRANCH   7  17
ENDBRANCH   1  13
BRANCH   4  18
ATOM     18  S   UNL     1      -4.184   5.659  -2.709  0.00  0.00    -0.077 S 
BRANCH  18  19
ATOM     19  C   UNL     1      -3.436   5.503  -1.069  0.00  0.00    +0.174 C 
BRANCH  19  20
ATOM     20  C   UNL     1      -2.421   4.390  -1.082  0.00  0.00    +0.240 C 
ATOM     21  O   UNL     1      -2.222   3.763  -2.101  0.00  0.00    -0.273 OA
ATOM     22  N   UNL     1      -1.733   4.091   0.038  0.00  0.00    -0.223 N 
ATOM     23  H   UNL     1      -1.892   4.593   0.853  0.00  0.00    +0.174 HD
BRANCH  22  24
ATOM     24  N   UNL     1      -0.789   3.056   0.025  0.00  0.00    -0.137 N 
ATOM     25  C   UNL     1       0.545   3.248   0.013  0.00  0.00    +0.263 C 
ATOM     26  O   UNL     1       1.132   4.309   0.014  0.00  0.00    -0.271 OA
ATOM     27  C   UNL     1       1.158   1.862   0.001  0.00  0.00    +0.111 C 
ATOM     28  N   UNL     1      -0.011   0.966   0.007  0.00  0.00    -0.284 N 
ATOM     29  C   UNL     1      -1.101   1.755   0.016  0.00  0.00    +0.326 C 
ATOM     30  O   UNL     1      -2.240   1.333   0.019  0.00  0.00    -0.251 OA
ATOM     31  C   UNL     1       2.013   1.641   1.250  0.00  0.00    +0.041 C 
ATOM     32  H   UNL     1       0.002  -0.004   0.002  0.00  0.00    +0.151 HD
BRANCH  27  33
ATOM     33  C   UNL     1       1.992   1.650  -1.264  0.00  0.00    +0.032 C 
ATOM     34  C   UNL     1       2.404   0.180  -1.363  0.00  0.00    +0.006 C 
ENDBRANCH  27  33
ENDBRANCH  22  24
ENDBRANCH  19  20
ENDBRANCH  18  19
ENDBRANCH   4  18
TORSDOF 7
