REMARK  Name = ZINC39894146
REMARK  11 active torsions:
REMARK  status: ('A' for Active; 'I' for Inactive)
REMARK    1  A    between atoms: C_1  and  C_2
REMARK    2  A    between atoms: C_2  and  O_3
REMARK    3  A    between atoms: O_3  and  C_4
REMARK    4  A    between atoms: C_7  and  N_13
REMARK    5  A    between atoms: C_8  and  N_10
REMARK    6  A    between atoms: N_13  and  C_14
REMARK    7  A    between atoms: C_16  and  C_34
REMARK    8  A    between atoms: C_17  and  C_32
REMARK    9  A    between atoms: N_20  and  C_23
REMARK   10  A    between atoms: C_23  and  C_25
REMARK   11  A    between atoms: C_23  and  C_26
REMARK                            x       y       z     vdW  Elec       q    Type
REMARK                         _______ _______ _______ _____ _____    ______ ____
ROOT
ATOM      1  C   UNL     1       0.830  -6.357  -0.401  0.00  0.00    +0.085 C 
ATOM      2  C   UNL     1       1.402  -7.541  -0.859  0.00  0.00    +0.055 C 
ATOM      3  C   UNL     1       2.213  -7.541  -2.015  0.00  0.00    -0.015 C 
ATOM      4  C   UNL     1       2.767  -8.741  -2.441  0.00  0.00    +0.118 C 
ATOM      5  C   UNL     1       2.500  -9.967  -1.688  0.00  0.00    +0.264 C 
ATOM      6  O   UNL     1       2.986 -11.019  -2.061  0.00  0.00    -0.269 OA
ATOM      7  N   UNL     1       1.725  -9.946  -0.590  0.00  0.00    -0.226 N 
ATOM      8  C   UNL     1       1.175  -8.803  -0.143  0.00  0.00    +0.255 C 
ATOM      9  O   UNL     1       0.482  -8.815   0.858  0.00  0.00    -0.269 OA
ATOM     10  C   UNL     1       2.473  -6.264  -2.772  0.00  0.00    +0.046 C 
ENDROOT
BRANCH   1  11
ATOM     11  N   UNL     1       1.218  -5.178  -0.918  0.00  0.00    -0.318 N 
ATOM     12  H   UNL     1       1.864  -5.154  -1.641  0.00  0.00    +0.152 HD
BRANCH  11  16
ATOM     13  C   UNL     1      -0.358  -1.624   0.584  0.00  0.00    +0.123 A 
ATOM     14  C   UNL     1      -0.828  -2.843   1.052  0.00  0.00    +0.047 A 
ATOM     15  C   UNL     1      -0.307  -4.021   0.554  0.00  0.00    +0.029 A 
ATOM     16  C   UNL     1       0.689  -3.985  -0.414  0.00  0.00    +0.062 A 
ATOM     17  C   UNL     1       1.159  -2.764  -0.882  0.00  0.00    +0.151 A 
ATOM     18  C   UNL     1       0.632  -1.588  -0.387  0.00  0.00    +0.080 A 
BRANCH  17  19
ATOM     19  N   UNL     1       2.219  -2.725  -1.914  0.00  0.00    +0.058 N 
ATOM     20  O   UNL     1       2.710  -1.669  -2.236  0.00  0.00    -0.126 OA
ATOM     21  O   UNL     1       2.594  -3.750  -2.434  0.00  0.00    -0.126 OA
ENDBRANCH  17  19
BRANCH  13  22
ATOM     22  O   UNL     1      -0.871  -0.465   1.074  0.00  0.00    -0.492 OA
BRANCH  22  24
ATOM     23  C   UNL     1      -2.340   0.822   2.499  0.00  0.00    +0.048 C 
ATOM     24  C   UNL     1      -1.888  -0.577   2.073  0.00  0.00    +0.225 C 
ENDBRANCH  22  24
ENDBRANCH  13  22
ENDBRANCH  11  16
ENDBRANCH   1  11
BRANCH   7  25
ATOM     25  C   UNL     1       1.479 -11.193   0.139  0.00  0.00    +0.112 C 
ATOM     26  C   UNL     1       2.338 -12.310  -0.458  0.00  0.00    +0.033 C 
BRANCH  25  27
ATOM     27  C   UNL     1       0.023 -11.563   0.023  0.00  0.00    -0.027 A 
ATOM     28  C   UNL     1      -0.613 -11.494  -1.202  0.00  0.00    +0.005 A 
ATOM     29  C   UNL     1      -1.949 -11.833  -1.308  0.00  0.00    +0.000 A 
ATOM     30  C   UNL     1      -2.649 -12.243  -0.188  0.00  0.00    +0.000 A 
ATOM     31  C   UNL     1      -2.013 -12.314   1.037  0.00  0.00    +0.000 A 
ATOM     32  C   UNL     1      -0.676 -11.978   1.142  0.00  0.00    +0.005 A 
ENDBRANCH  25  27
ENDBRANCH   7  25
BRANCH   4  33
ATOM     33  C   UNL     1       3.594  -8.778  -3.610  0.00  0.00    +0.105 C 
ATOM     34  N   UNL     1       4.250  -8.807  -4.537  0.00  0.00    -0.191 NA
ENDBRANCH   4  33
TORSDOF 8
