REMARK  Name = ZINC53748771
REMARK  5 active torsions:
REMARK  status: ('A' for Active; 'I' for Inactive)
REMARK    1  A    between atoms: C_6  and  N_7
REMARK    2  A    between atoms: C_8  and  C_10
REMARK    3  A    between atoms: C_10  and  N_11
REMARK    4  A    between atoms: N_14  and  C_15
REMARK    5  A    between atoms: C_15  and  C_16
REMARK                            x       y       z     vdW  Elec       q    Type
REMARK                         _______ _______ _______ _____ _____    ______ ____
ROOT
ATOM      1  N   UNL     1      -2.194  -4.261  -0.311  0.00  0.00    -0.291 N 
ATOM      2  C   UNL     1      -3.207  -5.144  -0.417  0.00  0.00    +0.300 C 
ATOM      3  O   UNL     1      -4.357  -4.750  -0.422  0.00  0.00    -0.253 OA
ATOM      4  N   UNL     1      -2.945  -6.462  -0.516  0.00  0.00    -0.295 N 
ATOM      5  H   UNL     1      -1.276  -4.575  -0.307  0.00  0.00    +0.151 HD
ATOM      6  H   UNL     1      -2.027  -6.776  -0.511  0.00  0.00    +0.151 HD
ENDROOT
BRANCH   1   7
ATOM      7  C   UNL     1      -2.479  -2.828  -0.204  0.00  0.00    +0.202 C 
BRANCH   7   9
ATOM      8  N   UNL     1      -1.200  -0.722   0.010  0.00  0.00    -0.284 N 
ATOM      9  C   UNL     1      -1.183  -2.065  -0.099  0.00  0.00    +0.234 C 
ATOM     10  O   UNL     1      -0.126  -2.659  -0.113  0.00  0.00    -0.274 OA
ATOM     11  H   UNL     1      -2.044  -0.252   0.098  0.00  0.00    +0.155 HD
BRANCH   8  17
ATOM     12  C   UNL     1       1.072  -0.453  -0.766  0.00  0.00    +0.025 A 
ATOM     13  C   UNL     1       2.256   0.257  -0.778  0.00  0.00    +0.022 A 
ATOM     14  C   UNL     1       2.377   1.416  -0.032  0.00  0.00    +0.041 A 
ATOM     15  C   UNL     1       1.312   1.866   0.729  0.00  0.00    +0.022 A 
ATOM     16  C   UNL     1       0.126   1.159   0.745  0.00  0.00    +0.025 A 
ATOM     17  C   UNL     1       0.002  -0.004  -0.004  0.00  0.00    +0.034 A 
ATOM     18 CL   UNL     1       3.867   2.306  -0.048  0.00  0.00    -0.084 Cl
ENDBRANCH   8  17
ENDBRANCH   7   9
ENDBRANCH   1   7
BRANCH   4  19
ATOM     19  C   UNL     1      -4.046  -7.421  -0.630  0.00  0.00    +0.141 C 
BRANCH  19  20
ATOM     20  C   UNL     1      -3.488  -8.818  -0.726  0.00  0.00    -0.027 A 
ATOM     21  C   UNL     1      -3.188  -9.357  -1.963  0.00  0.00    +0.009 A 
ATOM     22  C   UNL     1      -2.675 -10.638  -2.056  0.00  0.00    +0.050 A 
ATOM     23  C   UNL     1      -2.461 -11.384  -0.908  0.00  0.00    +0.166 A 
ATOM     24  C   UNL     1      -2.763 -10.840   0.338  0.00  0.00    +0.167 A 
ATOM     25  C   UNL     1      -3.271  -9.554   0.424  0.00  0.00    +0.054 A 
ATOM     26  O   UNL     1      -2.467 -11.762   1.300  0.00  0.00    -0.453 OA
ATOM     27  C   UNL     1      -2.365 -13.021   0.608  0.00  0.00    +0.466 C 
ATOM     28  O   UNL     1      -1.975 -12.647  -0.727  0.00  0.00    -0.453 OA
ENDBRANCH  19  20
ENDBRANCH   4  19
TORSDOF 5
