REMARK  Name = ZINC13091638
REMARK  7 active torsions:
REMARK  status: ('A' for Active; 'I' for Inactive)
REMARK    1  A    between atoms: C_3  and  C_32
REMARK    2  A    between atoms: C_6  and  C_7
REMARK    3  A    between atoms: C_7  and  N_8
REMARK    4  A    between atoms: N_11  and  C_14
REMARK    5  A    between atoms: C_17  and  S_23
REMARK    6  A    between atoms: C_19  and  C_20
REMARK    7  A    between atoms: S_23  and  N_26
REMARK                            x       y       z     vdW  Elec       q    Type
REMARK                         _______ _______ _______ _____ _____    ______ ____
ROOT
ATOM      1  C   UNL     1      -4.489  -0.903  -4.419  0.00  0.00    +0.044 A 
ATOM      2  C   UNL     1      -4.476  -1.297  -5.751  0.00  0.00    +0.026 A 
ATOM      3  C   UNL     1      -5.598  -1.121  -6.535  0.00  0.00    +0.030 A 
ATOM      4  C   UNL     1      -6.745  -0.551  -6.003  0.00  0.00    +0.106 A 
ATOM      5  C   UNL     1      -6.778  -0.154  -4.686  0.00  0.00    +0.045 A 
ATOM      6  C   UNL     1      -5.651  -0.330  -3.875  0.00  0.00    +0.086 A 
ENDROOT
BRANCH   1  10
ATOM      7  N   UNL     1      -1.730  -1.014  -1.371  0.00  0.00    -0.295 NA
ATOM      8  C   UNL     1      -2.066   0.247  -2.046  0.00  0.00    +0.103 C 
ATOM      9  C   UNL     1      -2.339  -0.028  -3.528  0.00  0.00    +0.120 C 
ATOM     10  N   UNL     1      -3.363  -1.079  -3.628  0.00  0.00    -0.327 N 
ATOM     11  C   UNL     1      -3.160  -2.321  -2.868  0.00  0.00    +0.120 C 
ATOM     12  C   UNL     1      -2.856  -1.957  -1.411  0.00  0.00    +0.103 C 
BRANCH   7  13
ATOM     13  C   UNL     1      -1.295  -0.772   0.011  0.00  0.00    +0.119 C 
BRANCH  13  19
ATOM     14  C   UNL     1      -0.017   1.379   0.010  0.00  0.00    +0.006 A 
ATOM     15  C   UNL     1       1.167   2.088   0.002  0.00  0.00    +0.019 A 
ATOM     16  C   UNL     1       2.385   1.407  -0.013  0.00  0.00    +0.052 A 
ATOM     17  C   UNL     1       2.397   0.011  -0.021  0.00  0.00    +0.019 A 
ATOM     18  C   UNL     1       1.206  -0.686  -0.013  0.00  0.00    +0.006 A 
ATOM     19  C   UNL     1       0.002  -0.004   0.002  0.00  0.00    -0.033 A 
BRANCH  16  20
ATOM     20  C   UNL     1       3.617   2.136  -0.021  0.00  0.00    +0.099 C 
ATOM     21  N   UNL     1       4.595   2.715  -0.028  0.00  0.00    -0.191 NA
ENDBRANCH  16  20
ENDBRANCH  13  19
ENDBRANCH   7  13
ENDBRANCH   1  10
BRANCH   6  22
ATOM     22  C   UNL     1      -5.681   0.086  -2.465  0.00  0.00    +0.388 C 
ATOM     23  O   UNL     1      -6.696   0.585  -1.996  0.00  0.00    -0.241 OA
ATOM     24  O   UNL     1      -4.692  -0.065  -1.761  0.00  0.00    -0.241 OA
ENDBRANCH   6  22
BRANCH   4  25
ATOM     25  S   UNL     1      -8.167  -0.334  -7.020  0.00  0.00    +0.061 S 
ATOM     26  O   UNL     1      -8.925   0.718  -6.438  0.00  0.00    -0.153 OA
ATOM     27  O   UNL     1      -7.703  -0.286  -8.362  0.00  0.00    -0.153 OA
BRANCH  25  28
ATOM     28  N   UNL     1      -9.081  -1.708  -6.883  0.00  0.00    -0.172 NA
ATOM     29  C   UNL     1      -8.876  -2.848  -7.792  0.00  0.00    +0.137 C 
ATOM     30  C   UNL     1      -8.726  -4.118  -6.947  0.00  0.00    +0.177 C 
ATOM     31  O   UNL     1      -9.830  -4.216  -6.045  0.00  0.00    -0.377 OA
ATOM     32  C   UNL     1      -9.911  -3.147  -5.100  0.00  0.00    +0.177 C 
ATOM     33  C   UNL     1     -10.118  -1.828  -5.846  0.00  0.00    +0.137 C 
ENDBRANCH  25  28
ENDBRANCH   4  25
TORSDOF 7
