REMARK  Name = ZINC39362126
REMARK  8 active torsions:
REMARK  status: ('A' for Active; 'I' for Inactive)
REMARK    1  A    between atoms: C_1  and  O_2
REMARK    2  A    between atoms: O_2  and  C_3
REMARK    3  A    between atoms: C_7  and  N_9
REMARK    4  A    between atoms: C_10  and  C_24
REMARK    5  A    between atoms: C_14  and  S_15
REMARK    6  A    between atoms: S_15  and  C_16
REMARK    7  A    between atoms: C_16  and  C_17
REMARK    8  A    between atoms: C_24  and  C_25
REMARK                            x       y       z     vdW  Elec       q    Type
REMARK                         _______ _______ _______ _____ _____    ______ ____
ROOT
ATOM      1  N   UNL     1       1.389  -4.021   2.213  0.00  0.00    -0.258 N 
ATOM      2  C   UNL     1       2.107  -4.830   3.213  0.00  0.00    +0.187 C 
ATOM      3  N   UNL     1       1.840  -6.219   2.801  0.00  0.00    -0.246 N 
ATOM      4  N   UNL     1       1.034  -6.140   1.659  0.00  0.00    -0.162 NA
ATOM      5  C   UNL     1       0.783  -4.915   1.342  0.00  0.00    +0.180 C 
ATOM      6  H   UNL     1       2.160  -7.026   3.234  0.00  0.00    +0.170 HD
ENDROOT
BRANCH   1  11
ATOM      7  C   UNL     1       2.400  -0.506   1.823  0.00  0.00    +0.122 A 
ATOM      8  C   UNL     1       1.191   0.139   2.048  0.00  0.00    +0.046 A 
ATOM      9  C   UNL     1       0.055  -0.596   2.327  0.00  0.00    +0.005 A 
ATOM     10  C   UNL     1       0.118  -1.975   2.382  0.00  0.00    +0.024 A 
ATOM     11  C   UNL     1       1.325  -2.626   2.157  0.00  0.00    +0.041 A 
ATOM     12  C   UNL     1       2.466  -1.889   1.871  0.00  0.00    +0.069 A 
BRANCH   7  14
ATOM     13  C   UNL     1       3.374   1.641   1.515  0.00  0.00    +0.277 C 
ATOM     14  O   UNL     1       3.516   0.219   1.549  0.00  0.00    -0.495 OA
ENDBRANCH   7  14
ENDBRANCH   1  11
BRANCH   5  15
ATOM     15  S   UNL     1      -0.206  -4.435  -0.035  0.00  0.00    -0.084 S 
BRANCH  15  16
ATOM     16  C   UNL     1      -0.712  -6.009  -0.782  0.00  0.00    +0.112 C 
BRANCH  16  17
ATOM     17  C   UNL     1      -1.575  -5.738  -1.988  0.00  0.00    -0.037 A 
ATOM     18  C   UNL     1      -2.945  -5.625  -1.845  0.00  0.00    +0.005 A 
ATOM     19  C   UNL     1      -3.737  -5.376  -2.950  0.00  0.00    +0.015 A 
ATOM     20  C   UNL     1      -3.158  -5.241  -4.199  0.00  0.00    +0.018 A 
ATOM     21  C   UNL     1      -1.787  -5.355  -4.341  0.00  0.00    +0.015 A 
ATOM     22  C   UNL     1      -0.995  -5.598  -3.235  0.00  0.00    +0.005 A 
ATOM     23 BR   UNL     1      -4.241  -4.902  -5.712  0.00  0.00    -0.050 Br
ENDBRANCH  16  17
ENDBRANCH  15  16
ENDBRANCH   5  15
BRANCH   2  24
ATOM     24  C   UNL     1       1.553  -4.566   4.615  0.00  0.00    +0.097 C 
BRANCH  24  25
ATOM     25  C   UNL     1       2.382  -5.310   5.630  0.00  0.00    +0.029 A 
ATOM     26  N   UNL     1       2.114  -6.622   5.909  0.00  0.00    -0.311 N 
ATOM     27  C   UNL     1       2.848  -7.295   6.813  0.00  0.00    +0.327 A 
ATOM     28  O   UNL     1       2.592  -8.461   7.045  0.00  0.00    -0.247 OA
ATOM     29  N   UNL     1       3.863  -6.696   7.464  0.00  0.00    -0.275 N 
ATOM     30  C   UNL     1       4.160  -5.404   7.218  0.00  0.00    +0.254 A 
ATOM     31  O   UNL     1       5.077  -4.861   7.806  0.00  0.00    -0.268 OA
ATOM     32  C   UNL     1       3.397  -4.686   6.265  0.00  0.00    +0.091 A 
ATOM     33  H   UNL     1       4.382  -7.196   8.113  0.00  0.00    +0.173 HD
ATOM     34  H   UNL     1       1.387  -7.072   5.450  0.00  0.00    +0.170 HD
ENDBRANCH  24  25
ENDBRANCH   2  24
TORSDOF 7
