REMARK  Name = ZINC19428827
REMARK  13 active torsions:
REMARK  status: ('A' for Active; 'I' for Inactive)
REMARK    1  A    between atoms: C_1  and  C_2
REMARK    2  A    between atoms: C_4  and  O_11
REMARK    3  A    between atoms: C_7  and  N_8
REMARK    4  A    between atoms: O_11  and  C_12
REMARK    5  A    between atoms: C_12  and  C_13
REMARK    6  A    between atoms: N_15  and  C_16
REMARK    7  A    between atoms: N_15  and  C_20
REMARK    8  A    between atoms: C_16  and  C_17
REMARK    9  A    between atoms: C_17  and  C_18
REMARK   10  A    between atoms: C_17  and  C_19
REMARK   11  A    between atoms: C_21  and  N_36
REMARK   12  A    between atoms: N_22  and  C_29
REMARK   13  A    between atoms: C_29  and  C_30
REMARK                            x       y       z     vdW  Elec       q    Type
REMARK                         _______ _______ _______ _____ _____    ______ ____
ROOT
ATOM      1  C   UNL     1      -4.523   4.411   0.828  0.00  0.00    +0.258 C 
ATOM      2  O   UNL     1      -4.801   5.589   0.737  0.00  0.00    -0.272 OA
ATOM      3  N   UNL     1      -5.480   3.477   0.648  0.00  0.00    -0.261 N 
ENDROOT
BRANCH   3   4
ATOM      4  C   UNL     1      -6.782   3.865   0.268  0.00  0.00    +0.140 A 
ATOM      5  C   UNL     1      -7.559   4.634   1.110  0.00  0.00    +0.128 A 
ATOM      6  N   UNL     1      -8.823   4.999   0.710  0.00  0.00    -0.276 N 
ATOM      7  C   UNL     1      -9.300   4.604  -0.484  0.00  0.00    +0.331 A 
ATOM      8  O   UNL     1     -10.423   4.933  -0.817  0.00  0.00    -0.246 OA
ATOM      9  N   UNL     1      -8.559   3.850  -1.315  0.00  0.00    -0.273 N 
ATOM     10  H   UNL     1      -8.969   3.538  -2.287  0.00  0.00    +0.173 HD
ATOM     11  C   UNL     1      -7.313   3.469  -0.974  0.00  0.00    +0.277 A 
ATOM     12  O   UNL     1      -6.650   2.785  -1.735  0.00  0.00    -0.266 OA
BRANCH   5  13
ATOM     13  N   UNL     1      -7.074   5.033   2.333  0.00  0.00    -0.343 N 
ATOM     14  H   UNL     1      -7.699   5.646   2.999  0.00  0.00    +0.144 HD
ATOM     15  H   UNL     1      -6.061   4.740   2.645  0.00  0.00    +0.144 HD
ENDBRANCH   5  13
BRANCH   6  16
ATOM     16  C   UNL     1      -9.658   5.819   1.592  0.00  0.00    +0.163 C 
BRANCH  16  17
ATOM     17  C   UNL     1     -10.467   4.924   2.494  0.00  0.00    -0.028 A 
ATOM     18  C   UNL     1     -11.721   4.495   2.098  0.00  0.00    +0.005 A 
ATOM     19  C   UNL     1     -12.461   3.670   2.923  0.00  0.00    +0.000 A 
ATOM     20  C   UNL     1     -11.953   3.281   4.148  0.00  0.00    +0.000 A 
ATOM     21  C   UNL     1     -10.702   3.713   4.546  0.00  0.00    +0.000 A 
ATOM     22  C   UNL     1      -9.959   4.535   3.719  0.00  0.00    +0.005 A 
ENDBRANCH  16  17
ENDBRANCH   6  16
ENDBRANCH   3   4
BRANCH   1  23
ATOM     23  C   UNL     1      -3.110   3.992   1.141  0.00  0.00    +0.325 C 
BRANCH  23  24
ATOM     24  O   UNL     1      -2.290   5.153   1.286  0.00  0.00    -0.483 OA
BRANCH  24  28
ATOM     25  C   UNL     1       2.139   6.998   2.184  0.00  0.00    +0.046 C 
ATOM     26  C   UNL     1       1.211   5.822   2.017  0.00  0.00    -0.017 A 
ATOM     27  C   UNL     1      -0.123   6.032   1.726  0.00  0.00    +0.051 A 
ATOM     28  C   UNL     1      -0.977   4.950   1.572  0.00  0.00    +0.122 A 
ATOM     29  C   UNL     1      -0.487   3.658   1.706  0.00  0.00    +0.048 A 
ATOM     30  C   UNL     1       0.847   3.454   2.002  0.00  0.00    +0.036 A 
ATOM     31  C   UNL     1       1.696   4.535   2.155  0.00  0.00    +0.129 A 
BRANCH  31  32
ATOM     32  N   UNL     1       3.125   4.313   2.466  0.00  0.00    +0.057 N 
ATOM     33  O   UNL     1       3.975   5.032   1.972  0.00  0.00    -0.126 OA
ATOM     34  O   UNL     1       3.453   3.411   3.216  0.00  0.00    -0.126 OA
ENDBRANCH  31  32
ENDBRANCH  24  28
ENDBRANCH  23  24
ENDBRANCH   1  23
BRANCH   3  35
ATOM     35  C   UNL     1      -5.166   2.060   0.848  0.00  0.00    +0.117 C 
BRANCH  35  36
ATOM     36  C   UNL     1      -5.285   1.715   2.334  0.00  0.00    +0.001 C 
ATOM     37  C   UNL     1      -6.745   1.847   2.773  0.00  0.00    +0.009 C 
ATOM     38  C   UNL     1      -4.811   0.279   2.564  0.00  0.00    +0.009 C 
ENDBRANCH  35  36
ENDBRANCH   3  35
TORSDOF 10
