REMARK  Name = ZINC36497908
REMARK  11 active torsions:
REMARK  status: ('A' for Active; 'I' for Inactive)
REMARK    1  A    between atoms: C_1  and  C_2
REMARK    2  A    between atoms: C_5  and  S_8
REMARK    3  A    between atoms: S_8  and  C_11
REMARK    4  A    between atoms: C_11  and  N_12
REMARK    5  A    between atoms: C_13  and  C_15
REMARK    6  A    between atoms: C_15  and  C_17
REMARK    7  A    between atoms: C_15  and  N_23
REMARK    8  A    between atoms: N_23  and  C_24
REMARK    9  A    between atoms: C_24  and  C_25
REMARK   10  A    between atoms: C_30  and  C_32
REMARK   11  A    between atoms: C_37  and  O_38
REMARK                            x       y       z     vdW  Elec       q    Type
REMARK                         _______ _______ _______ _____ _____    ______ ____
ROOT
ATOM      1  C   UNL     1       5.126  -5.797   3.803  0.00  0.00    +0.193 C 
ENDROOT
BRANCH   1   2
ATOM      2  C   UNL     1       6.440  -6.068   4.487  0.00  0.00    -0.018 A 
ATOM      3  C   UNL     1       6.691  -7.313   5.034  0.00  0.00    +0.006 A 
ATOM      4  C   UNL     1       7.897  -7.562   5.662  0.00  0.00    +0.000 A 
ATOM      5  C   UNL     1       8.852  -6.566   5.744  0.00  0.00    +0.000 A 
ATOM      6  C   UNL     1       8.602  -5.321   5.197  0.00  0.00    +0.000 A 
ATOM      7  C   UNL     1       7.398  -5.074   4.564  0.00  0.00    +0.006 A 
ENDBRANCH   1   2
BRANCH   1   9
ATOM      8  N   UNL     1       5.527  -5.852   1.362  0.00  0.00    -0.294 N 
ATOM      9  C   UNL     1       5.101  -6.495   2.467  0.00  0.00    +0.239 C 
ATOM     10  O   UNL     1       4.699  -7.637   2.388  0.00  0.00    -0.273 OA
ATOM     11  H   UNL     1       5.848  -4.939   1.426  0.00  0.00    +0.150 HD
BRANCH   8  12
ATOM     12  C   UNL     1       5.503  -6.531   0.064  0.00  0.00    +0.278 C 
BRANCH  12  13
ATOM     13  S   UNL     1       3.969  -6.114  -0.809  0.00  0.00    +0.013 S 
ATOM     14  O   UNL     1       2.856  -6.253   0.064  0.00  0.00    -0.168 OA
ATOM     15  O   UNL     1       3.959  -6.714  -2.096  0.00  0.00    -0.168 OA
BRANCH  13  20
ATOM     16  C   UNL     1       4.352  -0.188  -1.879  0.00  0.00    +0.044 C 
ATOM     17  C   UNL     1       4.257  -1.668  -1.611  0.00  0.00    -0.050 A 
ATOM     18  C   UNL     1       4.749  -2.571  -2.536  0.00  0.00    +0.005 A 
ATOM     19  C   UNL     1       4.661  -3.928  -2.290  0.00  0.00    +0.027 A 
ATOM     20  C   UNL     1       4.082  -4.383  -1.121  0.00  0.00    +0.090 A 
ATOM     21  C   UNL     1       3.590  -3.481  -0.196  0.00  0.00    +0.027 A 
ATOM     22  C   UNL     1       3.682  -2.123  -0.439  0.00  0.00    +0.005 A 
ENDBRANCH  13  20
ENDBRANCH  12  13
ENDBRANCH   8  12
ENDBRANCH   1   9
BRANCH   1  23
ATOM     23  N   UNL     1       4.029  -6.297   4.635  0.00  0.00    -0.275 N 
ATOM     24  C   UNL     1       3.514  -5.520   5.609  0.00  0.00    +0.251 C 
ATOM     25  O   UNL     1       2.638  -5.953   6.333  0.00  0.00    -0.270 OA
BRANCH  24  26
ATOM     26  C   UNL     1       4.014  -4.145   5.797  0.00  0.00    +0.078 A 
ATOM     27  C   UNL     1       4.117  -3.279   4.706  0.00  0.00    +0.017 A 
ATOM     28  C   UNL     1       4.584  -1.996   4.888  0.00  0.00    +0.001 A 
ATOM     29  C   UNL     1       4.952  -1.559   6.150  0.00  0.00    +0.004 A 
ATOM     30  C   UNL     1       4.856  -2.404   7.238  0.00  0.00    +0.046 A 
ATOM     31  C   UNL     1       4.383  -3.697   7.073  0.00  0.00    +0.129 A 
BRANCH  31  32
ATOM     32  O   UNL     1       4.282  -4.527   8.142  0.00  0.00    -0.506 OA
ATOM     33  H   UNL     1       5.079  -5.048   8.312  0.00  0.00    +0.292 HD
ENDBRANCH  31  32
ENDBRANCH  24  26
BRANCH  23  34
ATOM     34  C   UNL     1       3.491  -7.641   4.409  0.00  0.00    +0.183 C 
BRANCH  34  35
ATOM     35  C   UNL     1       2.203  -7.543   3.634  0.00  0.00    +0.122 A 
ATOM     36  C   UNL     1       2.092  -7.508   2.294  0.00  0.00    +0.046 A 
ATOM     37  C   UNL     1       0.713  -7.414   1.999  0.00  0.00    +0.041 A 
ATOM     38  C   UNL     1       0.063  -7.397   3.177  0.00  0.00    +0.195 A 
ATOM     39  O   UNL     1       0.970  -7.481   4.163  0.00  0.00    -0.466 OA
ENDBRANCH  34  35
ENDBRANCH  23  34
ENDBRANCH   1  23
TORSDOF 10
