REMARK  Name = ZINC64158047
REMARK  10 active torsions:
REMARK  status: ('A' for Active; 'I' for Inactive)
REMARK    1  A    between atoms: C_1  and  C_2
REMARK    2  A    between atoms: C_2  and  C_3
REMARK    3  A    between atoms: C_2  and  N_4
REMARK    4  A    between atoms: N_4  and  C_5
REMARK    5  A    between atoms: N_9  and  C_28
REMARK    6  A    between atoms: C_11  and  C_14
REMARK    7  A    between atoms: N_16  and  C_17
REMARK    8  A    between atoms: C_17  and  C_18
REMARK    9  A    between atoms: C_18  and  C_19
REMARK   10  A    between atoms: C_28  and  C_29
REMARK                            x       y       z     vdW  Elec       q    Type
REMARK                         _______ _______ _______ _____ _____    ______ ____
ROOT
ATOM      1  C   UNL     1      -1.739  -1.657  -0.824  0.00  0.00    +0.246 C 
ATOM      2  O   UNL     1      -0.698  -2.437  -1.185  0.00  0.00    -0.270 OA
ATOM      3  C   UNL     1      -2.952  -2.218  -0.561  0.00  0.00    +0.079 C 
ATOM      4  C   UNL     1      -3.205  -3.688  -0.811  0.00  0.00    +0.149 C 
ATOM      5  N   UNL     1      -4.534  -4.230  -0.506  0.00  0.00    -0.326 N 
ATOM      6  C   UNL     1      -5.502  -3.434  -0.015  0.00  0.00    +0.087 C 
ATOM      7  C   UNL     1      -5.309  -2.098   0.225  0.00  0.00    +0.097 C 
ATOM      8  C   UNL     1      -4.015  -1.448  -0.039  0.00  0.00    +0.202 C 
ATOM      9  O   UNL     1      -3.864  -0.258   0.187  0.00  0.00    -0.287 OA
ENDROOT
BRANCH   7  10
ATOM     10  C   UNL     1      -6.416  -1.299   0.762  0.00  0.00    +0.249 C 
ATOM     11  O   UNL     1      -7.510  -1.807   0.924  0.00  0.00    -0.270 OA
ATOM     12  N   UNL     1      -6.222  -0.003   1.075  0.00  0.00    -0.311 N 
ATOM     13  H   UNL     1      -5.335   0.383   1.012  0.00  0.00    +0.149 HD
BRANCH  12  14
ATOM     14  C   UNL     1      -7.351   0.822   1.512  0.00  0.00    +0.109 C 
BRANCH  14  15
ATOM     15  C   UNL     1      -6.862   2.242   1.804  0.00  0.00    +0.052 C 
BRANCH  15  16
ATOM     16  C   UNL     1      -8.023   3.091   2.253  0.00  0.00    -0.040 C 
ATOM     17  C   UNL     1      -8.395   3.351   3.527  0.00  0.00    -0.001 A 
ATOM     18  C   UNL     1      -7.852   2.937   4.826  0.00  0.00    +0.010 A 
ATOM     19  C   UNL     1      -8.456   3.368   5.957  0.00  0.00    +0.001 A 
ATOM     20  C   UNL     1      -9.584   4.198   5.920  0.00  0.00    +0.002 A 
ATOM     21  C   UNL     1     -10.141   4.621   4.765  0.00  0.00    +0.026 A 
ATOM     22  C   UNL     1      -9.588   4.229   3.515  0.00  0.00    +0.043 A 
ATOM     23  N   UNL     1      -9.939   4.501   2.281  0.00  0.00    -0.380 N 
ATOM     24  C   UNL     1      -9.004   3.830   1.370  0.00  0.00    +0.144 C 
ATOM     25  H   UNL     1     -10.688   5.055   2.015  0.00  0.00    +0.160 HD
ENDBRANCH  15  16
ENDBRANCH  14  15
ENDBRANCH  12  14
ENDBRANCH   7  10
BRANCH   1  26
ATOM     26  N   UNL     1      -1.574  -0.301  -0.722  0.00  0.00    -0.309 N 
ATOM     27  H   UNL     1      -2.336   0.266  -0.522  0.00  0.00    +0.149 HD
BRANCH  26  29
ATOM     28  C   UNL     1      -0.402   1.747  -1.366  0.00  0.00    +0.027 C 
ATOM     29  C   UNL     1      -0.249   0.293  -0.914  0.00  0.00    +0.067 C 
ATOM     30  C   UNL     1       0.526   0.247   0.404  0.00  0.00    +0.027 C 
ENDBRANCH  26  29
ENDBRANCH   1  26
BRANCH   5  31
ATOM     31  C   UNL     1      -4.810  -5.650  -0.739  0.00  0.00    +0.140 C 
BRANCH  31  32
ATOM     32  C   UNL     1      -4.479  -6.436   0.503  0.00  0.00    -0.030 A 
ATOM     33  C   UNL     1      -3.205  -6.945   0.681  0.00  0.00    +0.005 A 
ATOM     34  C   UNL     1      -2.902  -7.666   1.821  0.00  0.00    +0.000 A 
ATOM     35  C   UNL     1      -3.871  -7.878   2.783  0.00  0.00    +0.000 A 
ATOM     36  C   UNL     1      -5.144  -7.369   2.606  0.00  0.00    +0.000 A 
ATOM     37  C   UNL     1      -5.447  -6.644   1.468  0.00  0.00    +0.005 A 
ENDBRANCH  31  32
ENDBRANCH   5  31
TORSDOF 8
