REMARK  Name = ZINC58019514
REMARK  10 active torsions:
REMARK  status: ('A' for Active; 'I' for Inactive)
REMARK    1  A    between atoms: C_1  and  C_2
REMARK    2  A    between atoms: C_2  and  C_3
REMARK    3  A    between atoms: C_3  and  C_4
REMARK    4  A    between atoms: C_4  and  N_5
REMARK    5  A    between atoms: N_14  and  C_28
REMARK    6  A    between atoms: C_15  and  C_17
REMARK    7  A    between atoms: C_17  and  N_18
REMARK    8  A    between atoms: C_20  and  C_27
REMARK    9  A    between atoms: C_23  and  C_26
REMARK   10  A    between atoms: C_28  and  C_29
REMARK                            x       y       z     vdW  Elec       q    Type
REMARK                         _______ _______ _______ _____ _____    ______ ____
ROOT
ATOM      1  N   UNL     1       1.753  -2.655  -2.807  0.00  0.00    -0.277 N 
ATOM      2  C   UNL     1       0.914  -2.853  -3.892  0.00  0.00    +0.168 A 
ATOM      3  C   UNL     1       1.454  -3.334  -5.078  0.00  0.00    +0.151 A 
ATOM      4  C   UNL     1       2.837  -3.606  -5.143  0.00  0.00    +0.280 A 
ATOM      5  O   UNL     1       3.334  -4.028  -6.172  0.00  0.00    -0.265 OA
ATOM      6  N   UNL     1       3.603  -3.393  -4.053  0.00  0.00    -0.273 N 
ATOM      7  H   UNL     1       4.554  -3.578  -4.094  0.00  0.00    +0.173 HD
ATOM      8  C   UNL     1       3.068  -2.921  -2.913  0.00  0.00    +0.331 A 
ATOM      9  O   UNL     1       3.790  -2.736  -1.952  0.00  0.00    -0.246 OA
ATOM     10  N   UNL     1       0.403  -3.432  -5.969  0.00  0.00    -0.324 N 
ATOM     11  C   UNL     1      -0.703  -3.021  -5.319  0.00  0.00    +0.096 A 
ATOM     12  N   UNL     1      -0.395  -2.681  -4.093  0.00  0.00    -0.216 NA
ENDROOT
BRANCH  10  13
ATOM     13  C   UNL     1       0.478  -3.893  -7.357  0.00  0.00    +0.120 C 
ATOM     14  C   UNL     1       0.379  -5.419  -7.393  0.00  0.00    +0.027 C 
ENDBRANCH  10  13
BRANCH   1  15
ATOM     15  C   UNL     1       1.209  -2.148  -1.545  0.00  0.00    +0.128 C 
BRANCH  15  16
ATOM     16  C   UNL     1       1.259  -0.619  -1.545  0.00  0.00    +0.021 C 
BRANCH  16  18
ATOM     17  C   UNL     1       0.740   1.439  -0.227  0.00  0.00    +0.004 C 
ATOM     18  C   UNL     1       0.691  -0.090  -0.227  0.00  0.00    -0.002 C 
ENDBRANCH  16  18
ENDBRANCH  15  16
ENDBRANCH   1  15
BRANCH  11  19
ATOM     19  C   UNL     1      -2.087  -2.962  -5.914  0.00  0.00    -0.003 C 
BRANCH  19  20
ATOM     20  N   UNL     1      -2.254  -1.694  -6.638  0.00  0.00    +0.385 N 
ATOM     21  C   UNL     1      -2.203  -0.578  -5.687  0.00  0.00    -0.075 C 
ATOM     22  C   UNL     1      -2.296   0.748  -6.445  0.00  0.00    -0.031 C 
ATOM     23  C   UNL     1      -3.616   0.796  -7.219  0.00  0.00    +0.003 C 
ATOM     24  C   UNL     1      -3.691  -0.414  -8.155  0.00  0.00    -0.031 C 
ATOM     25  C   UNL     1      -3.547  -1.697  -7.333  0.00  0.00    -0.075 C 
ATOM     26  C   UNL     1      -2.562  -0.336  -9.184  0.00  0.00    +0.005 C 
ATOM     27  C   UNL     1      -2.243   1.910  -5.450  0.00  0.00    +0.005 C 
ATOM     28  H   UNL     1      -1.511  -1.593  -7.313  0.00  0.00    -0.081 HD
ENDBRANCH  19  20
ENDBRANCH  11  19
TORSDOF 6
