REMARK  Name = ZINC09450614
REMARK  10 active torsions:
REMARK  status: ('A' for Active; 'I' for Inactive)
REMARK    1  A    between atoms: C_1  and  C_2
REMARK    2  A    between atoms: C_2  and  C_34
REMARK    3  A    between atoms: C_6  and  N_27
REMARK    4  A    between atoms: C_10  and  N_26
REMARK    5  A    between atoms: C_11  and  C_13
REMARK    6  A    between atoms: N_15  and  C_16
REMARK    7  A    between atoms: C_19  and  O_24
REMARK    8  A    between atoms: C_21  and  O_22
REMARK    9  A    between atoms: O_22  and  C_23
REMARK   10  A    between atoms: O_24  and  C_25
REMARK                            x       y       z     vdW  Elec       q    Type
REMARK                         _______ _______ _______ _____ _____    ______ ____
ROOT
ATOM      1  C   UNL     1      -0.249   1.451   0.273  0.00  0.00    +0.041 C 
ATOM      2  C   UNL     1      -0.227  -0.079   0.239  0.00  0.00    +0.068 C 
ATOM      3  C   UNL     1      -1.659  -0.614   0.177  0.00  0.00    +0.070 C 
ATOM      4  C   UNL     1      -2.342  -0.394   1.500  0.00  0.00    -0.025 A 
ATOM      5  C   UNL     1      -1.645  -0.118   2.632  0.00  0.00    +0.020 A 
ATOM      6  C   UNL     1      -2.325   0.071   3.843  0.00  0.00    +0.105 A 
ATOM      7  N   UNL     1      -3.644  -0.013   3.894  0.00  0.00    -0.337 N 
ATOM      8  C   UNL     1      -4.354  -0.274   2.817  0.00  0.00    +0.089 A 
ATOM      9  C   UNL     1      -3.759  -0.481   1.552  0.00  0.00    +0.031 A 
ATOM     10  C   UNL     1      -4.689  -0.757   0.470  0.00  0.00    +0.054 A 
ATOM     11  C   UNL     1      -6.037  -0.795   0.759  0.00  0.00    +0.097 A 
ATOM     12  S   UNL     1      -6.093  -0.456   2.507  0.00  0.00    -0.064 S 
ATOM     13  C   UNL     1      -0.142  -0.002   2.623  0.00  0.00    +0.199 C 
ATOM     14  O   UNL     1       0.391  -0.578   1.431  0.00  0.00    -0.369 OA
ATOM     15  C   UNL     1       0.557  -0.556  -0.986  0.00  0.00    +0.041 C 
ATOM     16  H   UNL     1      -4.097   0.120   4.741  0.00  0.00    +0.168 HD
ENDROOT
BRANCH   6  17
ATOM     17  N   UNL     1      -1.608   0.347   4.998  0.00  0.00    -0.316 N 
ATOM     18  C   UNL     1      -1.165   1.680   5.433  0.00  0.00    +0.106 C 
ATOM     19  C   UNL     1      -0.386   1.496   6.752  0.00  0.00    +0.020 C 
ATOM     20  C   UNL     1       0.052   0.008   6.693  0.00  0.00    +0.020 C 
ATOM     21  C   UNL     1      -1.170  -0.645   5.996  0.00  0.00    +0.106 C 
ENDBRANCH   6  17
BRANCH  11  22
ATOM     22  C   UNL     1      -7.116  -1.043  -0.122  0.00  0.00    +0.257 C 
ATOM     23  O   UNL     1      -6.902  -1.259  -1.302  0.00  0.00    -0.269 OA
ATOM     24  N   UNL     1      -8.381  -1.040   0.344  0.00  0.00    -0.278 N 
ATOM     25  H   UNL     1      -8.558  -0.787   1.264  0.00  0.00    +0.155 HD
BRANCH  24  26
ATOM     26  C   UNL     1      -9.440  -1.401  -0.500  0.00  0.00    +0.076 A 
ATOM     27  C   UNL     1      -9.208  -2.226  -1.591  0.00  0.00    +0.030 A 
ATOM     28  C   UNL     1     -10.252  -2.582  -2.423  0.00  0.00    +0.047 A 
ATOM     29  C   UNL     1     -11.534  -2.117  -2.170  0.00  0.00    +0.124 A 
ATOM     30  C   UNL     1     -11.771  -1.292  -1.081  0.00  0.00    +0.093 A 
ATOM     31  C   UNL     1     -10.728  -0.938  -0.241  0.00  0.00    +0.145 A 
BRANCH  31  32
ATOM     32  O   UNL     1     -10.960  -0.134   0.831  0.00  0.00    -0.493 OA
ATOM     33  C   UNL     1     -12.304   0.304   1.035  0.00  0.00    +0.277 C 
ENDBRANCH  31  32
BRANCH  29  34
ATOM     34  O   UNL     1     -12.559  -2.469  -2.991  0.00  0.00    -0.495 OA
ATOM     35  C   UNL     1     -12.244  -3.321  -4.094  0.00  0.00    +0.277 C 
ENDBRANCH  29  34
ENDBRANCH  24  26
ENDBRANCH  11  22
BRANCH  10  36
ATOM     36  N   UNL     1      -4.232  -0.978  -0.822  0.00  0.00    -0.356 N 
ATOM     37  H   UNL     1      -3.388  -1.434  -0.967  0.00  0.00    +0.142 HD
ATOM     38  H   UNL     1      -4.756  -0.676  -1.580  0.00  0.00    +0.142 HD
ENDBRANCH  10  36
TORSDOF 6
