REMARK  Name = ZINC58881241
REMARK  8 active torsions:
REMARK  status: ('A' for Active; 'I' for Inactive)
REMARK    1  A    between atoms: C_4  and  N_7
REMARK    2  A    between atoms: C_8  and  C_10
REMARK    3  A    between atoms: C_10  and  O_11
REMARK    4  A    between atoms: O_11  and  C_12
REMARK    5  A    between atoms: C_15  and  C_18
REMARK    6  A    between atoms: N_19  and  N_20
REMARK    7  A    between atoms: C_21  and  C_23
REMARK    8  A    between atoms: N_25  and  C_26
REMARK                            x       y       z     vdW  Elec       q    Type
REMARK                         _______ _______ _______ _____ _____    ______ ____
ROOT
ATOM      1  C   UNL     1       5.902  -4.933  -0.142  0.00  0.00    +0.121 A 
ATOM      2  C   UNL     1       7.179  -4.411  -0.302  0.00  0.00    +0.046 A 
ATOM      3  C   UNL     1       8.280  -5.235  -0.209  0.00  0.00    +0.013 A 
ATOM      4  C   UNL     1       8.109  -6.599   0.047  0.00  0.00    -0.005 A 
ATOM      5  C   UNL     1       6.822  -7.120   0.207  0.00  0.00    +0.013 A 
ATOM      6  C   UNL     1       5.728  -6.287   0.117  0.00  0.00    +0.046 A 
ENDROOT
BRANCH   4   7
ATOM      7  C   UNL     1       9.283  -7.484   0.147  0.00  0.00    +0.138 C 
ATOM      8  N   UNL     1       9.122  -8.751   0.384  0.00  0.00    -0.187 NA
BRANCH   8   9
ATOM      9  N   UNL     1      10.238  -9.593   0.479  0.00  0.00    -0.199 N 
ATOM     10  C   UNL     1      10.071 -10.908   0.726  0.00  0.00    +0.318 C 
ATOM     11  O   UNL     1       8.953 -11.362   0.866  0.00  0.00    -0.263 OA
ATOM     12  H   UNL     1      11.130  -9.230   0.368  0.00  0.00    +0.178 HD
BRANCH  10  13
ATOM     13  C   UNL     1      11.258 -11.804   0.827  0.00  0.00    +0.305 C 
ATOM     14  O   UNL     1      12.375 -11.349   0.687  0.00  0.00    -0.265 OA
ATOM     15  N   UNL     1      11.091 -13.118   1.073  0.00  0.00    -0.278 N 
ATOM     16  H   UNL     1      10.198 -13.495   1.111  0.00  0.00    +0.155 HD
BRANCH  15  17
ATOM     17  C   UNL     1      12.205 -13.938   1.275  0.00  0.00    +0.035 A 
ATOM     18  C   UNL     1      12.180 -15.262   0.853  0.00  0.00    +0.023 A 
ATOM     19  C   UNL     1      13.282 -16.070   1.053  0.00  0.00    +0.003 A 
ATOM     20  C   UNL     1      14.410 -15.563   1.672  0.00  0.00    +0.015 A 
ATOM     21  C   UNL     1      14.438 -14.245   2.093  0.00  0.00    +0.020 A 
ATOM     22  C   UNL     1      13.341 -13.430   1.891  0.00  0.00    +0.038 A 
ATOM     23 BR   UNL     1      15.983 -13.557   2.940  0.00  0.00    -0.050 Br
ENDBRANCH  15  17
ENDBRANCH  10  13
ENDBRANCH   8   9
ENDBRANCH   4   7
BRANCH   1  24
ATOM     24  O   UNL     1       4.821  -4.117  -0.234  0.00  0.00    -0.483 OA
BRANCH  24  25
ATOM     25  C   UNL     1       5.071  -2.736  -0.503  0.00  0.00    +0.324 C 
BRANCH  25  27
ATOM     26  N   UNL     1       3.752  -0.666  -0.814  0.00  0.00    -0.283 N 
ATOM     27  C   UNL     1       3.762  -1.992  -0.570  0.00  0.00    +0.255 C 
ATOM     28  O   UNL     1       2.718  -2.586  -0.403  0.00  0.00    -0.272 OA
ATOM     29  H   UNL     1       4.580  -0.205  -1.020  0.00  0.00    +0.155 HD
BRANCH  26  33
ATOM     30  C   UNL     1       0.166   1.450  -0.681  0.00  0.00    +0.000 A 
ATOM     31  C   UNL     1       0.362   0.371   0.161  0.00  0.00    +0.002 A 
ATOM     32  C   UNL     1       1.550  -0.333   0.119  0.00  0.00    +0.023 A 
ATOM     33  C   UNL     1       2.548   0.044  -0.769  0.00  0.00    +0.033 A 
ATOM     34  C   UNL     1       2.348   1.129  -1.614  0.00  0.00    +0.023 A 
ATOM     35  C   UNL     1       1.158   1.829  -1.567  0.00  0.00    +0.002 A 
ENDBRANCH  26  33
ENDBRANCH  25  27
ENDBRANCH  24  25
ENDBRANCH   1  24
TORSDOF 8
