REMARK  Name = ZINC43942480
REMARK  6 active torsions:
REMARK  status: ('A' for Active; 'I' for Inactive)
REMARK    1  A    between atoms: C_8  and  C_10
REMARK    2  A    between atoms: C_15  and  C_18
REMARK    3  A    between atoms: C_18  and  N_19
REMARK    4  A    between atoms: C_20  and  C_22
REMARK    5  A    between atoms: N_24  and  C_25
REMARK    6  A    between atoms: C_28  and  N_31
REMARK                            x       y       z     vdW  Elec       q    Type
REMARK                         _______ _______ _______ _____ _____    ______ ____
ROOT
ATOM      1  C   UNL     1       8.680  -3.443   2.010  0.00  0.00    +0.108 C 
ENDROOT
BRANCH   1   7
ATOM      2  C   UNL     1       3.347  -4.220   1.185  0.00  0.00    +0.282 C 
ATOM      3  O   UNL     1       2.928  -5.286   1.594  0.00  0.00    -0.267 OA
ATOM      4  N   UNL     1       4.642  -4.095   0.834  0.00  0.00    -0.295 N 
ATOM      5  C   UNL     1       5.202  -2.779   0.495  0.00  0.00    +0.108 C 
ATOM      6  C   UNL     1       6.445  -2.536   1.357  0.00  0.00    +0.024 C 
ATOM      7  C   UNL     1       7.422  -3.700   1.177  0.00  0.00    +0.009 C 
ATOM      8  C   UNL     1       6.760  -5.000   1.640  0.00  0.00    +0.024 C 
ATOM      9  C   UNL     1       5.522  -5.270   0.787  0.00  0.00    +0.108 C 
BRANCH   2  17
ATOM     10  C   UNL     1      -0.728   0.234   0.968  0.00  0.00    +0.001 A 
ATOM     11  C   UNL     1       0.314   0.898   0.335  0.00  0.00    +0.004 A 
ATOM     12  C   UNL     1       1.526   0.275   0.132  0.00  0.00    +0.047 A 
ATOM     13  C   UNL     1       1.712  -1.034   0.563  0.00  0.00    +0.136 A 
ATOM     14  C   UNL     1       0.652  -1.702   1.204  0.00  0.00    +0.021 A 
ATOM     15  C   UNL     1      -0.569  -1.051   1.401  0.00  0.00    +0.011 A 
ATOM     16  C   UNL     1       1.161  -3.034   1.528  0.00  0.00    +0.063 A 
ATOM     17  C   UNL     1       2.441  -3.068   1.075  0.00  0.00    +0.191 A 
ATOM     18  O   UNL     1       2.756  -1.884   0.508  0.00  0.00    -0.450 OA
ENDBRANCH   2  17
ENDBRANCH   1   7
BRANCH   1  19
ATOM     19  N   UNL     1       9.663  -4.497   1.746  0.00  0.00    -0.307 N 
ATOM     20  C   UNL     1      10.856  -4.477   2.372  0.00  0.00    +0.299 C 
ATOM     21  O   UNL     1      11.116  -3.587   3.155  0.00  0.00    -0.265 OA
ATOM     22  H   UNL     1       9.456  -5.208   1.120  0.00  0.00    +0.149 HD
BRANCH  20  23
ATOM     23  C   UNL     1      11.859  -5.551   2.103  0.00  0.00    +0.303 C 
ATOM     24  O   UNL     1      11.600  -6.441   1.320  0.00  0.00    -0.265 OA
ATOM     25  N   UNL     1      13.052  -5.531   2.730  0.00  0.00    -0.278 N 
ATOM     26  H   UNL     1      13.228  -4.869   3.417  0.00  0.00    +0.155 HD
BRANCH  25  27
ATOM     27  C   UNL     1      14.035  -6.463   2.390  0.00  0.00    +0.034 A 
ATOM     28  C   UNL     1      14.829  -7.031   3.379  0.00  0.00    +0.025 A 
ATOM     29  C   UNL     1      15.799  -7.953   3.040  0.00  0.00    +0.034 A 
ATOM     30  C   UNL     1      15.982  -8.310   1.716  0.00  0.00    +0.126 A 
ATOM     31  C   UNL     1      15.195  -7.748   0.729  0.00  0.00    +0.034 A 
ATOM     32  C   UNL     1      14.218  -6.830   1.062  0.00  0.00    +0.025 A 
BRANCH  30  33
ATOM     33  N   UNL     1      17.024  -9.298   1.356  0.00  0.00    +0.056 N 
ATOM     34  O   UNL     1      17.714  -9.791   2.218  0.00  0.00    -0.126 OA
ATOM     35  O   UNL     1      17.186  -9.612   0.200  0.00  0.00    -0.126 OA
ENDBRANCH  30  33
ENDBRANCH  25  27
ENDBRANCH  20  23
ENDBRANCH   1  19
TORSDOF 6
