REMARK  Name = ZINC37059190
REMARK  4 active torsions:
REMARK  status: ('A' for Active; 'I' for Inactive)
REMARK    1  A    between atoms: C_1  and  C_2
REMARK    2  A    between atoms: C_5  and  N_11
REMARK    3  A    between atoms: C_7  and  N_8
REMARK    4  A    between atoms: N_11  and  C_12
REMARK                            x       y       z     vdW  Elec       q    Type
REMARK                         _______ _______ _______ _____ _____    ______ ____
ROOT
ATOM      1  N   UNL     1       0.558  -4.114  -0.096  0.00  0.00    -0.337 N 
ATOM      2  H   UNL     1       0.817  -4.584   0.712  0.00  0.00    +0.147 HD
ENDROOT
BRANCH   1   3
ATOM      3  C   UNL     1       0.450  -4.840  -1.364  0.00  0.00    +0.107 C 
ATOM      4  C   UNL     1       0.172  -6.318  -1.082  0.00  0.00    +0.068 C 
ATOM      5  C   UNL     1       0.356  -7.101  -2.389  0.00  0.00    +0.231 C 
ATOM      6  O   UNL     1       1.728  -7.012  -2.776  0.00  0.00    -0.492 OA
ATOM      7  C   UNL     1       2.304  -5.782  -2.792  0.00  0.00    +0.125 A 
ATOM      8  C   UNL     1       1.741  -4.705  -2.131  0.00  0.00    +0.014 A 
ATOM      9  C   UNL     1       2.367  -3.470  -2.170  0.00  0.00    +0.009 A 
ATOM     10  C   UNL     1       3.550  -3.309  -2.866  0.00  0.00    +0.001 A 
ATOM     11  C   UNL     1       4.113  -4.384  -3.529  0.00  0.00    +0.004 A 
ATOM     12  C   UNL     1       3.494  -5.615  -3.494  0.00  0.00    +0.046 A 
ENDBRANCH   1   3
BRANCH   1  17
ATOM     13  C   UNL     1      -0.537   1.447   0.088  0.00  0.00    +0.046 C 
ATOM     14  C   UNL     1      -0.246  -0.031   0.040  0.00  0.00    -0.020 A 
ATOM     15  C   UNL     1      -0.348  -0.715  -1.158  0.00  0.00    +0.007 A 
ATOM     16  C   UNL     1      -0.082  -2.069  -1.207  0.00  0.00    +0.023 A 
ATOM     17  C   UNL     1       0.289  -2.744  -0.051  0.00  0.00    +0.030 A 
ATOM     18  C   UNL     1       0.390  -2.054   1.150  0.00  0.00    +0.056 A 
ATOM     19  C   UNL     1       0.127  -0.699   1.191  0.00  0.00    +0.131 A 
BRANCH  19  20
ATOM     20  N   UNL     1       0.241   0.038   2.469  0.00  0.00    +0.057 N 
ATOM     21  O   UNL     1       0.674   1.167   2.480  0.00  0.00    -0.126 OA
ATOM     22  O   UNL     1      -0.100  -0.488   3.503  0.00  0.00    -0.126 OA
ENDBRANCH  19  20
ENDBRANCH   1  17
TORSDOF 3
