REMARK  Name = ZINC13510584
REMARK  8 active torsions:
REMARK  status: ('A' for Active; 'I' for Inactive)
REMARK    1  A    between atoms: C_1  and  C_2
REMARK    2  A    between atoms: C_2  and  C_3
REMARK    3  A    between atoms: C_11  and  C_15
REMARK    4  A    between atoms: C_16  and  S_18
REMARK    5  A    between atoms: S_18  and  C_19
REMARK    6  A    between atoms: C_19  and  C_20
REMARK    7  A    between atoms: N_22  and  C_23
REMARK    8  A    between atoms: C_24  and  C_33
REMARK                            x       y       z     vdW  Elec       q    Type
REMARK                         _______ _______ _______ _____ _____    ______ ____
ROOT
ATOM      1  S   UNL     1       1.472  -2.353  -0.054  0.00  0.00    -0.096 S 
ENDROOT
BRANCH   1  14
ATOM      2  C   UNL     1       2.265   1.501  -0.046  0.00  0.00    +0.131 A 
ATOM      3  N   UNL     1       1.093   2.107  -0.043  0.00  0.00    -0.225 NA
ATOM      4  C   UNL     1      -0.021   1.402  -0.042  0.00  0.00    +0.113 A 
ATOM      5  C   UNL     1      -0.001  -0.007  -0.046  0.00  0.00    +0.043 A 
ATOM      6  C   UNL     1      -1.309  -0.663  -0.044  0.00  0.00    -0.025 A 
ATOM      7  C   UNL     1      -2.395   0.137  -0.039  0.00  0.00    -0.004 A 
ATOM      8  S   UNL     1      -1.752   1.789  -0.044  0.00  0.00    -0.073 S 
ATOM      9  C   UNL     1      -3.833  -0.285  -0.037  0.00  0.00    +0.046 C 
ATOM     10  C   UNL     1      -3.901  -1.773   0.334  0.00  0.00    -0.009 C 
ATOM     11  C   UNL     1      -2.875  -2.537  -0.507  0.00  0.00    +0.008 C 
ATOM     12  C   UNL     1      -1.460  -2.182  -0.048  0.00  0.00    +0.037 C 
ATOM     13  C   UNL     1      -5.304  -2.310   0.045  0.00  0.00    +0.008 C 
ATOM     14  C   UNL     1       1.293  -0.600  -0.050  0.00  0.00    +0.109 A 
ATOM     15  N   UNL     1       2.360   0.184  -0.050  0.00  0.00    -0.225 NA
BRANCH   2  17
ATOM     16  C   UNL     1       3.947   2.615  -1.489  0.00  0.00    +0.012 C 
ATOM     17  C   UNL     1       3.523   2.331  -0.046  0.00  0.00    +0.073 C 
ENDBRANCH   2  17
ENDBRANCH   1  14
BRANCH   1  18
ATOM     18  C   UNL     1       3.277  -2.484  -0.059  0.00  0.00    +0.171 C 
BRANCH  18  19
ATOM     19  C   UNL     1       3.675  -3.937  -0.063  0.00  0.00    +0.228 C 
ATOM     20  O   UNL     1       2.822  -4.800  -0.063  0.00  0.00    -0.275 OA
ATOM     21  N   UNL     1       4.979  -4.279  -0.067  0.00  0.00    -0.279 N 
ATOM     22  H   UNL     1       5.660  -3.592  -0.136  0.00  0.00    +0.155 HD
BRANCH  21  23
ATOM     23  C   UNL     1       5.352  -5.632   0.029  0.00  0.00    +0.118 A 
ATOM     24  C   UNL     1       6.128  -6.060   1.052  0.00  0.00    +0.044 A 
ATOM     25  N   UNL     1       6.477  -7.384   1.130  0.00  0.00    -0.310 N 
ATOM     26  H   UNL     1       7.044  -7.703   1.889  0.00  0.00    +0.170 HD
ATOM     27  C   UNL     1       6.064  -8.258   0.194  0.00  0.00    +0.327 A 
ATOM     28  O   UNL     1       6.390  -9.426   0.281  0.00  0.00    -0.247 OA
ATOM     29  N   UNL     1       5.295  -7.859  -0.836  0.00  0.00    -0.274 N 
ATOM     30  H   UNL     1       4.998  -8.524  -1.521  0.00  0.00    +0.173 HD
ATOM     31  C   UNL     1       4.924  -6.568  -0.950  0.00  0.00    +0.276 A 
ATOM     32  O   UNL     1       4.229  -6.208  -1.883  0.00  0.00    -0.266 OA
ATOM     33  C   UNL     1       6.601  -5.088   2.103  0.00  0.00    +0.065 C 
ENDBRANCH  21  23
ENDBRANCH  18  19
ENDBRANCH   1  18
TORSDOF 5
