REMARK  Name = ZINC24023129
REMARK  14 active torsions:
REMARK  status: ('A' for Active; 'I' for Inactive)
REMARK    1  A    between atoms: C_1  and  C_2
REMARK    2  A    between atoms: C_2  and  C_4
REMARK    3  A    between atoms: C_2  and  O_25
REMARK    4  A    between atoms: N_6  and  C_7
REMARK    5  A    between atoms: N_6  and  C_11
REMARK    6  A    between atoms: C_7  and  C_8
REMARK    7  A    between atoms: C_8  and  C_9
REMARK    8  A    between atoms: C_8  and  C_10
REMARK    9  A    between atoms: C_12  and  N_24
REMARK   10  A    between atoms: N_13  and  C_20
REMARK   11  A    between atoms: C_20  and  C_21
REMARK   12  A    between atoms: C_21  and  C_22
REMARK   13  A    between atoms: C_21  and  C_23
REMARK   14  A    between atoms: O_25  and  C_26
REMARK                            x       y       z     vdW  Elec       q    Type
REMARK                         _______ _______ _______ _____ _____    ______ ____
ROOT
ATOM      1  C   UNL     1       0.915  -0.606   1.413  0.00  0.00    +0.260 C 
ATOM      2  O   UNL     1       0.197  -0.271   0.495  0.00  0.00    -0.271 OA
ATOM      3  N   UNL     1       2.151  -0.077   1.532  0.00  0.00    -0.261 N 
ENDROOT
BRANCH   3   4
ATOM      4  C   UNL     1       2.952  -0.398   2.648  0.00  0.00    +0.140 A 
ATOM      5  C   UNL     1       4.154  -1.055   2.483  0.00  0.00    +0.127 A 
ATOM      6  N   UNL     1       4.913  -1.354   3.591  0.00  0.00    -0.280 N 
ATOM      7  C   UNL     1       4.488  -1.010   4.820  0.00  0.00    +0.331 A 
ATOM      8  O   UNL     1       5.174  -1.283   5.787  0.00  0.00    -0.246 OA
ATOM      9  N   UNL     1       3.320  -0.369   5.000  0.00  0.00    -0.273 N 
ATOM     10  H   UNL     1       3.036  -0.131   5.896  0.00  0.00    +0.173 HD
ATOM     11  C   UNL     1       2.541  -0.048   3.948  0.00  0.00    +0.277 A 
ATOM     12  O   UNL     1       1.485   0.537   4.122  0.00  0.00    -0.266 OA
BRANCH   5  13
ATOM     13  N   UNL     1       4.588  -1.407   1.228  0.00  0.00    -0.343 N 
ATOM     14  H   UNL     1       4.083  -1.133   0.446  0.00  0.00    +0.144 HD
ATOM     15  H   UNL     1       5.398  -1.929   1.123  0.00  0.00    +0.144 HD
ENDBRANCH   5  13
BRANCH   6  16
ATOM     16  C   UNL     1       6.191  -2.052   3.431  0.00  0.00    +0.131 C 
BRANCH  16  17
ATOM     17  C   UNL     1       7.313  -1.027   3.253  0.00  0.00    +0.003 C 
ATOM     18  C   UNL     1       8.661  -1.748   3.211  0.00  0.00    +0.009 C 
ATOM     19  C   UNL     1       7.103  -0.262   1.945  0.00  0.00    +0.009 C 
ENDBRANCH  16  17
ENDBRANCH   6  16
ENDBRANCH   3   4
BRANCH   1  21
ATOM     20  C   UNL     1       1.159  -2.941   2.212  0.00  0.00    +0.062 C 
ATOM     21  C   UNL     1       0.427  -1.614   2.422  0.00  0.00    +0.256 C 
BRANCH  21  22
ATOM     22  O   UNL     1      -0.978  -1.813   2.255  0.00  0.00    -0.480 OA
BRANCH  22  23
ATOM     23  C   UNL     1      -1.677  -2.223   3.346  0.00  0.00    +0.122 A 
ATOM     24  C   UNL     1      -1.025  -2.420   4.554  0.00  0.00    +0.047 A 
ATOM     25  C   UNL     1      -1.738  -2.836   5.662  0.00  0.00    +0.019 A 
ATOM     26  C   UNL     1      -3.100  -3.057   5.567  0.00  0.00    +0.018 A 
ATOM     27  C   UNL     1      -3.752  -2.861   4.362  0.00  0.00    +0.019 A 
ATOM     28  C   UNL     1      -3.044  -2.439   3.254  0.00  0.00    +0.047 A 
ATOM     29 BR   UNL     1      -4.073  -3.627   7.085  0.00  0.00    -0.050 Br
ENDBRANCH  22  23
ENDBRANCH  21  22
ENDBRANCH   1  21
BRANCH   3  30
ATOM     30  C   UNL     1       2.660   0.832   0.501  0.00  0.00    +0.117 C 
BRANCH  30  31
ATOM     31  C   UNL     1       2.399   2.279   0.923  0.00  0.00    +0.001 C 
ATOM     32  C   UNL     1       3.048   3.229  -0.086  0.00  0.00    +0.009 C 
ATOM     33  C   UNL     1       0.891   2.534   0.966  0.00  0.00    +0.009 C 
ENDBRANCH  30  31
ENDBRANCH   3  30
TORSDOF 9
