REMARK  Name = ZINC04674940
REMARK  7 active torsions:
REMARK  status: ('A' for Active; 'I' for Inactive)
REMARK    1  A    between atoms: C_1  and  C_2
REMARK    2  A    between atoms: C_2  and  C_22
REMARK    3  A    between atoms: N_3  and  N_4
REMARK    4  A    between atoms: C_5  and  C_7
REMARK    5  A    between atoms: C_7  and  C_8
REMARK    6  A    between atoms: C_8  and  N_9
REMARK    7  A    between atoms: C_25  and  N_28
REMARK                            x       y       z     vdW  Elec       q    Type
REMARK                         _______ _______ _______ _____ _____    ______ ____
ROOT
ATOM      1  N   UNL     1       6.214   3.228  -2.651  0.00  0.00    -0.207 N 
ATOM      2  C   UNL     1       5.567   3.367  -1.477  0.00  0.00    +0.234 C 
ATOM      3  O   UNL     1       6.169   3.232  -0.433  0.00  0.00    -0.274 OA
ATOM      4  H   UNL     1       5.732   3.335  -3.486  0.00  0.00    +0.177 HD
ENDROOT
BRANCH   1   7
ATOM      5  C   UNL     1       7.456   2.961  -5.093  0.00  0.00    +0.068 C 
ATOM      6  C   UNL     1       8.205   2.794  -3.796  0.00  0.00    +0.063 C 
ATOM      7  N   UNL     1       7.582   2.928  -2.666  0.00  0.00    -0.185 NA
BRANCH   6   8
ATOM      8  C   UNL     1       9.646   2.478  -3.811  0.00  0.00    -0.002 A 
ATOM      9  C   UNL     1      10.318   2.327  -5.026  0.00  0.00    +0.012 A 
ATOM     10  C   UNL     1      11.666   2.037  -5.033  0.00  0.00    +0.033 A 
ATOM     11  C   UNL     1      12.351   1.885  -3.840  0.00  0.00    +0.126 A 
ATOM     12  C   UNL     1      11.690   2.027  -2.633  0.00  0.00    +0.033 A 
ATOM     13  C   UNL     1      10.342   2.322  -2.611  0.00  0.00    +0.012 A 
BRANCH  11  14
ATOM     14  N   UNL     1      13.797   1.568  -3.855  0.00  0.00    +0.056 N 
ATOM     15  O   UNL     1      14.402   1.433  -2.807  0.00  0.00    -0.126 OA
ATOM     16  O   UNL     1      14.381   1.442  -4.917  0.00  0.00    -0.126 OA
ENDBRANCH  11  14
ENDBRANCH   6   8
ENDBRANCH   1   7
BRANCH   2  17
ATOM     17  C   UNL     1       4.095   3.690  -1.461  0.00  0.00    +0.119 C 
BRANCH  17  18
ATOM     18  C   UNL     1       3.611   3.792  -0.013  0.00  0.00    +0.131 C 
BRANCH  18  19
ATOM     19  N   UNL     1       2.180   4.106   0.002  0.00  0.00    -0.339 N 
ATOM     20  C   UNL     1       1.164   3.167   0.007  0.00  0.00    +0.050 A 
ATOM     21  C   UNL     1       1.175   1.775   0.000  0.00  0.00    +0.026 A 
ATOM     22  C   UNL     1      -0.013   1.076   0.008  0.00  0.00    +0.002 A 
ATOM     23  C   UNL     1      -1.226   1.746   0.017  0.00  0.00    +0.001 A 
ATOM     24  C   UNL     1      -1.257   3.124   0.031  0.00  0.00    +0.010 A 
ATOM     25  C   UNL     1      -0.064   3.844   0.023  0.00  0.00    +0.008 A 
ATOM     26  C   UNL     1       0.252   5.284   0.027  0.00  0.00    +0.008 A 
ATOM     27  C   UNL     1       1.651   5.384   0.013  0.00  0.00    +0.050 A 
ATOM     28  C   UNL     1       2.243   6.644   0.013  0.00  0.00    +0.026 A 
ATOM     29  C   UNL     1       1.457   7.776   0.027  0.00  0.00    +0.002 A 
ATOM     30  C   UNL     1       0.074   7.674   0.040  0.00  0.00    +0.001 A 
ATOM     31  C   UNL     1      -0.531   6.436   0.040  0.00  0.00    +0.010 A 
ENDBRANCH  18  19
ENDBRANCH  17  18
ENDBRANCH   2  17
TORSDOF 6
