REMARK  Name = ZINC11342491
REMARK  9 active torsions:
REMARK  status: ('A' for Active; 'I' for Inactive)
REMARK    1  A    between atoms: C_1  and  C_2
REMARK    2  A    between atoms: C_5  and  C_9
REMARK    3  A    between atoms: C_7  and  C_8
REMARK    4  A    between atoms: C_9  and  O_11
REMARK    5  A    between atoms: O_11  and  C_12
REMARK    6  A    between atoms: C_12  and  C_14
REMARK    7  A    between atoms: C_12  and  C_15
REMARK    8  A    between atoms: N_17  and  C_18
REMARK    9  A    between atoms: C_21  and  N_25
REMARK                            x       y       z     vdW  Elec       q    Type
REMARK                         _______ _______ _______ _____ _____    ______ ____
ROOT
ATOM      1  C   UNL     1      -0.624  -6.914  -2.330  0.00  0.00    +0.258 C 
ATOM      2  O   UNL     1      -1.023  -6.175  -3.205  0.00  0.00    -0.271 OA
ATOM      3  N   UNL     1      -0.825  -8.243  -2.427  0.00  0.00    -0.281 N 
ATOM      4  H   UNL     1      -0.450  -8.840  -1.761  0.00  0.00    +0.155 HD
ENDROOT
BRANCH   3   5
ATOM      5  C   UNL     1      -1.574  -8.762  -3.490  0.00  0.00    +0.052 A 
ATOM      6  C   UNL     1      -1.512  -8.165  -4.742  0.00  0.00    +0.027 A 
ATOM      7  C   UNL     1      -2.252  -8.680  -5.788  0.00  0.00    +0.034 A 
ATOM      8  C   UNL     1      -3.055  -9.789  -5.591  0.00  0.00    +0.128 A 
ATOM      9  C   UNL     1      -3.119 -10.386  -4.345  0.00  0.00    +0.054 A 
ATOM     10  C   UNL     1      -2.377  -9.879  -3.295  0.00  0.00    +0.064 A 
ATOM     11 CL   UNL     1      -2.453 -10.634  -1.734  0.00  0.00    -0.082 Cl
BRANCH   8  12
ATOM     12  N   UNL     1      -3.847 -10.337  -6.715  0.00  0.00    +0.056 N 
ATOM     13  O   UNL     1      -3.792  -9.815  -7.804  0.00  0.00    -0.126 OA
ATOM     14  O   UNL     1      -4.549 -11.306  -6.543  0.00  0.00    -0.126 OA
ENDBRANCH   8  12
ENDBRANCH   3   5
BRANCH   1  15
ATOM     15  C   UNL     1       0.095  -6.346  -1.134  0.00  0.00    +0.259 C 
ATOM     16  C   UNL     1       1.543  -6.842  -1.127  0.00  0.00    +0.062 C 
BRANCH  15  17
ATOM     17  O   UNL     1       0.081  -4.919  -1.203  0.00  0.00    -0.449 OA
BRANCH  17  18
ATOM     18  C   UNL     1       0.089  -4.250  -0.034  0.00  0.00    +0.340 C 
ATOM     19  O   UNL     1       0.107  -4.861   1.016  0.00  0.00    -0.245 OA
BRANCH  18  24
ATOM     20  C   UNL     1       0.032   1.504  -0.011  0.00  0.00    +0.044 C 
ATOM     21  C   UNL     1       0.048  -0.003  -0.017  0.00  0.00    -0.047 A 
ATOM     22  C   UNL     1       0.040  -0.687  -1.220  0.00  0.00    +0.004 A 
ATOM     23  C   UNL     1       0.054  -2.066  -1.233  0.00  0.00    +0.015 A 
ATOM     24  C   UNL     1       0.075  -2.772  -0.028  0.00  0.00    +0.059 A 
ATOM     25  C   UNL     1       0.083  -2.076   1.182  0.00  0.00    +0.018 A 
ATOM     26  C   UNL     1       0.074  -0.696   1.180  0.00  0.00    -0.047 A 
ATOM     27  C   UNL     1       0.089   0.057   2.485  0.00  0.00    +0.044 C 
ENDBRANCH  18  24
ENDBRANCH  17  18
ENDBRANCH  15  17
ENDBRANCH   1  15
TORSDOF 6
