REMARK  Name = ZINC09604375
REMARK  10 active torsions:
REMARK  status: ('A' for Active; 'I' for Inactive)
REMARK    1  A    between atoms: C_3  and  N_28
REMARK    2  A    between atoms: C_4  and  N_16
REMARK    3  A    between atoms: C_6  and  S_7
REMARK    4  A    between atoms: S_7  and  N_10
REMARK    5  A    between atoms: N_16  and  C_17
REMARK    6  A    between atoms: C_17  and  C_18
REMARK    7  A    between atoms: N_20  and  C_21
REMARK    8  A    between atoms: C_21  and  C_26
REMARK    9  A    between atoms: N_28  and  C_29
REMARK   10  A    between atoms: C_29  and  C_30
REMARK                            x       y       z     vdW  Elec       q    Type
REMARK                         _______ _______ _______ _____ _____    ______ ____
ROOT
ATOM      1  C   UNL     1       3.167   6.955  -2.062  0.00  0.00    +0.030 A 
ATOM      2  C   UNL     1       2.712   5.743  -1.574  0.00  0.00    +0.027 A 
ATOM      3  C   UNL     1       3.614   4.810  -1.084  0.00  0.00    +0.048 A 
ATOM      4  C   UNL     1       4.978   5.101  -1.080  0.00  0.00    +0.051 A 
ATOM      5  C   UNL     1       5.426   6.316  -1.575  0.00  0.00    +0.053 A 
ATOM      6  C   UNL     1       4.519   7.240  -2.062  0.00  0.00    +0.107 A 
ENDROOT
BRANCH   6   7
ATOM      7  S   UNL     1       5.091   8.786  -2.684  0.00  0.00    +0.061 S 
ATOM      8  O   UNL     1       6.442   8.591  -3.078  0.00  0.00    -0.153 OA
ATOM      9  O   UNL     1       4.095   9.255  -3.584  0.00  0.00    -0.153 OA
BRANCH   7  10
ATOM     10  N   UNL     1       5.116   9.847  -1.413  0.00  0.00    -0.172 NA
ATOM     11  C   UNL     1       3.941  10.672  -1.091  0.00  0.00    +0.137 C 
ATOM     12  C   UNL     1       3.637  10.511   0.407  0.00  0.00    +0.177 C 
ATOM     13  O   UNL     1       4.824  10.777   1.158  0.00  0.00    -0.377 OA
ATOM     14  C   UNL     1       5.899   9.871   0.895  0.00  0.00    +0.177 C 
ATOM     15  C   UNL     1       6.316   9.996  -0.575  0.00  0.00    +0.137 C 
ENDBRANCH   7  10
ENDBRANCH   6   7
BRANCH   4  16
ATOM     16  N   UNL     1       5.893   4.166  -0.581  0.00  0.00    -0.334 N 
ATOM     17  H   UNL     1       5.579   3.315  -0.238  0.00  0.00    +0.147 HD
BRANCH  16  18
ATOM     18  C   UNL     1       7.326   4.473  -0.578  0.00  0.00    +0.197 C 
BRANCH  18  19
ATOM     19  C   UNL     1       8.087   3.310   0.006  0.00  0.00    +0.231 C 
ATOM     20  O   UNL     1       7.492   2.323   0.382  0.00  0.00    -0.274 OA
ATOM     21  N   UNL     1       9.430   3.368   0.110  0.00  0.00    -0.296 N 
ATOM     22  H   UNL     1       9.906   4.158  -0.190  0.00  0.00    +0.150 HD
BRANCH  21  23
ATOM     23  C   UNL     1      10.170   2.239   0.678  0.00  0.00    +0.121 C 
ATOM     24  C   UNL     1       9.742   2.008   2.142  0.00  0.00    +0.041 C 
ATOM     25  C   UNL     1      11.052   1.600   2.860  0.00  0.00    +0.003 C 
ATOM     26  C   UNL     1      12.111   2.506   2.183  0.00  0.00    +0.003 C 
ATOM     27  C   UNL     1      11.675   2.554   0.704  0.00  0.00    +0.041 C 
BRANCH  23  28
ATOM     28  C   UNL     1       9.923   1.024  -0.117  0.00  0.00    +0.088 C 
ATOM     29  N   UNL     1       9.732   0.087  -0.731  0.00  0.00    -0.194 NA
ENDBRANCH  23  28
ENDBRANCH  21  23
ENDBRANCH  18  19
ENDBRANCH  16  18
ENDBRANCH   4  16
BRANCH   3  30
ATOM     30  N   UNL     1       3.155   3.583  -0.590  0.00  0.00    -0.340 N 
ATOM     31  H   UNL     1       3.787   2.932  -0.247  0.00  0.00    +0.146 HD
BRANCH  30  32
ATOM     32  C   UNL     1       1.721   3.283  -0.590  0.00  0.00    +0.133 C 
BRANCH  32  33
ATOM     33  C   UNL     1       1.492   1.889  -0.002  0.00  0.00    +0.135 C 
ATOM     34  C   UNL     1      -0.019   1.544   0.011  0.00  0.00    +0.035 C 
ATOM     35  C   UNL     1       0.002  -0.004   0.002  0.00  0.00    +0.031 C 
ATOM     36  C   UNL     1       1.398  -0.360  -0.546  0.00  0.00    +0.160 C 
ATOM     37  O   UNL     1       2.062   0.876  -0.858  0.00  0.00    -0.375 OA
ENDBRANCH  32  33
ENDBRANCH  30  32
ENDBRANCH   3  30
TORSDOF 10
