REMARK  Name = ZINC09088447
REMARK  7 active torsions:
REMARK  status: ('A' for Active; 'I' for Inactive)
REMARK    1  A    between atoms: C_1  and  C_2
REMARK    2  A    between atoms: C_5  and  O_22
REMARK    3  A    between atoms: C_6  and  C_8
REMARK    4  A    between atoms: C_8  and  C_9
REMARK    5  A    between atoms: N_11  and  N_12
REMARK    6  A    between atoms: C_13  and  C_14
REMARK    7  A    between atoms: C_19  and  O_20
REMARK                            x       y       z     vdW  Elec       q    Type
REMARK                         _______ _______ _______ _____ _____    ______ ____
ROOT
ATOM      1  C   UNL     1      -0.718   1.572   1.248  0.00  0.00    +0.233 C 
ATOM      2  O   UNL     1      -1.715   2.256   1.150  0.00  0.00    -0.274 OA
ATOM      3  N   UNL     1      -0.242   1.246   2.466  0.00  0.00    -0.207 N 
ATOM      4  H   UNL     1       0.555   0.699   2.544  0.00  0.00    +0.177 HD
ENDROOT
BRANCH   3   5
ATOM      5  N   UNL     1      -0.897   1.698   3.618  0.00  0.00    -0.188 NA
ATOM      6  C   UNL     1      -0.438   1.384   4.791  0.00  0.00    +0.142 C 
BRANCH   6   7
ATOM      7  C   UNL     1      -1.128   1.859   6.004  0.00  0.00    +0.037 A 
ATOM      8  C   UNL     1      -0.638   1.524   7.268  0.00  0.00    +0.028 A 
ATOM      9  C   UNL     1      -1.288   1.972   8.399  0.00  0.00    +0.019 A 
ATOM     10  C   UNL     1      -2.427   2.754   8.286  0.00  0.00    +0.019 A 
ATOM     11  C   UNL     1      -2.921   3.092   7.041  0.00  0.00    +0.047 A 
ATOM     12  C   UNL     1      -2.277   2.655   5.895  0.00  0.00    +0.126 A 
ATOM     13 BR   UNL     1      -0.624   1.517  10.110  0.00  0.00    -0.050 Br
BRANCH  12  14
ATOM     14  O   UNL     1      -2.759   2.992   4.671  0.00  0.00    -0.506 OA
ATOM     15  H   UNL     1      -3.402   2.363   4.315  0.00  0.00    +0.292 HD
ENDBRANCH  12  14
ENDBRANCH   6   7
ENDBRANCH   3   5
BRANCH   1  16
ATOM     16  C   UNL     1      -0.013   1.086   0.008  0.00  0.00    +0.116 C 
BRANCH  16  22
ATOM     17  C   UNL     1       0.129  -0.319  -2.930  0.00  0.00    +0.063 C 
ATOM     18  C   UNL     1      -0.070   1.111  -2.496  0.00  0.00    +0.051 C 
ATOM     19  N   UNL     1       0.307   2.173  -3.126  0.00  0.00    -0.155 NA
ATOM     20  N   UNL     1      -0.031   3.341  -2.450  0.00  0.00    -0.116 NA
ATOM     21  C   UNL     1      -0.653   3.102  -1.334  0.00  0.00    +0.216 C 
ATOM     22  C   UNL     1      -0.753   1.593  -1.232  0.00  0.00    +0.131 C 
BRANCH  21  23
ATOM     23  O   UNL     1      -1.115   4.010  -0.449  0.00  0.00    -0.494 OA
ATOM     24  H   UNL     1      -0.971   4.942  -0.661  0.00  0.00    +0.293 HD
ENDBRANCH  21  23
ENDBRANCH  16  22
ENDBRANCH   1  16
TORSDOF 6
