REMARK  Name = ZINC20155176
REMARK  9 active torsions:
REMARK  status: ('A' for Active; 'I' for Inactive)
REMARK    1  A    between atoms: C_1  and  C_2
REMARK    2  A    between atoms: C_7  and  N_12
REMARK    3  A    between atoms: C_9  and  C_11
REMARK    4  A    between atoms: N_12  and  C_13
REMARK    5  A    between atoms: C_13  and  C_14
REMARK    6  A    between atoms: N_16  and  C_17
REMARK    7  A    between atoms: C_20  and  N_36
REMARK    8  A    between atoms: C_22  and  C_23
REMARK    9  A    between atoms: N_25  and  C_26
REMARK                            x       y       z     vdW  Elec       q    Type
REMARK                         _______ _______ _______ _____ _____    ______ ____
ROOT
ATOM      1  C   UNL     1       4.956  -4.130   0.126  0.00  0.00    +0.046 A 
ATOM      2  C   UNL     1       6.172  -4.798   0.190  0.00  0.00    +0.026 A 
ATOM      3  C   UNL     1       7.350  -4.083   0.272  0.00  0.00    +0.034 A 
ATOM      4  C   UNL     1       7.330  -2.698   0.285  0.00  0.00    +0.127 A 
ATOM      5  C   UNL     1       6.133  -2.018   0.217  0.00  0.00    +0.047 A 
ATOM      6  C   UNL     1       4.933  -2.728   0.134  0.00  0.00    +0.060 A 
ENDROOT
BRANCH   1   9
ATOM      7  C   UNL     1       3.706  -6.107   0.532  0.00  0.00    +0.200 C 
ATOM      8  O   UNL     1       4.656  -6.575   1.123  0.00  0.00    -0.278 OA
ATOM      9  N   UNL     1       3.766  -4.850   0.050  0.00  0.00    -0.286 N 
ATOM     10  H   UNL     1       2.875  -4.392  -0.404  0.00  0.00    +0.155 HD
BRANCH   7  11
ATOM     11  C   UNL     1       2.459  -6.930   0.337  0.00  0.00    +0.016 C 
BRANCH  11  12
ATOM     12  N   UNL     1       2.645  -8.252   0.950  0.00  0.00    +0.387 N 
ATOM     13  H   UNL     1       2.848  -8.119   2.022  0.00  0.00    -0.085 HD
ATOM     14  H   UNL     1       3.504  -8.745   0.472  0.00  0.00    -0.085 HD
BRANCH  12  20
ATOM     15  C   UNL     1       0.983 -12.906   0.714  0.00  0.00    +0.008 C 
ATOM     16  C   UNL     1       0.591 -11.429   0.657  0.00  0.00    -0.013 C 
ATOM     17  C   UNL     1      -0.406 -11.123   1.777  0.00  0.00    +0.003 C 
ATOM     18  C   UNL     1      -0.799  -9.645   1.720  0.00  0.00    -0.001 C 
ATOM     19  C   UNL     1       0.449  -8.779   1.898  0.00  0.00    -0.015 C 
ATOM     20  C   UNL     1       1.446  -9.085   0.779  0.00  0.00    -0.068 C 
ATOM     21  C   UNL     1       1.839 -10.562   0.835  0.00  0.00    -0.025 C 
ATOM     22  C   UNL     1       2.836 -10.868  -0.284  0.00  0.00    +0.006 C 
ENDBRANCH  12  20
ENDBRANCH  11  12
ENDBRANCH   7  11
ENDBRANCH   1   9
BRANCH   6  23
ATOM     23  C   UNL     1       3.648  -2.007   0.061  0.00  0.00    +0.250 C 
ATOM     24  O   UNL     1       2.602  -2.625   0.086  0.00  0.00    -0.270 OA
ATOM     25  N   UNL     1       3.635  -0.662  -0.034  0.00  0.00    -0.281 N 
ATOM     26  H   UNL     1       4.580  -0.108  -0.135  0.00  0.00    +0.155 HD
BRANCH  25  27
ATOM     27  C   UNL     1       2.418   0.029  -0.003  0.00  0.00    +0.037 A 
ATOM     28  C   UNL     1       2.342   1.274   0.608  0.00  0.00    +0.027 A 
ATOM     29  C   UNL     1       1.141   1.957   0.639  0.00  0.00    +0.051 A 
ATOM     30  C   UNL     1       0.009   1.401   0.062  0.00  0.00    +0.162 A 
ATOM     31  C   UNL     1       0.082   0.157  -0.552  0.00  0.00    +0.164 A 
ATOM     32  C   UNL     1       1.287  -0.528  -0.583  0.00  0.00    +0.072 A 
ATOM     33  O   UNL     1      -1.016  -0.400  -1.132  0.00  0.00    -0.485 OA
ATOM     34  C   UNL     1      -2.287   0.143  -0.757  0.00  0.00    +0.270 C 
ATOM     35  C   UNL     1      -2.189   1.673  -0.806  0.00  0.00    +0.270 C 
ATOM     36  O   UNL     1      -1.168   2.086   0.110  0.00  0.00    -0.485 OA
ENDBRANCH  25  27
ENDBRANCH   6  23
BRANCH   4  37
ATOM     37  N   UNL     1       8.601  -1.944   0.373  0.00  0.00    +0.056 N 
ATOM     38  O   UNL     1       8.587  -0.726   0.386  0.00  0.00    -0.126 OA
ATOM     39  O   UNL     1       9.661  -2.542   0.434  0.00  0.00    -0.126 OA
ENDBRANCH   4  37
TORSDOF 7
