REMARK  Name = ZINC19885058
REMARK  8 active torsions:
REMARK  status: ('A' for Active; 'I' for Inactive)
REMARK    1  A    between atoms: C_1  and  C_2
REMARK    2  A    between atoms: C_5  and  C_8
REMARK    3  A    between atoms: C_8  and  O_10
REMARK    4  A    between atoms: O_10  and  C_11
REMARK    5  A    between atoms: C_14  and  C_17
REMARK    6  A    between atoms: N_18  and  N_19
REMARK    7  A    between atoms: C_24  and  C_27
REMARK    8  A    between atoms: C_27  and  C_28
REMARK                            x       y       z     vdW  Elec       q    Type
REMARK                         _______ _______ _______ _____ _____    ______ ____
ROOT
ATOM      1  C   UNL     1       1.175   1.773   0.007  0.00  0.00    +0.132 A 
ATOM      2  C   UNL     1      -0.009   1.052   0.111  0.00  0.00    +0.047 A 
ATOM      3  C   UNL     1      -1.219   1.710   0.127  0.00  0.00    +0.013 A 
ATOM      4  C   UNL     1      -1.255   3.107   0.051  0.00  0.00    -0.005 A 
ATOM      5  C   UNL     1      -0.060   3.827  -0.053  0.00  0.00    +0.013 A 
ATOM      6  C   UNL     1       1.145   3.159  -0.074  0.00  0.00    +0.047 A 
ENDROOT
BRANCH   4   7
ATOM      7  C   UNL     1      -2.544   3.814   0.075  0.00  0.00    +0.143 C 
ATOM      8  N   UNL     1      -3.658   3.140   0.172  0.00  0.00    -0.155 NA
BRANCH   8   9
ATOM      9  N   UNL     1      -4.788   3.761   0.192  0.00  0.00    -0.127 NA
ATOM     10  C   UNL     1      -5.911   3.080   0.290  0.00  0.00    +0.183 C 
ATOM     11  N   UNL     1      -6.074   1.714   0.380  0.00  0.00    -0.263 N 
ATOM     12  C   UNL     1      -7.265   1.148   0.475  0.00  0.00    +0.233 C 
ATOM     13  O   UNL     1      -7.402  -0.054   0.554  0.00  0.00    -0.274 OA
ATOM     14  C   UNL     1      -8.451   2.099   0.478  0.00  0.00    +0.151 C 
ATOM     15  S   UNL     1      -7.582   3.711   0.345  0.00  0.00    -0.075 S 
ATOM     16  H   UNL     1      -5.194   1.054   0.375  0.00  0.00    +0.157 HD
BRANCH  14  17
ATOM     17  C   UNL     1      -9.362   1.852  -0.726  0.00  0.00    +0.149 C 
BRANCH  17  18
ATOM     18  C   UNL     1     -10.584   2.728  -0.619  0.00  0.00    +0.358 C 
ATOM     19  O   UNL     1     -10.713   3.472   0.324  0.00  0.00    -0.246 OA
ATOM     20  O   UNL     1     -11.529   2.680  -1.571  0.00  0.00    -0.246 OA
ENDBRANCH  17  18
ENDBRANCH  14  17
ENDBRANCH   8   9
ENDBRANCH   4   7
BRANCH   1  21
ATOM     21  O   UNL     1       2.365   1.119  -0.015  0.00  0.00    -0.422 OA
BRANCH  21  22
ATOM     22  C   UNL     1       2.639   0.382  -1.109  0.00  0.00    +0.344 C 
ATOM     23  O   UNL     1       1.886   0.408  -2.062  0.00  0.00    -0.245 OA
BRANCH  22  28
ATOM     24  C   UNL     1       7.373  -2.884  -1.270  0.00  0.00    +0.044 C 
ATOM     25  C   UNL     1       6.133  -2.029  -1.228  0.00  0.00    -0.050 A 
ATOM     26  C   UNL     1       5.277  -2.002  -2.315  0.00  0.00    +0.004 A 
ATOM     27  C   UNL     1       4.140  -1.221  -2.283  0.00  0.00    +0.015 A 
ATOM     28  C   UNL     1       3.854  -0.457  -1.150  0.00  0.00    +0.059 A 
ATOM     29  C   UNL     1       4.724  -0.484  -0.059  0.00  0.00    +0.015 A 
ATOM     30  C   UNL     1       5.854  -1.274  -0.102  0.00  0.00    +0.004 A 
ENDBRANCH  22  28
ENDBRANCH  21  22
ENDBRANCH   1  21
TORSDOF 7
