REMARK  Name = ZINC54644670
REMARK  6 active torsions:
REMARK  status: ('A' for Active; 'I' for Inactive)
REMARK    1  A    between atoms: C_1  and  C_2
REMARK    2  A    between atoms: C_4  and  N_7
REMARK    3  A    between atoms: N_7  and  S_8
REMARK    4  A    between atoms: S_8  and  C_11
REMARK    5  A    between atoms: C_14  and  N_17
REMARK    6  A    between atoms: C_18  and  C_20
REMARK                            x       y       z     vdW  Elec       q    Type
REMARK                         _______ _______ _______ _____ _____    ______ ____
ROOT
ATOM      1  C   UNL     1      -2.061  -5.951  -0.030  0.00  0.00    +0.111 A 
ATOM      2  C   UNL     1      -2.451  -6.546   1.156  0.00  0.00    +0.031 A 
ATOM      3  C   UNL     1      -3.475  -7.471   1.162  0.00  0.00    +0.025 A 
ATOM      4  C   UNL     1      -4.115  -7.805  -0.025  0.00  0.00    +0.034 A 
ATOM      5  C   UNL     1      -3.721  -7.205  -1.214  0.00  0.00    +0.025 A 
ATOM      6  C   UNL     1      -2.699  -6.277  -1.212  0.00  0.00    +0.031 A 
ENDROOT
BRANCH   4   7
ATOM      7  N   UNL     1      -5.153  -8.742  -0.022  0.00  0.00    -0.279 N 
ATOM      8  C   UNL     1      -5.328  -9.556  -1.082  0.00  0.00    +0.284 C 
ATOM      9  O   UNL     1      -4.527  -9.543  -1.998  0.00  0.00    -0.266 OA
ATOM     10  H   UNL     1      -5.747  -8.806   0.742  0.00  0.00    +0.155 HD
BRANCH   8  11
ATOM     11  C   UNL     1      -6.486 -10.460  -1.130  0.00  0.00    +0.191 A 
ATOM     12  C   UNL     1      -6.760 -11.325  -2.141  0.00  0.00    +0.063 A 
ATOM     13  C   UNL     1      -7.995 -12.011  -1.763  0.00  0.00    +0.022 A 
ATOM     14  C   UNL     1      -8.784 -12.996  -2.362  0.00  0.00    +0.031 A 
ATOM     15  C   UNL     1      -9.914 -13.435  -1.730  0.00  0.00    +0.042 A 
ATOM     16  C   UNL     1     -10.281 -12.909  -0.498  0.00  0.00    +0.023 A 
ATOM     17  C   UNL     1      -9.516 -11.937   0.109  0.00  0.00    +0.048 A 
ATOM     18  C   UNL     1      -8.363 -11.475  -0.515  0.00  0.00    +0.136 A 
ATOM     19  O   UNL     1      -7.434 -10.560  -0.175  0.00  0.00    -0.450 OA
ATOM     20 CL   UNL     1     -10.897 -14.659  -2.473  0.00  0.00    -0.084 Cl
ENDBRANCH   8  11
ENDBRANCH   4   7
BRANCH   1  21
ATOM     21  S   UNL     1      -0.753  -4.770  -0.033  0.00  0.00    +0.093 S 
ATOM     22  O   UNL     1      -0.219  -4.760  -1.349  0.00  0.00    -0.148 OA
ATOM     23  O   UNL     1       0.044  -5.044   1.111  0.00  0.00    -0.148 OA
BRANCH  21  24
ATOM     24  N   UNL     1      -1.437  -3.281   0.212  0.00  0.00    -0.074 NA
BRANCH  24  28
ATOM     25  C   UNL     1      -0.022   1.485   0.611  0.00  0.00    +0.089 C 
ATOM     26  C   UNL     1      -0.006  -0.012   0.437  0.00  0.00    +0.136 A 
ATOM     27  C   UNL     1      -1.080  -0.820   0.458  0.00  0.00    +0.094 A 
ATOM     28  C   UNL     1      -0.634  -2.146   0.257  0.00  0.00    +0.205 A 
ATOM     29  N   UNL     1       0.667  -2.117   0.122  0.00  0.00    -0.060 NA
ATOM     30  O   UNL     1       1.084  -0.768   0.229  0.00  0.00    -0.358 OA
ENDBRANCH  24  28
ENDBRANCH  21  24
ENDBRANCH   1  21
TORSDOF 5
