REMARK  Name = ZINC20155084
REMARK  8 active torsions:
REMARK  status: ('A' for Active; 'I' for Inactive)
REMARK    1  A    between atoms: C_6  and  N_7
REMARK    2  A    between atoms: C_8  and  C_10
REMARK    3  A    between atoms: C_12  and  N_28
REMARK    4  A    between atoms: C_15  and  N_16
REMARK    5  A    between atoms: C_17  and  C_19
REMARK    6  A    between atoms: C_19  and  N_20
REMARK    7  A    between atoms: N_20  and  C_21
REMARK    8  A    between atoms: C_21  and  C_22
REMARK                            x       y       z     vdW  Elec       q    Type
REMARK                         _______ _______ _______ _____ _____    ______ ____
ROOT
ATOM      1  C   UNL     1       4.933  -2.728   0.141  0.00  0.00    +0.060 A 
ATOM      2  C   UNL     1       6.132  -2.019   0.238  0.00  0.00    +0.047 A 
ATOM      3  C   UNL     1       7.326  -2.699   0.343  0.00  0.00    +0.127 A 
ATOM      4  C   UNL     1       7.345  -4.084   0.342  0.00  0.00    +0.034 A 
ATOM      5  C   UNL     1       6.169  -4.799   0.241  0.00  0.00    +0.026 A 
ATOM      6  C   UNL     1       4.955  -4.131   0.140  0.00  0.00    +0.046 A 
ENDROOT
BRANCH   1   8
ATOM      7  N   UNL     1       3.640  -0.663  -0.065  0.00  0.00    -0.281 N 
ATOM      8  C   UNL     1       3.651  -2.007   0.034  0.00  0.00    +0.250 C 
ATOM      9  O   UNL     1       2.603  -2.625   0.036  0.00  0.00    -0.270 OA
ATOM     10  H   UNL     1       4.588  -0.110  -0.143  0.00  0.00    +0.155 HD
BRANCH   7  16
ATOM     11  C   UNL     1       2.330   1.276   0.534  0.00  0.00    +0.027 A 
ATOM     12  C   UNL     1       1.129   1.958   0.531  0.00  0.00    +0.051 A 
ATOM     13  C   UNL     1       0.013   1.402  -0.076  0.00  0.00    +0.162 A 
ATOM     14  C   UNL     1       0.104   0.155  -0.685  0.00  0.00    +0.164 A 
ATOM     15  C   UNL     1       1.308  -0.530  -0.680  0.00  0.00    +0.072 A 
ATOM     16  C   UNL     1       2.423   0.029  -0.070  0.00  0.00    +0.037 A 
ATOM     17  O   UNL     1      -0.979  -0.403  -1.294  0.00  0.00    -0.485 OA
ATOM     18  C   UNL     1      -2.259   0.141  -0.956  0.00  0.00    +0.270 C 
ATOM     19  C   UNL     1      -2.160   1.671  -1.006  0.00  0.00    +0.270 C 
ATOM     20  O   UNL     1      -1.165   2.086  -0.063  0.00  0.00    -0.485 OA
ENDBRANCH   7  16
ENDBRANCH   1   8
BRANCH   6  21
ATOM     21  N   UNL     1       3.767  -4.850   0.038  0.00  0.00    -0.286 N 
ATOM     22  C   UNL     1       3.739  -6.012  -0.644  0.00  0.00    +0.200 C 
ATOM     23  O   UNL     1       4.764  -6.473  -1.099  0.00  0.00    -0.278 OA
ATOM     24  H   UNL     1       2.851  -4.470   0.514  0.00  0.00    +0.155 HD
BRANCH  22  25
ATOM     25  C   UNL     1       2.433  -6.738  -0.842  0.00  0.00    +0.015 C 
BRANCH  25  26
ATOM     26  N   UNL     1       2.668  -7.968  -1.611  0.00  0.00    +0.386 N 
ATOM     27  H   UNL     1       3.098  -7.711  -2.591  0.00  0.00    -0.085 HD
ATOM     28  H   UNL     1       3.369  -8.615  -1.062  0.00  0.00    -0.085 HD
BRANCH  26  29
ATOM     29  C   UNL     1       1.415  -8.704  -1.824  0.00  0.00    -0.050 C 
BRANCH  29  30
ATOM     30  C   UNL     1       1.700  -9.975  -2.626  0.00  0.00    +0.101 C 
ATOM     31  C   UNL     1       0.380 -10.701  -2.969  0.00  0.00    +0.032 C 
ATOM     32  C   UNL     1       0.735 -12.200  -2.852  0.00  0.00    +0.030 C 
ATOM     33  C   UNL     1       2.227 -12.203  -2.451  0.00  0.00    +0.160 C 
ATOM     34  O   UNL     1       2.443 -10.919  -1.825  0.00  0.00    -0.378 OA
ENDBRANCH  29  30
ENDBRANCH  26  29
ENDBRANCH  25  26
ENDBRANCH  22  25
ENDBRANCH   6  21
BRANCH   3  35
ATOM     35  N   UNL     1       8.596  -1.945   0.451  0.00  0.00    +0.056 N 
ATOM     36  O   UNL     1       9.653  -2.543   0.538  0.00  0.00    -0.126 OA
ATOM     37  O   UNL     1       8.583  -0.727   0.453  0.00  0.00    -0.126 OA
ENDBRANCH   3  35
TORSDOF 8
