REMARK  Name = ZINC36273360
REMARK  8 active torsions:
REMARK  status: ('A' for Active; 'I' for Inactive)
REMARK    1  A    between atoms: C_1  and  C_2
REMARK    2  A    between atoms: C_2  and  C_4
REMARK    3  A    between atoms: C_4  and  O_5
REMARK    4  A    between atoms: O_5  and  C_6
REMARK    5  A    between atoms: C_9  and  C_12
REMARK    6  A    between atoms: C_13  and  C_22
REMARK    7  A    between atoms: C_16  and  N_21
REMARK    8  A    between atoms: C_22  and  N_23
REMARK                            x       y       z     vdW  Elec       q    Type
REMARK                         _______ _______ _______ _____ _____    ______ ____
ROOT
ATOM      1  C   UNL     1       0.025  -5.552  -5.524  0.00  0.00    +0.069 A 
ATOM      2  C   UNL     1      -0.750  -6.661  -5.684  0.00  0.00    +0.063 A 
ATOM      3  N   UNL     1      -0.441  -7.194  -6.904  0.00  0.00    -0.302 N 
ATOM      4  C   UNL     1      -0.906  -8.293  -7.573  0.00  0.00    +0.115 A 
ATOM      5  C   UNL     1      -0.423  -8.607  -8.799  0.00  0.00    +0.041 A 
ATOM      6  C   UNL     1       0.566  -7.802  -9.399  0.00  0.00    +0.028 A 
ATOM      7  C   UNL     1       1.033  -6.708  -8.740  0.00  0.00    +0.046 A 
ATOM      8  C   UNL     1       0.520  -6.394  -7.465  0.00  0.00    +0.116 A 
ATOM      9  N   UNL     1       0.785  -5.407  -6.620  0.00  0.00    -0.339 N 
ATOM     10  H   UNL     1       1.426  -4.695  -6.771  0.00  0.00    +0.167 HD
ENDROOT
BRANCH   1  14
ATOM     11  C   UNL     1       0.022  -2.979  -2.136  0.00  0.00    +0.121 A 
ATOM     12  C   UNL     1       0.009  -2.440  -3.415  0.00  0.00    +0.046 A 
ATOM     13  C   UNL     1       0.010  -3.271  -4.515  0.00  0.00    +0.013 A 
ATOM     14  C   UNL     1       0.025  -4.654  -4.342  0.00  0.00    +0.000 A 
ATOM     15  C   UNL     1       0.039  -5.192  -3.057  0.00  0.00    +0.013 A 
ATOM     16  C   UNL     1       0.043  -4.355  -1.960  0.00  0.00    +0.046 A 
BRANCH  11  17
ATOM     17  O   UNL     1       0.021  -2.157  -1.054  0.00  0.00    -0.488 OA
BRANCH  17  18
ATOM     18  C   UNL     1      -0.000  -0.750  -1.307  0.00  0.00    +0.259 C 
BRANCH  18  20
ATOM     19  C   UNL     1      -0.018   1.503   0.010  0.00  0.00    +0.042 C 
ATOM     20  C   UNL     1       0.002  -0.004   0.002  0.00  0.00    -0.043 C 
ATOM     21  C   UNL     1       0.022  -0.665   1.133  0.00  0.00    +0.011 C 
ENDBRANCH  18  20
ENDBRANCH  17  18
ENDBRANCH  11  17
ENDBRANCH   1  14
BRANCH   5  22
ATOM     22  N   UNL     1      -0.908  -9.736  -9.473  0.00  0.00    -0.357 N 
ATOM     23  H   UNL     1      -1.588 -10.292  -9.062  0.00  0.00    +0.142 HD
ATOM     24  H   UNL     1      -0.563  -9.963 -10.351  0.00  0.00    +0.142 HD
ENDBRANCH   5  22
BRANCH   2  25
ATOM     25  C   UNL     1      -1.757  -7.200  -4.700  0.00  0.00    +0.140 C 
BRANCH  25  26
ATOM     26  N   UNL     1      -1.097  -8.149  -3.794  0.00  0.00    -0.292 NA
ATOM     27  C   UNL     1      -0.651  -9.347  -4.520  0.00  0.00    +0.113 C 
ATOM     28  C   UNL     1       0.082 -10.280  -3.553  0.00  0.00    +0.175 C 
ATOM     29  O   UNL     1      -0.782 -10.600  -2.459  0.00  0.00    -0.377 OA
ATOM     30  C   UNL     1      -1.235  -9.456  -1.730  0.00  0.00    +0.175 C 
ATOM     31  C   UNL     1      -1.982  -8.515  -2.679  0.00  0.00    +0.113 C 
ENDBRANCH  25  26
ENDBRANCH   2  25
TORSDOF 7
