REMARK  Name = ZINC24989752
REMARK  11 active torsions:
REMARK  status: ('A' for Active; 'I' for Inactive)
REMARK    1  A    between atoms: C_1  and  C_2
REMARK    2  A    between atoms: C_2  and  C_3
REMARK    3  A    between atoms: C_2  and  C_4
REMARK    4  A    between atoms: C_2  and  C_5
REMARK    5  A    between atoms: C_10  and  O_11
REMARK    6  A    between atoms: O_11  and  C_12
REMARK    7  A    between atoms: C_12  and  C_13
REMARK    8  A    between atoms: C_13  and  C_15
REMARK    9  A    between atoms: C_13  and  O_30
REMARK   10  A    between atoms: C_15  and  N_16
REMARK   11  A    between atoms: C_25  and  C_27
REMARK                            x       y       z     vdW  Elec       q    Type
REMARK                         _______ _______ _______ _____ _____    ______ ____
ROOT
ATOM      1  C   UNL     1       1.400   3.478   0.133  0.00  0.00    +0.182 C 
ENDROOT
BRANCH   1   2
ATOM      2  N   UNL     1       2.775   3.986   0.123  0.00  0.00    -0.226 N 
ATOM      3  C   UNL     1       3.326   4.310  -1.065  0.00  0.00    +0.275 A 
ATOM      4  O   UNL     1       2.697   4.184  -2.099  0.00  0.00    -0.266 OA
ATOM      5  C   UNL     1       4.705   4.819  -1.081  0.00  0.00    +0.050 A 
ATOM      6  C   UNL     1       5.364   5.182  -2.251  0.00  0.00    +0.014 A 
ATOM      7  C   UNL     1       6.658   5.651  -2.180  0.00  0.00    +0.001 A 
ATOM      8  C   UNL     1       7.306   5.765  -0.957  0.00  0.00    +0.001 A 
ATOM      9  C   UNL     1       6.670   5.412   0.214  0.00  0.00    +0.011 A 
ATOM     10  C   UNL     1       5.365   4.935   0.165  0.00  0.00    +0.020 A 
ATOM     11  C   UNL     1       4.616   4.536   1.368  0.00  0.00    +0.153 A 
ATOM     12  N   UNL     1       3.386   4.102   1.241  0.00  0.00    -0.163 NA
BRANCH  11  13
ATOM     13  C   UNL     1       5.241   4.630   2.702  0.00  0.00    +0.262 C 
ATOM     14  O   UNL     1       6.381   5.039   2.812  0.00  0.00    -0.269 OA
ATOM     15  N   UNL     1       4.548   4.263   3.798  0.00  0.00    -0.324 N 
ATOM     16  H   UNL     1       5.013   4.333   4.792  0.00  0.00    +0.145 HD
ATOM     17  H   UNL     1       3.517   3.893   3.699  0.00  0.00    +0.145 HD
ENDBRANCH  11  13
ENDBRANCH   1   2
BRANCH   1  18
ATOM     18  C   UNL     1       1.418   1.954  -0.001  0.00  0.00    +0.173 C 
BRANCH  18  19
ATOM     19  O   UNL     1       2.050   1.592  -1.230  0.00  0.00    -0.387 OA
ATOM     20  H   UNL     1       3.093   1.887  -1.421  0.00  0.00    +0.210 HD
ENDBRANCH  18  19
BRANCH  18  21
ATOM     21  C   UNL     1      -0.017   1.425   0.010  0.00  0.00    +0.262 C 
BRANCH  21  22
ATOM     22  O   UNL     1       0.002  -0.004   0.002  0.00  0.00    -0.489 OA
BRANCH  22  28
ATOM     23  C   UNL     1      -1.255  -2.023   0.003  0.00  0.00    -0.000 A 
ATOM     24  C   UNL     1      -2.479  -2.665   0.011  0.00  0.00    +0.008 A 
ATOM     25  C   UNL     1      -3.648  -1.927   0.026  0.00  0.00    +0.001 A 
ATOM     26  C   UNL     1      -3.595  -0.545   0.034  0.00  0.00    +0.004 A 
ATOM     27  C   UNL     1      -2.375   0.101   0.031  0.00  0.00    +0.046 A 
ATOM     28  C   UNL     1      -1.200  -0.637   0.010  0.00  0.00    +0.124 A 
BRANCH  23  30
ATOM     29  C   UNL     1      -0.322  -4.321  -0.018  0.00  0.00    +0.015 C 
ATOM     30  C   UNL     1       0.018  -2.829  -0.013  0.00  0.00    -0.009 C 
ATOM     31  C   UNL     1       0.823  -2.485  -1.268  0.00  0.00    +0.015 C 
ATOM     32  C   UNL     1       0.846  -2.498   1.231  0.00  0.00    +0.015 C 
ENDBRANCH  23  30
ENDBRANCH  22  28
ENDBRANCH  21  22
ENDBRANCH  18  21
ENDBRANCH   1  18
TORSDOF 8
