REMARK  Name = ZINC09053498
REMARK  11 active torsions:
REMARK  status: ('A' for Active; 'I' for Inactive)
REMARK    1  A    between atoms: C_1  and  C_2
REMARK    2  A    between atoms: C_2  and  C_3
REMARK    3  A    between atoms: C_2  and  C_4
REMARK    4  A    between atoms: C_2  and  N_5
REMARK    5  A    between atoms: C_6  and  C_8
REMARK    6  A    between atoms: C_8  and  N_61
REMARK    7  A    between atoms: C_14  and  C_16
REMARK    8  A    between atoms: C_16  and  S_17
REMARK    9  A    between atoms: S_17  and  C_18
REMARK   10  A    between atoms: C_21  and  C_26
REMARK   11  A    between atoms: N_22  and  C_23
REMARK                            x       y       z     vdW  Elec       q    Type
REMARK                         _______ _______ _______ _____ _____    ______ ____
ROOT
ATOM      1  C   UNL     1      -1.908  -7.162  -0.708  0.00  0.00    -0.059 C 
ATOM      2  C   UNL     1      -2.117  -5.989  -1.671  0.00  0.00    +0.089 C 
ATOM      3  N   UNL     1      -1.144  -4.937  -1.344  0.00  0.00    -0.304 N 
ATOM      4  C   UNL     1       0.276  -5.309  -1.240  0.00  0.00    +0.089 C 
ATOM      5  C   UNL     1       0.390  -6.510  -0.287  0.00  0.00    -0.059 C 
ATOM      6  C   UNL     1      -1.541  -3.663  -1.151  0.00  0.00    +0.226 C 
ATOM      7  O   UNL     1      -2.714  -3.373  -1.246  0.00  0.00    -0.275 OA
ATOM      8  N   UNL     1      -0.494  -7.589  -0.779  0.00  0.00    +0.387 N 
ATOM      9  H   UNL     1      -0.257  -7.793  -1.757  0.00  0.00    -0.081 HD
ENDROOT
BRANCH   8  10
ATOM     10  C   UNL     1      -0.294  -8.811   0.028  0.00  0.00    +0.019 C 
BRANCH  10  12
ATOM     11  N   UNL     1       1.504 -10.474   0.374  0.00  0.00    -0.312 N 
ATOM     12  C   UNL     1       1.090  -9.346  -0.236  0.00  0.00    +0.197 C 
ATOM     13  O   UNL     1       1.831  -8.761  -0.996  0.00  0.00    -0.278 OA
ATOM     14  H   UNL     1       0.911 -10.942   0.983  0.00  0.00    +0.149 HD
BRANCH  11  16
ATOM     15  C   UNL     1       3.887  -9.948   0.532  0.00  0.00    +0.031 C 
ATOM     16  C   UNL     1       2.850 -10.993   0.119  0.00  0.00    +0.026 C 
ATOM     17  C   UNL     1       3.065 -12.273   0.929  0.00  0.00    +0.031 C 
ATOM     18  C   UNL     1       3.002 -11.302  -1.372  0.00  0.00    +0.031 C 
ENDBRANCH  11  16
ENDBRANCH  10  12
ENDBRANCH   8  10
BRANCH   6  19
ATOM     19  C   UNL     1      -0.526  -2.600  -0.817  0.00  0.00    +0.173 C 
BRANCH  19  20
ATOM     20  S   UNL     1      -1.364  -1.008  -0.619  0.00  0.00    -0.077 S 
BRANCH  20  21
ATOM     21  C   UNL     1       0.018   0.020  -0.244  0.00  0.00    +0.193 A 
ATOM     22  N   UNL     1       1.271  -0.362  -0.157  0.00  0.00    -0.122 NA
ATOM     23  N   UNL     1       2.021   0.642   0.132  0.00  0.00    -0.128 NA
ATOM     24  C   UNL     1       1.290   1.729   0.247  0.00  0.00    +0.172 A 
ATOM     25  N   UNL     1      -0.017   1.363   0.009  0.00  0.00    -0.299 N 
BRANCH  24  26
ATOM     26  C   UNL     1       1.776   3.080   0.568  0.00  0.00    +0.056 A 
ATOM     27  C   UNL     1       2.990   3.463   1.080  0.00  0.00    +0.019 A 
ATOM     28  C   UNL     1       3.221   4.803   1.300  0.00  0.00    +0.008 A 
ATOM     29  C   UNL     1       2.246   5.700   1.005  0.00  0.00    +0.046 A 
ATOM     30  S   UNL     1       0.943   4.649   0.387  0.00  0.00    -0.094 S 
ENDBRANCH  24  26
BRANCH  25  31
ATOM     31  C   UNL     1      -1.195   2.233   0.020  0.00  0.00    +0.091 C 
ATOM     32  C   UNL     1      -2.567   1.562   0.110  0.00  0.00    +0.027 C 
ATOM     33  C   UNL     1      -2.111   2.197  -1.206  0.00  0.00    +0.027 C 
ENDBRANCH  25  31
ENDBRANCH  20  21
ENDBRANCH  19  20
ENDBRANCH   6  19
TORSDOF 8
