REMARK  Name = ZINC39595993
REMARK  8 active torsions:
REMARK  status: ('A' for Active; 'I' for Inactive)
REMARK    1  A    between atoms: C_1  and  C_2
REMARK    2  A    between atoms: C_2  and  C_4
REMARK    3  A    between atoms: C_2  and  O_28
REMARK    4  A    between atoms: C_4  and  N_5
REMARK    5  A    between atoms: C_6  and  C_8
REMARK    6  A    between atoms: C_19  and  C_21
REMARK    7  A    between atoms: C_21  and  C_27
REMARK    8  A    between atoms: O_28  and  C_29
REMARK                            x       y       z     vdW  Elec       q    Type
REMARK                         _______ _______ _______ _____ _____    ______ ____
ROOT
ATOM      1  C   UNL     1      -2.911  -3.768  -1.014  0.00  0.00    +0.100 C 
ATOM      2  C   UNL     1      -2.312  -4.370  -2.305  0.00  0.00    +0.121 C 
ATOM      3  N   UNL     1      -3.261  -5.439  -2.695  0.00  0.00    -0.300 N 
ATOM      4  C   UNL     1      -4.599  -4.868  -2.405  0.00  0.00    +0.115 C 
ATOM      5  C   UNL     1      -4.412  -4.097  -1.084  0.00  0.00    -0.004 C 
ATOM      6  C   UNL     1      -4.817  -4.971   0.099  0.00  0.00    -0.010 C 
ATOM      7  C   UNL     1      -6.324  -5.237   0.038  0.00  0.00    -0.082 C 
ATOM      8  N   UNL     1      -7.049  -3.961   0.075  0.00  0.00    +0.379 N 
ATOM      9  C   UNL     1      -6.724  -3.166  -1.115  0.00  0.00    -0.082 C 
ATOM     10  C   UNL     1      -5.234  -2.812  -1.103  0.00  0.00    -0.010 C 
ATOM     11  C   UNL     1      -2.974  -6.656  -3.199  0.00  0.00    +0.222 C 
ATOM     12  O   UNL     1      -3.870  -7.399  -3.537  0.00  0.00    -0.275 OA
ATOM     13  H   UNL     1      -8.042  -4.141   0.096  0.00  0.00    -0.086 HD
ATOM     14  H   UNL     1      -6.785  -3.449   0.903  0.00  0.00    -0.086 HD
ENDROOT
BRANCH  11  15
ATOM     15  C   UNL     1      -1.539  -7.092  -3.341  0.00  0.00    +0.044 C 
ATOM     16  C   UNL     1      -0.783  -6.085  -4.211  0.00  0.00    +0.016 C 
ATOM     17  C   UNL     1      -1.435  -6.016  -5.593  0.00  0.00    +0.001 C 
ATOM     18  C   UNL     1      -1.385  -7.396  -6.251  0.00  0.00    +0.000 C 
ATOM     19  C   UNL     1      -2.140  -8.403  -5.382  0.00  0.00    +0.001 C 
ATOM     20  C   UNL     1      -1.488  -8.473  -3.999  0.00  0.00    +0.016 C 
ATOM     21  C   UNL     1      -0.887  -7.162  -1.959  0.00  0.00    +0.021 C 
ENDBRANCH  11  15
BRANCH   1  23
ATOM     22  N   UNL     1      -2.588  -1.635   0.195  0.00  0.00    -0.312 N 
ATOM     23  C   UNL     1      -2.701  -2.276  -0.985  0.00  0.00    +0.218 C 
ATOM     24  O   UNL     1      -2.635  -1.653  -2.023  0.00  0.00    -0.275 OA
ATOM     25  H   UNL     1      -2.641  -2.134   1.026  0.00  0.00    +0.149 HD
BRANCH  22  26
ATOM     26  C   UNL     1      -2.384  -0.184   0.224  0.00  0.00    +0.148 C 
BRANCH  26  28
ATOM     27  C   UNL     1      -2.075   1.804   1.706  0.00  0.00    +0.053 C 
ATOM     28  C   UNL     1      -2.288   0.289   1.676  0.00  0.00    +0.187 C 
BRANCH  28  29
ATOM     29  O   UNL     1      -3.498  -0.036   2.363  0.00  0.00    -0.488 OA
BRANCH  29  30
ATOM     30  C   UNL     1      -3.423  -0.171   3.714  0.00  0.00    +0.121 A 
ATOM     31  C   UNL     1      -4.531  -0.600   4.431  0.00  0.00    +0.048 A 
ATOM     32  C   UNL     1      -4.453  -0.737   5.803  0.00  0.00    +0.042 A 
ATOM     33  C   UNL     1      -3.271  -0.447   6.463  0.00  0.00    +0.124 A 
ATOM     34  C   UNL     1      -2.165  -0.018   5.749  0.00  0.00    +0.042 A 
ATOM     35  C   UNL     1      -2.238   0.113   4.375  0.00  0.00    +0.048 A 
ATOM     36  F   UNL     1      -3.197  -0.581   7.806  0.00  0.00    -0.205 F 
ENDBRANCH  29  30
ENDBRANCH  28  29
ENDBRANCH  26  28
ENDBRANCH  22  26
ENDBRANCH   1  23
TORSDOF 6
