REMARK  Name = ZINC10555741
REMARK  9 active torsions:
REMARK  status: ('A' for Active; 'I' for Inactive)
REMARK    1  A    between atoms: C_1  and  C_2
REMARK    2  A    between atoms: C_6  and  C_9
REMARK    3  A    between atoms: C_7  and  O_8
REMARK    4  A    between atoms: C_9  and  O_11
REMARK    5  A    between atoms: O_11  and  C_12
REMARK    6  A    between atoms: C_12  and  C_13
REMARK    7  A    between atoms: C_17  and  C_26
REMARK    8  A    between atoms: C_26  and  O_28
REMARK    9  A    between atoms: O_28  and  C_29
REMARK                            x       y       z     vdW  Elec       q    Type
REMARK                         _______ _______ _______ _____ _____    ______ ____
ROOT
ATOM      1  C   UNL     1       1.507  -4.920   0.947  0.00  0.00    +0.258 C 
ATOM      2  O   UNL     1       1.469  -6.122   0.795  0.00  0.00    -0.272 OA
ATOM      3  N   UNL     1       1.604  -4.108  -0.125  0.00  0.00    -0.261 N 
ATOM      4  C   UNL     1       1.525  -2.644   0.018  0.00  0.00    +0.170 C 
ATOM      5  C   UNL     1       0.656  -2.112  -1.131  0.00  0.00    +0.299 C 
ATOM      6  O   UNL     1       1.246  -2.502  -2.373  0.00  0.00    -0.474 OA
ATOM      7  C   UNL     1       1.596  -3.806  -2.526  0.00  0.00    +0.143 A 
ATOM      8  C   UNL     1       1.785  -4.628  -1.418  0.00  0.00    +0.078 A 
ATOM      9  C   UNL     1       2.146  -5.955  -1.588  0.00  0.00    +0.027 A 
ATOM     10  C   UNL     1       2.314  -6.465  -2.863  0.00  0.00    +0.002 A 
ATOM     11  C   UNL     1       2.125  -5.651  -3.964  0.00  0.00    +0.004 A 
ATOM     12  C   UNL     1       1.767  -4.326  -3.800  0.00  0.00    +0.047 A 
ENDROOT
BRANCH   5  13
ATOM     13  C   UNL     1       0.585  -0.608  -1.055  0.00  0.00    +0.350 C 
ATOM     14  O   UNL     1       1.078   0.064  -1.930  0.00  0.00    -0.247 OA
BRANCH  13  15
ATOM     15  O   UNL     1      -0.026  -0.017  -0.017  0.00  0.00    -0.465 OA
ATOM     16  C   UNL     1      -0.057   1.435  -0.011  0.00  0.00    +0.280 C 
ENDBRANCH  13  15
ENDBRANCH   5  13
BRANCH   1  17
ATOM     17  C   UNL     1       1.445  -4.333   2.333  0.00  0.00    +0.328 C 
BRANCH  17  18
ATOM     18  O   UNL     1       1.468  -5.404   3.313  0.00  0.00    -0.452 OA
BRANCH  18  19
ATOM     19  C   UNL     1       1.418  -5.046   4.612  0.00  0.00    +0.343 C 
ATOM     20  O   UNL     1       1.358  -3.872   4.917  0.00  0.00    -0.245 OA
BRANCH  19  26
ATOM     21  C   UNL     1       1.351  -6.306   9.449  0.00  0.00    +0.047 C 
ATOM     22  C   UNL     1       1.406  -6.694   7.994  0.00  0.00    -0.008 A 
ATOM     23  C   UNL     1       1.474  -8.027   7.638  0.00  0.00    +0.007 A 
ATOM     24  C   UNL     1       1.524  -8.394   6.303  0.00  0.00    +0.001 A 
ATOM     25  C   UNL     1       1.506  -7.432   5.316  0.00  0.00    +0.018 A 
ATOM     26  C   UNL     1       1.437  -6.080   5.662  0.00  0.00    +0.101 A 
ATOM     27  C   UNL     1       1.392  -5.713   7.015  0.00  0.00    +0.134 A 
BRANCH  27  28
ATOM     28  O   UNL     1       1.330  -4.403   7.363  0.00  0.00    -0.506 OA
ATOM     29  H   UNL     1       0.429  -4.060   7.444  0.00  0.00    +0.292 HD
ENDBRANCH  27  28
ENDBRANCH  19  26
ENDBRANCH  18  19
ENDBRANCH  17  18
ENDBRANCH   1  17
TORSDOF 7
