REMARK  Name = ZINC25023987
REMARK  9 active torsions:
REMARK  status: ('A' for Active; 'I' for Inactive)
REMARK    1  A    between atoms: C_1  and  C_2
REMARK    2  A    between atoms: C_6  and  N_26
REMARK    3  A    between atoms: C_7  and  N_8
REMARK    4  A    between atoms: C_9  and  C_11
REMARK    5  A    between atoms: C_11  and  S_12
REMARK    6  A    between atoms: S_12  and  C_13
REMARK    7  A    between atoms: C_17  and  C_21
REMARK    8  A    between atoms: C_18  and  C_20
REMARK    9  A    between atoms: N_24  and  C_25
REMARK                            x       y       z     vdW  Elec       q    Type
REMARK                         _______ _______ _______ _____ _____    ______ ____
ROOT
ATOM      1  C   UNL     1       1.971   5.691  -0.549  0.00  0.00    +0.173 C 
ENDROOT
BRANCH   1   3
ATOM      2  N   UNL     1       0.937   3.457  -0.315  0.00  0.00    -0.283 N 
ATOM      3  C   UNL     1       2.055   4.210  -0.289  0.00  0.00    +0.228 C 
ATOM      4  O   UNL     1       3.128   3.694  -0.057  0.00  0.00    -0.275 OA
ATOM      5  H   UNL     1      -0.046   3.936  -0.434  0.00  0.00    +0.155 HD
BRANCH   2  12
ATOM      6  C   UNL     1       2.220   2.395   1.992  0.00  0.00    +0.046 C 
ATOM      7  C   UNL     1       1.648   1.506   0.918  0.00  0.00    -0.027 A 
ATOM      8  C   UNL     1       1.735   0.132   1.038  0.00  0.00    +0.005 A 
ATOM      9  C   UNL     1       1.205  -0.684   0.056  0.00  0.00    +0.003 A 
ATOM     10  C   UNL     1       0.586  -0.129  -1.049  0.00  0.00    +0.034 A 
ATOM     11  C   UNL     1       0.497   1.243  -1.175  0.00  0.00    +0.148 A 
ATOM     12  C   UNL     1       1.028   2.066  -0.191  0.00  0.00    +0.067 A 
BRANCH  11  13
ATOM     13  N   UNL     1      -0.165   1.836  -2.359  0.00  0.00    +0.058 N 
ATOM     14  O   UNL     1      -0.718   1.117  -3.172  0.00  0.00    -0.126 OA
ATOM     15  O   UNL     1      -0.157   3.043  -2.521  0.00  0.00    -0.126 OA
ENDBRANCH  11  13
ENDBRANCH   2  12
ENDBRANCH   1   3
BRANCH   1  16
ATOM     16  S   UNL     1       3.626   6.417  -0.446  0.00  0.00    -0.078 S 
BRANCH  16  17
ATOM     17  C   UNL     1       3.243   8.103  -0.781  0.00  0.00    +0.173 A 
ATOM     18  N   UNL     1       1.994   8.452  -1.015  0.00  0.00    -0.216 NA
ATOM     19  C   UNL     1       1.675   9.716  -1.265  0.00  0.00    +0.117 A 
ATOM     20  C   UNL     1       2.643  10.737  -1.305  0.00  0.00    +0.075 A 
ATOM     21  C   UNL     1       2.124  12.062  -1.599  0.00  0.00    -0.026 A 
ATOM     22  C   UNL     1       0.809  12.220  -1.804  0.00  0.00    -0.008 A 
ATOM     23  S   UNL     1       0.159  10.570  -1.615  0.00  0.00    -0.073 S 
ATOM     24  C   UNL     1       0.058  13.488  -2.120  0.00  0.00    +0.052 C 
ATOM     25  C   UNL     1       3.054  13.246  -1.672  0.00  0.00    +0.045 C 
ATOM     26  C   UNL     1       3.990  10.328  -1.053  0.00  0.00    +0.263 A 
ATOM     27  O   UNL     1       4.896  11.143  -1.067  0.00  0.00    -0.267 OA
ATOM     28  N   UNL     1       4.245   9.031  -0.800  0.00  0.00    -0.290 N 
ATOM     29  C   UNL     1       5.622   8.606  -0.540  0.00  0.00    +0.154 C 
ENDBRANCH  16  17
ENDBRANCH   1  16
TORSDOF 5
