REMARK  Name = ZINC67189951
REMARK  11 active torsions:
REMARK  status: ('A' for Active; 'I' for Inactive)
REMARK    1  A    between atoms: C_1  and  C_2
REMARK    2  A    between atoms: C_2  and  N_3
REMARK    3  A    between atoms: C_4  and  C_22
REMARK    4  A    between atoms: C_7  and  S_8
REMARK    5  A    between atoms: S_8  and  C_9
REMARK    6  A    between atoms: C_9  and  C_10
REMARK    7  A    between atoms: C_22  and  C_24
REMARK    8  A    between atoms: C_22  and  N_27
REMARK    9  A    between atoms: C_24  and  C_25
REMARK   10  A    between atoms: C_24  and  C_26
REMARK   11  A    between atoms: C_28  and  C_30
REMARK                            x       y       z     vdW  Elec       q    Type
REMARK                         _______ _______ _______ _____ _____    ______ ____
ROOT
ATOM      1  N   UNL     1       0.688  -0.476  -1.203  0.00  0.00    -0.305 N 
ATOM      2  C   UNL     1       0.126  -0.748  -2.420  0.00  0.00    +0.155 A 
ATOM      3  N   UNL     1       1.084  -1.140  -3.211  0.00  0.00    -0.132 NA
ATOM      4  N   UNL     1       2.205  -1.136  -2.582  0.00  0.00    -0.122 NA
ATOM      5  C   UNL     1       2.021  -0.732  -1.347  0.00  0.00    +0.192 A 
ENDROOT
BRANCH   1   7
ATOM      6  C   UNL     1      -0.019   1.526   0.010  0.00  0.00    +0.027 C 
ATOM      7  C   UNL     1       0.002  -0.004   0.002  0.00  0.00    +0.122 C 
ENDBRANCH   1   7
BRANCH   5   8
ATOM      8  S   UNL     1       3.261  -0.556  -0.107  0.00  0.00    -0.078 S 
BRANCH   8   9
ATOM      9  C   UNL     1       4.792  -1.052  -0.943  0.00  0.00    +0.151 C 
BRANCH   9  10
ATOM     10  C   UNL     1       5.947  -0.946   0.019  0.00  0.00    +0.121 A 
ATOM     11  N   UNL     1       7.189  -1.272  -0.426  0.00  0.00    -0.310 N 
ATOM     12  H   UNL     1       7.309  -1.564  -1.344  0.00  0.00    +0.170 HD
ATOM     13  C   UNL     1       8.259  -1.194   0.398  0.00  0.00    +0.259 A 
ATOM     14  O   UNL     1       9.377  -1.482   0.012  0.00  0.00    -0.267 OA
ATOM     15  C   UNL     1       8.019  -0.746   1.778  0.00  0.00    +0.065 A 
ATOM     16  C   UNL     1       9.052  -0.631   2.706  0.00  0.00    +0.015 A 
ATOM     17  C   UNL     1       8.770  -0.208   3.986  0.00  0.00    +0.001 A 
ATOM     18  C   UNL     1       7.469   0.105   4.357  0.00  0.00    +0.002 A 
ATOM     19  C   UNL     1       6.434  -0.002   3.455  0.00  0.00    +0.028 A 
ATOM     20  C   UNL     1       6.694  -0.429   2.151  0.00  0.00    +0.078 A 
ATOM     21  N   UNL     1       5.706  -0.543   1.229  0.00  0.00    -0.233 NA
ENDBRANCH   9  10
ENDBRANCH   8   9
ENDBRANCH   5   8
BRANCH   2  22
ATOM     22  C   UNL     1      -1.332  -0.617  -2.780  0.00  0.00    +0.144 C 
BRANCH  22  23
ATOM     23  N   UNL     1      -1.456   0.048  -4.080  0.00  0.00    -0.301 N 
ATOM     24  C   UNL     1      -2.583   0.720  -4.388  0.00  0.00    +0.247 C 
ATOM     25  O   UNL     1      -3.496   0.774  -3.588  0.00  0.00    -0.270 OA
ATOM     26  H   UNL     1      -0.727   0.004  -4.718  0.00  0.00    +0.150 HD
BRANCH  24  27
ATOM     27  C   UNL     1      -2.709   1.389  -5.698  0.00  0.00    +0.072 A 
ATOM     28  C   UNL     1      -1.664   1.324  -6.623  0.00  0.00    +0.016 A 
ATOM     29  C   UNL     1      -1.787   1.951  -7.844  0.00  0.00    +0.001 A 
ATOM     30  C   UNL     1      -2.944   2.646  -8.157  0.00  0.00    +0.003 A 
ATOM     31  C   UNL     1      -3.983   2.717  -7.249  0.00  0.00    +0.039 A 
ATOM     32  C   UNL     1      -3.876   2.087  -6.022  0.00  0.00    +0.135 A 
ATOM     33  F   UNL     1      -4.894   2.152  -5.136  0.00  0.00    -0.205 F 
ENDBRANCH  24  27
ENDBRANCH  22  23
BRANCH  22  34
ATOM     34  C   UNL     1      -1.965  -2.007  -2.856  0.00  0.00    +0.011 C 
ATOM     35  C   UNL     1      -1.171  -2.877  -3.833  0.00  0.00    +0.009 C 
ATOM     36  C   UNL     1      -1.947  -2.652  -1.468  0.00  0.00    +0.009 C 
ENDBRANCH  22  34
ENDBRANCH   2  22
TORSDOF 8
