REMARK  Name = ZINC21674065
REMARK  15 active torsions:
REMARK  status: ('A' for Active; 'I' for Inactive)
REMARK    1  A    between atoms: C_1  and  C_2
REMARK    2  A    between atoms: C_2  and  C_4
REMARK    3  A    between atoms: C_2  and  S_17
REMARK    4  A    between atoms: C_4  and  C_6
REMARK    5  A    between atoms: C_7  and  N_16
REMARK    6  A    between atoms: N_8  and  C_15
REMARK    7  A    between atoms: N_11  and  C_14
REMARK    8  A    between atoms: S_17  and  C_18
REMARK    9  A    between atoms: C_21  and  C_26
REMARK   10  A    between atoms: N_22  and  C_23
REMARK   11  A    between atoms: C_23  and  C_24
REMARK   12  A    between atoms: C_29  and  C_32
REMARK   13  A    between atoms: C_32  and  C_33
REMARK   14  A    between atoms: C_32  and  C_34
REMARK   15  A    between atoms: C_32  and  C_35
REMARK                            x       y       z     vdW  Elec       q    Type
REMARK                         _______ _______ _______ _____ _____    ______ ____
ROOT
ATOM      1  S   UNL     1      -0.623   2.841  -3.692  0.00  0.00    -0.075 S 
ENDROOT
BRANCH   1   2
ATOM      2  C   UNL     1      -1.266   1.256  -3.267  0.00  0.00    +0.193 A 
ATOM      3  N   UNL     1      -2.139   0.558  -3.958  0.00  0.00    -0.122 NA
ATOM      4  N   UNL     1      -2.393  -0.549  -3.358  0.00  0.00    -0.128 NA
ATOM      5  C   UNL     1      -1.694  -0.629  -2.250  0.00  0.00    +0.165 A 
ATOM      6  N   UNL     1      -0.948   0.523  -2.159  0.00  0.00    -0.298 N 
BRANCH   5   7
ATOM      7  C   UNL     1      -1.706  -1.746  -1.282  0.00  0.00    +0.019 A 
ATOM      8  C   UNL     1      -0.647  -1.910  -0.388  0.00  0.00    +0.012 A 
ATOM      9  C   UNL     1      -0.667  -2.952   0.516  0.00  0.00    +0.005 A 
ATOM     10  C   UNL     1      -1.728  -3.839   0.531  0.00  0.00    -0.042 A 
ATOM     11  C   UNL     1      -2.779  -3.686  -0.356  0.00  0.00    +0.005 A 
ATOM     12  C   UNL     1      -2.774  -2.645  -1.262  0.00  0.00    +0.012 A 
BRANCH  10  13
ATOM     13  C   UNL     1      -1.741  -4.978   1.518  0.00  0.00    -0.013 C 
ATOM     14  C   UNL     1      -1.786  -6.308   0.762  0.00  0.00    +0.015 C 
ATOM     15  C   UNL     1      -0.476  -4.923   2.377  0.00  0.00    +0.015 C 
ATOM     16  C   UNL     1      -2.973  -4.860   2.417  0.00  0.00    +0.015 C 
ENDBRANCH  10  13
ENDBRANCH   5   7
BRANCH   6  17
ATOM     17  C   UNL     1      -0.012   0.891  -1.094  0.00  0.00    +0.152 C 
BRANCH  17  18
ATOM     18  C   UNL     1       1.390   0.525  -1.508  0.00  0.00    -0.013 C 
ATOM     19  C   UNL     1       2.331   1.436  -1.510  0.00  0.00    +0.005 C 
ENDBRANCH  17  18
ENDBRANCH   6  17
ENDBRANCH   1   2
BRANCH   1  21
ATOM     20  C   UNL     1      -1.055   2.102  -6.286  0.00  0.00    +0.028 C 
ATOM     21  C   UNL     1      -1.503   3.131  -5.246  0.00  0.00    +0.122 C 
BRANCH  21  22
ATOM     22  C   UNL     1      -1.194   4.518  -5.747  0.00  0.00    +0.185 C 
ATOM     23  O   UNL     1      -0.161   5.066  -5.420  0.00  0.00    -0.291 OA
BRANCH  22  24
ATOM     24  C   UNL     1      -2.105   5.181  -6.598  0.00  0.00    +0.121 A 
ATOM     25  C   UNL     1      -1.912   6.524  -6.962  0.00  0.00    +0.116 A 
ATOM     26  N   UNL     1      -2.818   7.121  -7.792  0.00  0.00    -0.284 N 
ATOM     27  C   UNL     1      -3.887   6.453  -8.252  0.00  0.00    +0.333 A 
ATOM     28  O   UNL     1      -4.667   7.030  -8.985  0.00  0.00    -0.246 OA
ATOM     29  N   UNL     1      -4.127   5.170  -7.934  0.00  0.00    -0.263 N 
ATOM     30  C   UNL     1      -3.289   4.490  -7.126  0.00  0.00    +0.269 A 
ATOM     31  O   UNL     1      -3.509   3.327  -6.840  0.00  0.00    -0.267 OA
ATOM     32  C   UNL     1      -5.314   4.502  -8.473  0.00  0.00    +0.157 C 
ATOM     33  C   UNL     1      -2.623   8.519  -8.182  0.00  0.00    +0.155 C 
BRANCH  25  34
ATOM     34  N   UNL     1      -0.837   7.218  -6.499  0.00  0.00    -0.344 N 
ATOM     35  H   UNL     1      -0.694   8.270  -6.790  0.00  0.00    +0.144 HD
ATOM     36  H   UNL     1      -0.110   6.728  -5.835  0.00  0.00    +0.144 HD
ENDBRANCH  25  34
ENDBRANCH  22  24
ENDBRANCH  21  22
ENDBRANCH   1  21
TORSDOF 9
