REMARK  Name = ZINC09512115
REMARK  14 active torsions:
REMARK  status: ('A' for Active; 'I' for Inactive)
REMARK    1  A    between atoms: C_1  and  C_2
REMARK    2  A    between atoms: C_2  and  C_4
REMARK    3  A    between atoms: C_2  and  N_10
REMARK    4  A    between atoms: C_11  and  C_13
REMARK    5  A    between atoms: C_13  and  O_14
REMARK    6  A    between atoms: O_14  and  C_15
REMARK    7  A    between atoms: C_15  and  C_17
REMARK    8  A    between atoms: C_17  and  N_18
REMARK    9  A    between atoms: N_18  and  S_19
REMARK   10  A    between atoms: S_19  and  C_22
REMARK   11  A    between atoms: C_25  and  N_31
REMARK   12  A    between atoms: C_26  and  N_28
REMARK   13  A    between atoms: N_31  and  C_32
REMARK   14  A    between atoms: N_31  and  C_33
REMARK                            x       y       z     vdW  Elec       q    Type
REMARK                         _______ _______ _______ _____ _____    ______ ____
ROOT
ATOM      1  C   UNL     1       3.409   9.121   4.207  0.00  0.00    +0.226 C 
ENDROOT
BRANCH   1   2
ATOM      2  C   UNL     1       3.708   7.746   3.668  0.00  0.00    +0.323 C 
ATOM      3  O   UNL     1       4.732   7.185   3.977  0.00  0.00    -0.249 OA
BRANCH   2   4
ATOM      4  O   UNL     1       2.836   7.145   2.844  0.00  0.00    -0.454 OA
BRANCH   4   5
ATOM      5  C   UNL     1       3.188   5.821   2.363  0.00  0.00    +0.327 C 
BRANCH   5   7
ATOM      6  N   UNL     1       2.210   4.090   0.890  0.00  0.00    -0.306 N 
ATOM      7  C   UNL     1       2.098   5.308   1.457  0.00  0.00    +0.251 C 
ATOM      8  O   UNL     1       1.121   5.992   1.238  0.00  0.00    -0.272 OA
ATOM      9  H   UNL     1       2.992   3.544   1.065  0.00  0.00    +0.149 HD
BRANCH   6  11
ATOM     10  C   UNL     1       1.381   4.113  -1.410  0.00  0.00    +0.033 C 
ATOM     11  C   UNL     1       1.151   3.592   0.010  0.00  0.00    +0.100 C 
BRANCH  11  12
ATOM     12  C   UNL     1       1.171   2.086   0.002  0.00  0.00    -0.027 A 
ATOM     13  C   UNL     1      -0.017   1.378   0.010  0.00  0.00    +0.005 A 
ATOM     14  C   UNL     1       0.002  -0.004   0.002  0.00  0.00    +0.000 A 
ATOM     15  C   UNL     1       1.208  -0.679  -0.014  0.00  0.00    +0.000 A 
ATOM     16  C   UNL     1       2.396   0.029  -0.021  0.00  0.00    +0.000 A 
ATOM     17  C   UNL     1       2.377   1.411  -0.014  0.00  0.00    +0.005 A 
ENDBRANCH  11  12
ENDBRANCH   6  11
ENDBRANCH   5   7
ENDBRANCH   4   5
ENDBRANCH   2   4
ENDBRANCH   1   2
BRANCH   1  18
ATOM     18  N   UNL     1       4.507   9.554   5.076  0.00  0.00    -0.179 NA
ATOM     19  H   UNL     1       5.155   8.907   5.397  0.00  0.00    +0.149 HD
BRANCH  18  20
ATOM     20  S   UNL     1       4.641  11.146   5.510  0.00  0.00    +0.059 S 
ATOM     21  O   UNL     1       5.773  11.241   6.364  0.00  0.00    -0.153 OA
ATOM     22  O   UNL     1       4.524  11.905   4.314  0.00  0.00    -0.153 OA
BRANCH  20  23
ATOM     23  C   UNL     1       3.233  11.538   6.494  0.00  0.00    +0.108 A 
ATOM     24  C   UNL     1       2.083  12.017   5.893  0.00  0.00    +0.030 A 
ATOM     25  C   UNL     1       0.976  12.319   6.661  0.00  0.00    +0.027 A 
ATOM     26  C   UNL     1       1.022  12.153   8.040  0.00  0.00    +0.060 A 
ATOM     27  C   UNL     1       2.180  11.678   8.640  0.00  0.00    +0.149 A 
ATOM     28  C   UNL     1       3.283  11.372   7.866  0.00  0.00    +0.063 A 
BRANCH  27  29
ATOM     29  N   UNL     1       2.234  11.500  10.109  0.00  0.00    +0.058 N 
ATOM     30  O   UNL     1       3.250  11.082  10.635  0.00  0.00    -0.126 OA
ATOM     31  O   UNL     1       1.262  11.770  10.791  0.00  0.00    -0.126 OA
ENDBRANCH  27  29
BRANCH  26  32
ATOM     32  N   UNL     1      -0.094  12.464   8.820  0.00  0.00    -0.334 N 
ATOM     33  C   UNL     1      -0.465  13.877   8.671  0.00  0.00    +0.129 C 
ATOM     34  C   UNL     1      -1.226  11.586   8.493  0.00  0.00    +0.129 C 
ENDBRANCH  26  32
ENDBRANCH  20  23
ENDBRANCH  18  20
ENDBRANCH   1  18
TORSDOF 11
