REMARK  Name = ZINC01187386
REMARK  5 active torsions:
REMARK  status: ('A' for Active; 'I' for Inactive)
REMARK    1  A    between atoms: C_1  and  C_2
REMARK    2  A    between atoms: C_7  and  C_8
REMARK    3  A    between atoms: N_18  and  N_19
REMARK    4  A    between atoms: C_20  and  C_21
REMARK    5  A    between atoms: C_24  and  O_27
REMARK                            x       y       z     vdW  Elec       q    Type
REMARK                         _______ _______ _______ _____ _____    ______ ____
ROOT
ATOM      1  C   UNL     1       1.031  -0.675  -0.098  0.00  0.00    +0.166 A 
ATOM      2  N   UNL     1      -0.050   0.060  -0.033  0.00  0.00    -0.227 NA
ATOM      3  C   UNL     1       0.012   1.403   0.064  0.00  0.00    +0.079 A 
ATOM      4  C   UNL     1      -1.144   2.185   0.139  0.00  0.00    +0.028 A 
ATOM      5  C   UNL     1      -1.040   3.544   0.231  0.00  0.00    +0.002 A 
ATOM      6  C   UNL     1       0.202   4.165   0.264  0.00  0.00    +0.001 A 
ATOM      7  C   UNL     1       1.360   3.422   0.197  0.00  0.00    +0.015 A 
ATOM      8  C   UNL     1       1.277   2.034   0.097  0.00  0.00    +0.067 A 
ATOM      9  C   UNL     1       2.477   1.189   0.023  0.00  0.00    +0.282 A 
ATOM     10  O   UNL     1       3.594   1.675   0.046  0.00  0.00    -0.265 OA
ATOM     11  N   UNL     1       2.295  -0.148  -0.073  0.00  0.00    -0.177 N 
ENDROOT
BRANCH   1  18
ATOM     12  C   UNL     1       2.192  -2.073  -2.349  0.00  0.00    +0.044 C 
ATOM     13  C   UNL     1       1.437  -2.826  -1.285  0.00  0.00    -0.040 A 
ATOM     14  C   UNL     1       1.297  -4.196  -1.376  0.00  0.00    +0.004 A 
ATOM     15  C   UNL     1       0.598  -4.889  -0.403  0.00  0.00    +0.000 A 
ATOM     16  C   UNL     1       0.040  -4.215   0.669  0.00  0.00    +0.001 A 
ATOM     17  C   UNL     1       0.177  -2.846   0.774  0.00  0.00    +0.012 A 
ATOM     18  C   UNL     1       0.881  -2.141  -0.204  0.00  0.00    +0.022 A 
ENDBRANCH   1  18
BRANCH  11  19
ATOM     19  N   UNL     1       3.405  -0.999  -0.147  0.00  0.00    -0.170 NA
ATOM     20  C   UNL     1       4.208  -1.109   0.868  0.00  0.00    +0.141 C 
BRANCH  20  21
ATOM     21  C   UNL     1       5.314  -2.082   0.831  0.00  0.00    -0.005 A 
ATOM     22  C   UNL     1       5.496  -2.893  -0.293  0.00  0.00    +0.013 A 
ATOM     23  C   UNL     1       6.534  -3.799  -0.325  0.00  0.00    +0.046 A 
ATOM     24  C   UNL     1       7.392  -3.915   0.762  0.00  0.00    +0.117 A 
ATOM     25  C   UNL     1       7.211  -3.114   1.883  0.00  0.00    +0.046 A 
ATOM     26  C   UNL     1       6.179  -2.202   1.922  0.00  0.00    +0.013 A 
BRANCH  24  27
ATOM     27  O   UNL     1       8.410  -4.813   0.728  0.00  0.00    -0.507 OA
ATOM     28  H   UNL     1       8.176  -5.686   1.071  0.00  0.00    +0.292 HD
ENDBRANCH  24  27
ENDBRANCH  20  21
ENDBRANCH  11  19
TORSDOF 4
