REMARK  Name = ZINC01022697
REMARK  5 active torsions:
REMARK  status: ('A' for Active; 'I' for Inactive)
REMARK    1  A    between atoms: C_1  and  O_2
REMARK    2  A    between atoms: O_2  and  C_3
REMARK    3  A    between atoms: C_3  and  C_5
REMARK    4  A    between atoms: C_18  and  C_21
REMARK    5  A    between atoms: C_24  and  N_27
REMARK                            x       y       z     vdW  Elec       q    Type
REMARK                         _______ _______ _______ _____ _____    ______ ____
ROOT
ATOM      1  C   UNL     1      -5.295   2.331   1.002  0.00  0.00    +0.059 A 
ATOM      2  C   UNL     1      -5.136   3.404   1.885  0.00  0.00    +0.017 A 
ATOM      3  C   UNL     1      -3.911   3.746   2.292  0.00  0.00    +0.024 A 
ATOM      4  C   UNL     1      -2.786   3.063   1.836  0.00  0.00    +0.031 A 
ATOM      5  C   UNL     1      -2.908   2.000   0.958  0.00  0.00    -0.019 A 
ATOM      6  C   UNL     1      -4.176   1.634   0.544  0.00  0.00    +0.021 A 
ATOM      7  C   UNL     1      -1.735   1.226   0.445  0.00  0.00    +0.049 C 
ATOM      8  C   UNL     1      -1.424   1.581  -0.990  0.00  0.00    -0.023 C 
ATOM      9  C   UNL     1      -0.128   1.588  -1.185  0.00  0.00    -0.030 C 
ATOM     10  C   UNL     1       0.604   1.232   0.095  0.00  0.00    +0.033 C 
ATOM     11  C   UNL     1      -0.433   1.558   1.210  0.00  0.00    +0.029 C 
ATOM     12  C   UNL     1      -0.356   3.064   1.477  0.00  0.00    +0.105 C 
ATOM     13  N   UNL     1      -1.525   3.467   2.265  0.00  0.00    -0.336 N 
ATOM     14  H   UNL     1      -1.421   4.004   3.067  0.00  0.00    +0.147 HD
ENDROOT
BRANCH  12  15
ATOM     15  C   UNL     1      -0.349   3.809   0.168  0.00  0.00    -0.027 A 
ATOM     16  C   UNL     1       0.851   4.101  -0.455  0.00  0.00    +0.008 A 
ATOM     17  C   UNL     1       0.857   4.782  -1.658  0.00  0.00    +0.033 A 
ATOM     18  C   UNL     1      -0.335   5.177  -2.235  0.00  0.00    +0.126 A 
ATOM     19  C   UNL     1      -1.534   4.889  -1.610  0.00  0.00    +0.033 A 
ATOM     20  C   UNL     1      -1.541   4.205  -0.409  0.00  0.00    +0.008 A 
BRANCH  18  21
ATOM     21  N   UNL     1      -0.328   5.909  -3.522  0.00  0.00    +0.056 N 
ATOM     22  O   UNL     1      -1.379   6.257  -4.030  0.00  0.00    -0.126 OA
ATOM     23  O   UNL     1       0.729   6.162  -4.072  0.00  0.00    -0.126 OA
ENDBRANCH  18  21
ENDBRANCH  12  15
BRANCH   1  24
ATOM     24  C   UNL     1      -6.643   1.936   0.557  0.00  0.00    +0.339 C 
ATOM     25  O   UNL     1      -6.781   1.003  -0.210  0.00  0.00    -0.245 OA
BRANCH  24  27
ATOM     26  C   UNL     1      -9.020   2.165   0.519  0.00  0.00    +0.280 C 
ATOM     27  O   UNL     1      -7.723   2.609   1.000  0.00  0.00    -0.464 OA
ENDBRANCH  24  27
ENDBRANCH   1  24
TORSDOF 4
