REMARK  Name = ZINC08849146
REMARK  8 active torsions:
REMARK  status: ('A' for Active; 'I' for Inactive)
REMARK    1  A    between atoms: C_1  and  C_2
REMARK    2  A    between atoms: C_2  and  C_4
REMARK    3  A    between atoms: C_2  and  S_11
REMARK    4  A    between atoms: N_9  and  C_10
REMARK    5  A    between atoms: S_11  and  C_12
REMARK    6  A    between atoms: C_15  and  C_27
REMARK    7  A    between atoms: N_16  and  C_17
REMARK    8  A    between atoms: C_17  and  C_18
REMARK                            x       y       z     vdW  Elec       q    Type
REMARK                         _______ _______ _______ _____ _____    ______ ____
ROOT
ATOM      1  C   UNL     1       0.333  -3.228  -2.246  0.00  0.00    +0.193 A 
ATOM      2  N   UNL     1       0.843  -2.980  -3.431  0.00  0.00    -0.122 NA
ATOM      3  N   UNL     1       2.115  -2.820  -3.340  0.00  0.00    -0.128 NA
ATOM      4  C   UNL     1       2.494  -2.951  -2.090  0.00  0.00    +0.165 A 
ATOM      5  N   UNL     1       1.364  -3.213  -1.350  0.00  0.00    -0.298 N 
ENDROOT
BRANCH   4   6
ATOM      6  C   UNL     1       3.875  -2.838  -1.574  0.00  0.00    +0.019 A 
ATOM      7  C   UNL     1       4.119  -2.205  -0.355  0.00  0.00    +0.011 A 
ATOM      8  C   UNL     1       5.409  -2.107   0.123  0.00  0.00    +0.001 A 
ATOM      9  C   UNL     1       6.462  -2.626  -0.609  0.00  0.00    +0.000 A 
ATOM     10  C   UNL     1       6.229  -3.251  -1.821  0.00  0.00    +0.001 A 
ATOM     11  C   UNL     1       4.942  -3.360  -2.308  0.00  0.00    +0.011 A 
ENDBRANCH   4   6
BRANCH   1  12
ATOM     12  S   UNL     1      -1.365  -3.522  -1.879  0.00  0.00    -0.073 S 
BRANCH  12  14
ATOM     13  C   UNL     1      -1.900  -1.948  -4.047  0.00  0.00    +0.029 C 
ATOM     14  C   UNL     1      -2.074  -3.381  -3.538  0.00  0.00    +0.137 C 
BRANCH  14  15
ATOM     15  C   UNL     1      -3.541  -3.722  -3.489  0.00  0.00    +0.233 C 
ATOM     16  O   UNL     1      -4.160  -3.588  -2.455  0.00  0.00    -0.274 OA
ATOM     17  N   UNL     1      -4.165  -4.176  -4.594  0.00  0.00    -0.239 N 
ATOM     18  C   UNL     1      -5.477  -4.481  -4.550  0.00  0.00    +0.306 C 
ATOM     19  O   UNL     1      -6.097  -4.347  -3.513  0.00  0.00    -0.252 OA
ATOM     20  N   UNL     1      -6.101  -4.935  -5.654  0.00  0.00    -0.302 N 
ATOM     21  C   UNL     1      -7.527  -5.267  -5.606  0.00  0.00    +0.129 C 
ATOM     22  H   UNL     1      -3.670  -4.283  -5.421  0.00  0.00    +0.159 HD
ATOM     23  H   UNL     1      -5.606  -5.042  -6.482  0.00  0.00    +0.150 HD
ENDBRANCH  14  15
ENDBRANCH  12  14
ENDBRANCH   1  12
BRANCH   5  24
ATOM     24  C   UNL     1       1.284  -3.435   0.096  0.00  0.00    +0.161 C 
BRANCH  24  25
ATOM     25  C   UNL     1       1.641  -4.866   0.405  0.00  0.00    -0.024 A 
ATOM     26  C   UNL     1       0.640  -5.794   0.623  0.00  0.00    +0.009 A 
ATOM     27  C   UNL     1       0.962  -7.108   0.907  0.00  0.00    +0.050 A 
ATOM     28  C   UNL     1       2.289  -7.498   0.974  0.00  0.00    +0.166 A 
ATOM     29  C   UNL     1       3.298  -6.563   0.754  0.00  0.00    +0.167 A 
ATOM     30  C   UNL     1       2.968  -5.248   0.470  0.00  0.00    +0.055 A 
ATOM     31  O   UNL     1       4.506  -7.189   0.868  0.00  0.00    -0.453 OA
ATOM     32  C   UNL     1       4.235  -8.418   1.571  0.00  0.00    +0.466 C 
ATOM     33  O   UNL     1       2.866  -8.708   1.232  0.00  0.00    -0.453 OA
ENDBRANCH  24  25
ENDBRANCH   5  24
TORSDOF 6
