REMARK  Name = ZINC04977149
REMARK  8 active torsions:
REMARK  status: ('A' for Active; 'I' for Inactive)
REMARK    1  A    between atoms: C_1  and  C_2
REMARK    2  A    between atoms: C_2  and  C_4
REMARK    3  A    between atoms: C_2  and  S_16
REMARK    4  A    between atoms: N_6  and  C_7
REMARK    5  A    between atoms: C_10  and  N_13
REMARK    6  A    between atoms: S_16  and  C_17
REMARK    7  A    between atoms: C_20  and  C_23
REMARK    8  A    between atoms: N_21  and  C_22
REMARK                            x       y       z     vdW  Elec       q    Type
REMARK                         _______ _______ _______ _____ _____    ______ ____
ROOT
ATOM      1  C   UNL     1      -0.555  -2.657   1.312  0.00  0.00    +0.029 C 
ATOM      2  C   UNL     1       0.160  -2.948  -0.009  0.00  0.00    +0.137 C 
ENDROOT
BRANCH   2   3
ATOM      3  C   UNL     1       0.368  -4.434  -0.150  0.00  0.00    +0.230 C 
ATOM      4  O   UNL     1       1.417  -4.936   0.195  0.00  0.00    -0.274 OA
ATOM      5  N   UNL     1      -0.612  -5.206  -0.659  0.00  0.00    -0.285 N 
ATOM      6  H   UNL     1      -1.475  -4.817  -0.873  0.00  0.00    +0.155 HD
BRANCH   5   7
ATOM      7  C   UNL     1      -0.386  -6.569  -0.881  0.00  0.00    +0.034 A 
ATOM      8  C   UNL     1      -0.974  -7.205  -1.966  0.00  0.00    +0.025 A 
ATOM      9  C   UNL     1      -0.744  -8.549  -2.185  0.00  0.00    +0.034 A 
ATOM     10  C   UNL     1       0.062  -9.264  -1.319  0.00  0.00    +0.126 A 
ATOM     11  C   UNL     1       0.645  -8.635  -0.234  0.00  0.00    +0.034 A 
ATOM     12  C   UNL     1       0.423  -7.290  -0.012  0.00  0.00    +0.025 A 
BRANCH  10  13
ATOM     13  N   UNL     1       0.302 -10.706  -1.553  0.00  0.00    +0.056 N 
ATOM     14  O   UNL     1       1.012 -11.337  -0.790  0.00  0.00    -0.126 OA
ATOM     15  O   UNL     1      -0.211 -11.261  -2.508  0.00  0.00    -0.126 OA
ENDBRANCH  10  13
ENDBRANCH   5   7
ENDBRANCH   2   3
BRANCH   2  16
ATOM     16  S   UNL     1       1.765  -2.111  -0.024  0.00  0.00    -0.074 S 
BRANCH  16  17
ATOM     17  C   UNL     1       1.233  -0.431  -0.000  0.00  0.00    +0.192 A 
ATOM     18  N   UNL     1      -0.009  -0.005   0.022  0.00  0.00    -0.122 NA
ATOM     19  N   UNL     1      -0.029   1.280   0.035  0.00  0.00    -0.133 NA
ATOM     20  C   UNL     1       1.187   1.747   0.022  0.00  0.00    +0.137 A 
ATOM     21  N   UNL     1       2.035   0.674  -0.001  0.00  0.00    -0.309 N 
ATOM     22  C   UNL     1       3.499   0.705  -0.022  0.00  0.00    +0.152 C 
BRANCH  20  23
ATOM     23  C   UNL     1       1.585   3.200   0.030  0.00  0.00    +0.057 C 
ATOM     24  C   UNL     1       1.043   3.871   1.294  0.00  0.00    +0.011 C 
ATOM     25  C   UNL     1       1.448   5.346   1.302  0.00  0.00    +0.001 C 
ATOM     26  C   UNL     1       0.868   6.041   0.068  0.00  0.00    +0.000 C 
ATOM     27  C   UNL     1       1.410   5.370  -1.196  0.00  0.00    +0.001 C 
ATOM     28  C   UNL     1       1.006   3.895  -1.204  0.00  0.00    +0.011 C 
ENDBRANCH  20  23
ENDBRANCH  16  17
ENDBRANCH   2  16
TORSDOF 6
