REMARK  Name = ZINC09492523
REMARK  8 active torsions:
REMARK  status: ('A' for Active; 'I' for Inactive)
REMARK    1  A    between atoms: C_5  and  C_7
REMARK    2  A    between atoms: C_10  and  S_18
REMARK    3  A    between atoms: N_11  and  C_12
REMARK    4  A    between atoms: S_18  and  C_19
REMARK    5  A    between atoms: C_19  and  C_20
REMARK    6  A    between atoms: N_22  and  C_23
REMARK    7  A    between atoms: C_27  and  S_29
REMARK    8  A    between atoms: S_29  and  N_32
REMARK                            x       y       z     vdW  Elec       q    Type
REMARK                         _______ _______ _______ _____ _____    ______ ____
ROOT
ATOM      1  C   UNL     1       2.479   3.902   0.411  0.00  0.00    +0.168 A 
ATOM      2  N   UNL     1       3.678   3.383   0.280  0.00  0.00    -0.128 NA
ATOM      3  N   UNL     1       4.565   4.312   0.320  0.00  0.00    -0.122 NA
ATOM      4  C   UNL     1       3.987   5.482   0.479  0.00  0.00    +0.193 A 
ATOM      5  N   UNL     1       2.640   5.263   0.537  0.00  0.00    -0.299 N 
ENDROOT
BRANCH   1  10
ATOM      6  C   UNL     1      -0.953   2.739   1.397  0.00  0.00    +0.001 A 
ATOM      7  C   UNL     1      -1.201   1.779   0.431  0.00  0.00    +0.003 A 
ATOM      8  C   UNL     1      -0.260   1.513  -0.546  0.00  0.00    +0.039 A 
ATOM      9  C   UNL     1       0.941   2.198  -0.559  0.00  0.00    +0.134 A 
ATOM     10  C   UNL     1       1.198   3.165   0.417  0.00  0.00    +0.054 A 
ATOM     11  C   UNL     1       0.241   3.431   1.397  0.00  0.00    +0.014 A 
ATOM     12  F   UNL     1       1.862   1.933  -1.510  0.00  0.00    -0.205 F 
ENDBRANCH   1  10
BRANCH   5  13
ATOM     13  C   UNL     1       1.587   6.267   0.701  0.00  0.00    +0.091 C 
ATOM     14  C   UNL     1       1.660   7.276  -0.447  0.00  0.00    +0.025 C 
ATOM     15  C   UNL     1       0.560   8.325  -0.275  0.00  0.00    +0.002 C 
ATOM     16  C   UNL     1       0.752   9.053   1.057  0.00  0.00    +0.000 C 
ATOM     17  C   UNL     1       0.679   8.044   2.205  0.00  0.00    +0.002 C 
ATOM     18  C   UNL     1       1.779   6.995   2.033  0.00  0.00    +0.025 C 
ENDBRANCH   5  13
BRANCH   4  19
ATOM     19  S   UNL     1       4.798   7.042   0.589  0.00  0.00    -0.077 S 
BRANCH  19  20
ATOM     20  C   UNL     1       6.521   6.513   0.424  0.00  0.00    +0.173 C 
BRANCH  20  21
ATOM     21  C   UNL     1       7.425   7.717   0.491  0.00  0.00    +0.227 C 
ATOM     22  O   UNL     1       6.951   8.824   0.636  0.00  0.00    -0.275 OA
ATOM     23  N   UNL     1       8.761   7.563   0.390  0.00  0.00    -0.285 N 
ATOM     24  H   UNL     1       9.136   6.688   0.208  0.00  0.00    +0.155 HD
BRANCH  23  25
ATOM     25  C   UNL     1       9.605   8.668   0.546  0.00  0.00    +0.035 A 
ATOM     26  C   UNL     1       9.213   9.916   0.080  0.00  0.00    +0.023 A 
ATOM     27  C   UNL     1      10.047  11.005   0.241  0.00  0.00    +0.004 A 
ATOM     28  C   UNL     1      11.276  10.851   0.856  0.00  0.00    +0.028 A 
ATOM     29  C   UNL     1      11.672   9.609   1.317  0.00  0.00    +0.107 A 
ATOM     30  C   UNL     1      10.840   8.517   1.164  0.00  0.00    +0.051 A 
BRANCH  29  31
ATOM     31  S   UNL     1      13.239   9.419   2.100  0.00  0.00    +0.056 S 
ATOM     32  O   UNL     1      13.596  10.697   2.610  0.00  0.00    -0.153 OA
ATOM     33  O   UNL     1      13.142   8.268   2.928  0.00  0.00    -0.153 OA
BRANCH  31  34
ATOM     34  N   UNL     1      14.338   9.058   0.915  0.00  0.00    -0.204 NA
ATOM     35  H   UNL     1      15.264   9.328   1.014  0.00  0.00    +0.144 HD
ATOM     36  H   UNL     1      14.055   8.576   0.122  0.00  0.00    +0.144 HD
ENDBRANCH  31  34
ENDBRANCH  29  31
ENDBRANCH  23  25
ENDBRANCH  20  21
ENDBRANCH  19  20
ENDBRANCH   4  19
TORSDOF 8
