REMARK  Name = ZINC12569086
REMARK  14 active torsions:
REMARK  status: ('A' for Active; 'I' for Inactive)
REMARK    1  A    between atoms: C_1  and  C_2
REMARK    2  A    between atoms: C_2  and  N_3
REMARK    3  A    between atoms: N_3  and  C_4
REMARK    4  A    between atoms: N_3  and  S_6
REMARK    5  A    between atoms: C_4  and  C_5
REMARK    6  A    between atoms: S_6  and  C_9
REMARK    7  A    between atoms: C_13  and  C_15
REMARK    8  A    between atoms: C_18  and  S_21
REMARK    9  A    between atoms: N_19  and  N_20
REMARK   10  A    between atoms: S_21  and  C_22
REMARK   11  A    between atoms: C_22  and  C_24
REMARK   12  A    between atoms: C_22  and  C_25
REMARK   13  A    between atoms: N_27  and  C_28
REMARK   14  A    between atoms: C_28  and  C_29
REMARK                            x       y       z     vdW  Elec       q    Type
REMARK                         _______ _______ _______ _____ _____    ______ ____
ROOT
ATOM      1  C   UNL     1       1.172   3.565   0.009  0.00  0.00    +0.182 A 
ATOM      2  N   UNL     1       2.184   4.355  -0.264  0.00  0.00    -0.127 NA
ATOM      3  N   UNL     1       1.820   5.584  -0.165  0.00  0.00    -0.121 NA
ATOM      4  C   UNL     1       0.555   5.653   0.187  0.00  0.00    +0.209 A 
ATOM      5  N   UNL     1       0.099   4.372   0.310  0.00  0.00    -0.224 N 
ENDROOT
BRANCH   1  10
ATOM      6  C   UNL     1       2.402   0.017  -0.021  0.00  0.00    +0.106 A 
ATOM      7  C   UNL     1       1.208  -0.682  -0.014  0.00  0.00    +0.028 A 
ATOM      8  C   UNL     1       0.002  -0.004   0.002  0.00  0.00    +0.003 A 
ATOM      9  C   UNL     1      -0.017   1.376   0.010  0.00  0.00    +0.012 A 
ATOM     10  C   UNL     1       1.184   2.087   0.002  0.00  0.00    +0.023 A 
ATOM     11  C   UNL     1       2.397   1.396  -0.013  0.00  0.00    +0.040 A 
BRANCH   6  12
ATOM     12  S   UNL     1       3.932  -0.857  -0.041  0.00  0.00    +0.061 S 
ATOM     13  O   UNL     1       4.907   0.020   0.505  0.00  0.00    -0.153 OA
ATOM     14  O   UNL     1       3.672  -2.143   0.505  0.00  0.00    -0.153 OA
BRANCH  12  15
ATOM     15  N   UNL     1       4.341  -1.091  -1.629  0.00  0.00    -0.177 NA
BRANCH  15  17
ATOM     16  C   UNL     1       6.626  -0.498  -2.270  0.00  0.00    +0.022 C 
ATOM     17  C   UNL     1       5.152  -0.093  -2.330  0.00  0.00    +0.106 C 
ENDBRANCH  15  17
BRANCH  15  18
ATOM     18  C   UNL     1       3.893  -2.296  -2.331  0.00  0.00    +0.106 C 
ATOM     19  C   UNL     1       2.600  -1.993  -3.089  0.00  0.00    +0.022 C 
ENDBRANCH  15  18
ENDBRANCH  12  15
ENDBRANCH   6  12
ENDBRANCH   1  10
BRANCH   5  20
ATOM     20  N   UNL     1      -1.161   3.975   0.660  0.00  0.00    -0.295 N 
ATOM     21  H   UNL     1      -1.241   3.868   1.660  0.00  0.00    +0.163 HD
ATOM     22  H   UNL     1      -1.854   4.618   0.308  0.00  0.00    +0.163 HD
ENDBRANCH   5  20
BRANCH   4  23
ATOM     23  S   UNL     1      -0.377   7.125   0.450  0.00  0.00    -0.072 S 
BRANCH  23  24
ATOM     24  C   UNL     1       0.892   8.367   0.101  0.00  0.00    +0.137 C 
ATOM     25  C   UNL     1       2.003   8.271   1.148  0.00  0.00    +0.029 C 
BRANCH  24  26
ATOM     26  C   UNL     1       0.276   9.742   0.148  0.00  0.00    +0.227 C 
ATOM     27  O   UNL     1      -0.725   9.936   0.805  0.00  0.00    -0.275 OA
ATOM     28  N   UNL     1       0.836  10.756  -0.541  0.00  0.00    -0.307 N 
ATOM     29  H   UNL     1       1.636  10.601  -1.067  0.00  0.00    +0.149 HD
BRANCH  28  30
ATOM     30  C   UNL     1       0.237  12.092  -0.495  0.00  0.00    +0.178 C 
BRANCH  30  31
ATOM     31  C   UNL     1       1.049  13.036  -1.344  0.00  0.00    +0.122 A 
ATOM     32  C   UNL     1       0.857  13.282  -2.652  0.00  0.00    +0.046 A 
ATOM     33  C   UNL     1       1.837  14.223  -3.041  0.00  0.00    +0.041 A 
ATOM     34  C   UNL     1       2.570  14.497  -1.946  0.00  0.00    +0.195 A 
ATOM     35  O   UNL     1       2.085  13.779  -0.920  0.00  0.00    -0.466 OA
ENDBRANCH  30  31
ENDBRANCH  28  30
ENDBRANCH  24  26
ENDBRANCH  23  24
ENDBRANCH   4  23
TORSDOF 11
