REMARK  Name = ZINC64774636
REMARK  9 active torsions:
REMARK  status: ('A' for Active; 'I' for Inactive)
REMARK    1  A    between atoms: C_1  and  C_2
REMARK    2  A    between atoms: C_2  and  C_4
REMARK    3  A    between atoms: C_2  and  S_15
REMARK    4  A    between atoms: S_15  and  C_16
REMARK    5  A    between atoms: C_20  and  C_23
REMARK    6  A    between atoms: C_28  and  N_29
REMARK    7  A    between atoms: C_30  and  C_32
REMARK    8  A    between atoms: C_32  and  C_33
REMARK    9  A    between atoms: C_32  and  C_34
REMARK                            x       y       z     vdW  Elec       q    Type
REMARK                         _______ _______ _______ _____ _____    ______ ____
ROOT
ATOM      1  C   UNL     1      -0.296  -0.004  -2.766  0.00  0.00    +0.213 A 
ATOM      2  N   UNL     1       0.089  -0.317  -3.998  0.00  0.00    -0.180 NA
ATOM      3  C   UNL     1      -0.655   0.058  -5.030  0.00  0.00    +0.300 A 
ATOM      4  O   UNL     1      -0.287  -0.248  -6.297  0.00  0.00    -0.263 OA
ATOM      5  C   UNL     1      -1.836   0.781  -4.780  0.00  0.00    +0.161 A 
ATOM      6  N   UNL     1      -2.165   1.063  -3.525  0.00  0.00    -0.141 NA
ATOM      7  N   UNL     1      -1.417   0.674  -2.552  0.00  0.00    -0.122 NA
ENDROOT
BRANCH   5   8
ATOM      8  C   UNL     1      -2.699   1.222  -5.901  0.00  0.00    +0.029 A 
ATOM      9  C   UNL     1      -3.093   0.313  -6.881  0.00  0.00    +0.012 A 
ATOM     10  C   UNL     1      -3.897   0.729  -7.923  0.00  0.00    +0.001 A 
ATOM     11  C   UNL     1      -4.314   2.046  -7.999  0.00  0.00    +0.002 A 
ATOM     12  C   UNL     1      -3.930   2.957  -7.034  0.00  0.00    +0.024 A 
ATOM     13  C   UNL     1      -3.127   2.553  -5.978  0.00  0.00    +0.043 A 
BRANCH  13  14
ATOM     14  N   UNL     1      -2.743   3.471  -4.997  0.00  0.00    -0.285 N 
ATOM     15  C   UNL     1      -3.496   4.564  -4.765  0.00  0.00    +0.220 C 
ATOM     16  O   UNL     1      -4.559   4.700  -5.334  0.00  0.00    -0.275 OA
ATOM     17  H   UNL     1      -1.933   3.322  -4.484  0.00  0.00    +0.155 HD
BRANCH  15  18
ATOM     18  C   UNL     1      -3.019   5.617  -3.798  0.00  0.00    +0.069 C 
ATOM     19  C   UNL     1      -1.683   6.185  -4.282  0.00  0.00    +0.017 C 
ATOM     20  C   UNL     1      -4.053   6.742  -3.718  0.00  0.00    +0.017 C 
ENDBRANCH  15  18
ENDBRANCH  13  14
ENDBRANCH   5   8
BRANCH   1  21
ATOM     21  S   UNL     1       0.692  -0.502  -1.395  0.00  0.00    -0.072 S 
BRANCH  21  23
ATOM     22  C   UNL     1      -0.217   1.662   0.009  0.00  0.00    +0.029 C 
ATOM     23  C   UNL     1      -0.207   0.133   0.047  0.00  0.00    +0.137 C 
BRANCH  23  24
ATOM     24  C   UNL     1       0.473  -0.333   1.308  0.00  0.00    +0.233 C 
ATOM     25  O   UNL     1       1.630  -0.698   1.274  0.00  0.00    -0.274 OA
ATOM     26  N   UNL     1      -0.203  -0.345   2.474  0.00  0.00    -0.270 N 
ATOM     27  C   UNL     1      -1.628  -0.037   2.622  0.00  0.00    +0.118 C 
ATOM     28  C   UNL     1      -1.919  -0.186   4.124  0.00  0.00    +0.056 C 
ATOM     29  C   UNL     1      -0.592  -0.581   4.732  0.00  0.00    -0.024 A 
ATOM     30  C   UNL     1       0.351  -0.659   3.719  0.00  0.00    +0.040 A 
ATOM     31  C   UNL     1       1.662  -1.016   4.040  0.00  0.00    +0.024 A 
ATOM     32  C   UNL     1       2.008  -1.289   5.346  0.00  0.00    +0.002 A 
ATOM     33  C   UNL     1       1.059  -1.213   6.348  0.00  0.00    +0.000 A 
ATOM     34  C   UNL     1      -0.240  -0.852   6.040  0.00  0.00    +0.005 A 
ENDBRANCH  23  24
ENDBRANCH  21  23
ENDBRANCH   1  21
TORSDOF 6
