REMARK  Name = ZINC13346541
REMARK  14 active torsions:
REMARK  status: ('A' for Active; 'I' for Inactive)
REMARK    1  A    between atoms: C_1  and  C_2
REMARK    2  A    between atoms: C_2  and  C_3
REMARK    3  A    between atoms: C_2  and  N_62
REMARK    4  A    between atoms: C_4  and  C_5
REMARK    5  A    between atoms: C_4  and  N_62
REMARK    6  A    between atoms: C_5  and  N_6
REMARK    7  A    between atoms: C_16  and  S_17
REMARK    8  A    between atoms: S_17  and  C_18
REMARK    9  A    between atoms: C_18  and  C_19
REMARK   10  A    between atoms: N_21  and  C_22
REMARK   11  A    between atoms: C_27  and  C_28
REMARK   12  A    between atoms: C_30  and  C_31
REMARK   13  A    between atoms: C_30  and  C_32
REMARK   14  A    between atoms: C_30  and  N_62
REMARK                            x       y       z     vdW  Elec       q    Type
REMARK                         _______ _______ _______ _____ _____    ______ ____
ROOT
ATOM      1  N   UNL     1      -0.378  -1.064  -1.016  0.00  0.00    -0.289 N 
ATOM      2  C   UNL     1       0.623  -0.423  -1.663  0.00  0.00    +0.262 A 
ATOM      3  O   UNL     1       1.640  -1.007  -1.988  0.00  0.00    -0.267 OA
ATOM      4  C   UNL     1       0.436   1.004  -1.956  0.00  0.00    +0.065 A 
ATOM      5  C   UNL     1       1.408   1.754  -2.618  0.00  0.00    +0.015 A 
ATOM      6  C   UNL     1       1.183   3.080  -2.866  0.00  0.00    +0.001 A 
ATOM      7  C   UNL     1      -0.001   3.686  -2.467  0.00  0.00    +0.002 A 
ATOM      8  C   UNL     1      -0.970   2.975  -1.817  0.00  0.00    +0.028 A 
ATOM      9  C   UNL     1      -0.770   1.618  -1.549  0.00  0.00    +0.079 A 
ATOM     10  N   UNL     1      -1.700   0.879  -0.910  0.00  0.00    -0.223 NA
ATOM     11  C   UNL     1      -1.512  -0.393  -0.657  0.00  0.00    +0.173 A 
ENDROOT
BRANCH   1  12
ATOM     12  C   UNL     1      -0.244  -2.488  -0.698  0.00  0.00    +0.109 C 
BRANCH  12  13
ATOM     13  C   UNL     1       0.403  -2.644   0.680  0.00  0.00    -0.056 C 
BRANCH  13  14
ATOM     14  N   UNL     1       0.550  -4.084   0.977  0.00  0.00    +0.384 N 
ATOM     15  H   UNL     1       1.025  -4.540   0.188  0.00  0.00    -0.081 HD
BRANCH  14  17
ATOM     16  C   UNL     1       2.843  -4.208   1.813  0.00  0.00    -0.014 C 
ATOM     17  C   UNL     1       1.363  -4.268   2.197  0.00  0.00    -0.074 C 
ATOM     18  C   UNL     1       1.056  -3.167   3.214  0.00  0.00    -0.014 C 
ENDBRANCH  14  17
BRANCH  14  19
ATOM     19  C   UNL     1      -0.780  -4.701   1.158  0.00  0.00    -0.074 C 
ATOM     20  C   UNL     1      -0.615  -6.221   1.226  0.00  0.00    -0.014 C 
ATOM     21  C   UNL     1      -1.432  -4.202   2.449  0.00  0.00    -0.014 C 
ENDBRANCH  14  19
ENDBRANCH  13  14
ENDBRANCH  12  13
ENDBRANCH   1  12
BRANCH  11  22
ATOM     22  S   UNL     1      -2.783  -1.278   0.183  0.00  0.00    -0.078 S 
BRANCH  22  23
ATOM     23  C   UNL     1      -3.996   0.046   0.404  0.00  0.00    +0.173 C 
BRANCH  23  24
ATOM     24  C   UNL     1      -5.205  -0.495   1.123  0.00  0.00    +0.228 C 
ATOM     25  O   UNL     1      -5.242  -1.661   1.454  0.00  0.00    -0.275 OA
ATOM     26  N   UNL     1      -6.244   0.317   1.399  0.00  0.00    -0.284 N 
ATOM     27  H   UNL     1      -6.244   1.232   1.076  0.00  0.00    +0.155 HD
BRANCH  26  28
ATOM     28  C   UNL     1      -7.318  -0.156   2.148  0.00  0.00    +0.048 A 
ATOM     29  C   UNL     1      -7.118  -1.133   3.115  0.00  0.00    +0.024 A 
ATOM     30  C   UNL     1      -8.183  -1.597   3.860  0.00  0.00    +0.002 A 
ATOM     31  C   UNL     1      -9.459  -1.102   3.644  0.00  0.00    +0.001 A 
ATOM     32  C   UNL     1      -9.678  -0.137   2.685  0.00  0.00    +0.017 A 
ATOM     33  C   UNL     1      -8.609   0.347   1.926  0.00  0.00    +0.084 A 
BRANCH  33  34
ATOM     34  C   UNL     1      -8.837   1.379   0.899  0.00  0.00    +0.388 C 
ATOM     35  O   UNL     1      -7.928   1.718   0.167  0.00  0.00    -0.241 OA
ATOM     36  O   UNL     1     -10.052   1.946   0.771  0.00  0.00    -0.241 OA
ENDBRANCH  33  34
ENDBRANCH  26  28
ENDBRANCH  23  24
ENDBRANCH  22  23
ENDBRANCH  11  22
TORSDOF 10
