REMARK  Name = ZINC22972610
REMARK  11 active torsions:
REMARK  status: ('A' for Active; 'I' for Inactive)
REMARK    1  A    between atoms: C_1  and  C_2
REMARK    2  A    between atoms: C_2  and  O_3
REMARK    3  A    between atoms: O_3  and  C_4
REMARK    4  A    between atoms: C_7  and  O_10
REMARK    5  A    between atoms: O_10  and  C_11
REMARK    6  A    between atoms: C_11  and  C_12
REMARK    7  A    between atoms: C_12  and  N_14
REMARK    8  A    between atoms: C_17  and  C_29
REMARK    9  A    between atoms: C_18  and  C_20
REMARK   10  A    between atoms: N_25  and  C_26
REMARK   11  A    between atoms: C_26  and  C_27
REMARK                            x       y       z     vdW  Elec       q    Type
REMARK                         _______ _______ _______ _____ _____    ______ ____
ROOT
ATOM      1  N   UNL     1      -4.444  -8.629  -0.013  0.00  0.00    -0.154 NA
ATOM      2  C   UNL     1      -4.426  -9.963  -0.020  0.00  0.00    +0.164 A 
ATOM      3  N   UNL     1      -3.347 -10.791  -0.025  0.00  0.00    -0.339 N 
ATOM      4  C   UNL     1      -3.545 -12.132  -0.032  0.00  0.00    +0.032 A 
ATOM      5  C   UNL     1      -4.831 -12.562  -0.034  0.00  0.00    +0.078 A 
ATOM      6  S   UNL     1      -5.731 -11.023  -0.018  0.00  0.00    -0.049 S 
ATOM      7  C   UNL     1      -2.390 -13.100  -0.038  0.00  0.00    +0.064 C 
ATOM      8  H   UNL     1      -2.448 -10.428  -0.024  0.00  0.00    +0.167 HD
ENDROOT
BRANCH   5   9
ATOM      9  C   UNL     1      -5.349 -13.941  -0.041  0.00  0.00    +0.174 A 
ATOM     10  N   UNL     1      -4.634 -15.044  -0.042  0.00  0.00    -0.128 NA
ATOM     11  N   UNL     1      -5.410 -16.069  -0.049  0.00  0.00    -0.121 NA
ATOM     12  C   UNL     1      -6.666 -15.685  -0.053  0.00  0.00    +0.203 A 
ATOM     13  S   UNL     1      -8.079 -16.738  -0.063  0.00  0.00    -0.009 SA
ATOM     14  N   UNL     1      -6.673 -14.318  -0.042  0.00  0.00    -0.297 N 
BRANCH  14  15
ATOM     15  C   UNL     1      -7.844 -13.439  -0.037  0.00  0.00    +0.152 C 
BRANCH  15  16
ATOM     16  C   UNL     1      -8.247 -13.130  -1.456  0.00  0.00    -0.013 C 
ATOM     17  C   UNL     1      -9.470 -13.371  -1.857  0.00  0.00    +0.005 C 
ENDBRANCH  15  16
ENDBRANCH  14  15
ENDBRANCH   5   9
BRANCH   1  18
ATOM     18  C   UNL     1      -3.304  -7.950  -0.015  0.00  0.00    +0.276 C 
ATOM     19  O   UNL     1      -2.242  -8.544  -0.024  0.00  0.00    -0.270 OA
BRANCH  18  20
ATOM     20  C   UNL     1      -3.324  -6.443  -0.007  0.00  0.00    +0.326 C 
BRANCH  20  21
ATOM     21  O   UNL     1      -1.984  -5.949  -0.011  0.00  0.00    -0.483 OA
BRANCH  21  25
ATOM     22  C   UNL     1      -1.498  -1.849   0.006  0.00  0.00    +0.121 A 
ATOM     23  C   UNL     1      -0.387  -2.679  -0.003  0.00  0.00    +0.049 A 
ATOM     24  C   UNL     1      -0.549  -4.051  -0.009  0.00  0.00    +0.049 A 
ATOM     25  C   UNL     1      -1.824  -4.598  -0.005  0.00  0.00    +0.121 A 
ATOM     26  C   UNL     1      -2.935  -3.768   0.005  0.00  0.00    +0.049 A 
ATOM     27  C   UNL     1      -2.773  -2.397   0.016  0.00  0.00    +0.049 A 
BRANCH  22  28
ATOM     28  O   UNL     1      -1.339  -0.499   0.012  0.00  0.00    -0.492 OA
BRANCH  28  30
ATOM     29  C   UNL     1      -0.019   1.526   0.010  0.00  0.00    +0.048 C 
ATOM     30  C   UNL     1       0.002  -0.004   0.002  0.00  0.00    +0.225 C 
ENDBRANCH  28  30
ENDBRANCH  22  28
ENDBRANCH  21  25
ENDBRANCH  20  21
ENDBRANCH  18  20
ENDBRANCH   1  18
TORSDOF 9
