REMARK  Name = ZINC39571467
REMARK  8 active torsions:
REMARK  status: ('A' for Active; 'I' for Inactive)
REMARK    1  A    between atoms: C_1  and  C_2
REMARK    2  A    between atoms: C_2  and  C_4
REMARK    3  A    between atoms: C_2  and  O_15
REMARK    4  A    between atoms: N_6  and  C_7
REMARK    5  A    between atoms: C_7  and  C_13
REMARK    6  A    between atoms: O_15  and  C_16
REMARK    7  A    between atoms: C_16  and  C_18
REMARK    8  A    between atoms: C_22  and  N_24
REMARK                            x       y       z     vdW  Elec       q    Type
REMARK                         _______ _______ _______ _____ _____    ______ ____
ROOT
ATOM      1  C   UNL     1      -0.019   1.526   0.010  0.00  0.00    +0.062 C 
ATOM      2  C   UNL     1       0.002  -0.004   0.002  0.00  0.00    +0.259 C 
ENDROOT
BRANCH   2   3
ATOM      3  C   UNL     1      -1.412  -0.526   0.013  0.00  0.00    +0.255 C 
ATOM      4  O   UNL     1      -1.836  -1.147  -0.939  0.00  0.00    -0.272 OA
ATOM      5  N   UNL     1      -2.204  -0.302   1.079  0.00  0.00    -0.294 N 
ATOM      6  H   UNL     1      -1.865   0.195   1.840  0.00  0.00    +0.150 HD
BRANCH   5   7
ATOM      7  C   UNL     1      -3.579  -0.809   1.090  0.00  0.00    +0.121 C 
ATOM      8  C   UNL     1      -4.355  -0.203  -0.081  0.00  0.00    +0.041 C 
ATOM      9  C   UNL     1      -5.790  -0.733  -0.070  0.00  0.00    +0.003 C 
ATOM     10  C   UNL     1      -6.467  -0.344   1.246  0.00  0.00    +0.000 C 
ATOM     11  C   UNL     1      -5.691  -0.950   2.417  0.00  0.00    +0.003 C 
ATOM     12  C   UNL     1      -4.256  -0.420   2.406  0.00  0.00    +0.041 C 
BRANCH   7  13
ATOM     13  C   UNL     1      -3.562  -2.275   0.961  0.00  0.00    +0.088 C 
ATOM     14  N   UNL     1      -3.549  -3.407   0.861  0.00  0.00    -0.194 NA
ENDBRANCH   7  13
ENDBRANCH   5   7
ENDBRANCH   2   3
BRANCH   2  15
ATOM     15  O   UNL     1       0.671  -0.465  -1.174  0.00  0.00    -0.449 OA
BRANCH  15  16
ATOM     16  C   UNL     1       2.002  -0.651  -1.087  0.00  0.00    +0.340 C 
ATOM     17  O   UNL     1       2.580  -0.429  -0.041  0.00  0.00    -0.245 OA
BRANCH  16  18
ATOM     18  C   UNL     1       2.760  -1.126  -2.262  0.00  0.00    +0.061 A 
ATOM     19  C   UNL     1       2.100  -1.377  -3.467  0.00  0.00    +0.016 A 
ATOM     20  C   UNL     1       2.813  -1.820  -4.561  0.00  0.00    +0.018 A 
ATOM     21  C   UNL     1       4.181  -2.016  -4.466  0.00  0.00    +0.048 A 
ATOM     22  C   UNL     1       4.841  -1.769  -3.275  0.00  0.00    +0.141 A 
ATOM     23  C   UNL     1       4.140  -1.320  -2.175  0.00  0.00    +0.048 A 
ATOM     24 BR   UNL     1       5.151  -2.625  -5.971  0.00  0.00    -0.048 Br
BRANCH  22  25
ATOM     25  N   UNL     1       6.303  -1.982  -3.182  0.00  0.00    +0.058 N 
ATOM     26  O   UNL     1       6.881  -1.766  -2.142  0.00  0.00    -0.126 OA
ATOM     27  O   UNL     1       6.919  -2.371  -4.147  0.00  0.00    -0.126 OA
ENDBRANCH  22  25
ENDBRANCH  16  18
ENDBRANCH  15  16
ENDBRANCH   2  15
TORSDOF 7
