REMARK  Name = ZINC65898060
REMARK  7 active torsions:
REMARK  status: ('A' for Active; 'I' for Inactive)
REMARK    1  A    between atoms: C_1  and  O_2
REMARK    2  A    between atoms: O_2  and  C_3
REMARK    3  A    between atoms: C_6  and  C_9
REMARK    4  A    between atoms: C_9  and  C_15
REMARK    5  A    between atoms: N_17  and  N_18
REMARK    6  A    between atoms: N_21  and  C_22
REMARK    7  A    between atoms: C_22  and  C_23
REMARK                            x       y       z     vdW  Elec       q    Type
REMARK                         _______ _______ _______ _____ _____    ______ ____
ROOT
ATOM      1  C   UNL     1      -5.696  -2.333   1.328  0.00  0.00    +0.240 C 
ATOM      2  O   UNL     1      -5.921  -3.228   2.115  0.00  0.00    -0.273 OA
ATOM      3  N   UNL     1      -6.086  -1.074   1.610  0.00  0.00    -0.232 N 
ATOM      4  H   UNL     1      -5.971  -0.372   0.951  0.00  0.00    +0.173 HD
ENDROOT
BRANCH   1   5
ATOM      5  C   UNL     1      -4.981  -2.629   0.035  0.00  0.00    +0.073 C 
ATOM      6  C   UNL     1      -5.803  -2.088  -1.137  0.00  0.00    +0.021 C 
ATOM      7  C   UNL     1      -7.178  -2.760  -1.149  0.00  0.00    +0.001 C 
ATOM      8  C   UNL     1      -7.005  -4.273  -1.302  0.00  0.00    +0.000 C 
ATOM      9  C   UNL     1      -6.183  -4.813  -0.130  0.00  0.00    +0.001 C 
ATOM     10  C   UNL     1      -4.809  -4.142  -0.118  0.00  0.00    +0.021 C 
BRANCH   5  14
ATOM     11  C   UNL     1      -1.142  -0.753   0.068  0.00  0.00    +0.120 A 
ATOM     12  C   UNL     1      -2.030  -0.501  -0.968  0.00  0.00    +0.046 A 
ATOM     13  C   UNL     1      -3.270  -1.109  -0.976  0.00  0.00    +0.008 A 
ATOM     14  C   UNL     1      -3.627  -1.968   0.047  0.00  0.00    -0.032 A 
ATOM     15  C   UNL     1      -2.745  -2.220   1.080  0.00  0.00    +0.008 A 
ATOM     16  C   UNL     1      -1.501  -1.620   1.091  0.00  0.00    +0.046 A 
BRANCH  11  18
ATOM     17  C   UNL     1       0.381   0.724  -1.006  0.00  0.00    +0.277 C 
ATOM     18  O   UNL     1       0.079  -0.156   0.079  0.00  0.00    -0.495 OA
ENDBRANCH  11  18
ENDBRANCH   5  14
ENDBRANCH   1   5
BRANCH   3  19
ATOM     19  N   UNL     1      -6.656  -0.780   2.856  0.00  0.00    -0.218 N 
ATOM     20  C   UNL     1      -7.045   0.479   3.138  0.00  0.00    +0.316 C 
ATOM     21  O   UNL     1      -7.540   0.735   4.219  0.00  0.00    -0.251 OA
ATOM     22  N   UNL     1      -6.886   1.455   2.222  0.00  0.00    -0.296 N 
ATOM     23  H   UNL     1      -6.770  -1.482   3.515  0.00  0.00    +0.174 HD
ATOM     24  H   UNL     1      -6.492   1.251   1.359  0.00  0.00    +0.150 HD
BRANCH  22  25
ATOM     25  C   UNL     1      -7.310   2.823   2.528  0.00  0.00    +0.137 C 
BRANCH  25  26
ATOM     26  C   UNL     1      -7.020   3.728   1.328  0.00  0.00    +0.135 C 
ATOM     27  C   UNL     1      -7.356   5.192   1.683  0.00  0.00    +0.035 C 
ATOM     28  C   UNL     1      -7.995   5.712   0.366  0.00  0.00    +0.031 C 
ATOM     29  C   UNL     1      -8.717   4.436  -0.134  0.00  0.00    +0.160 C 
ATOM     30  O   UNL     1      -7.849   3.349   0.223  0.00  0.00    -0.375 OA
ENDBRANCH  25  26
ENDBRANCH  22  25
ENDBRANCH   3  19
TORSDOF 6
