REMARK  Name = ZINC64384509
REMARK  5 active torsions:
REMARK  status: ('A' for Active; 'I' for Inactive)
REMARK    1  A    between atoms: C_6  and  C_7
REMARK    2  A    between atoms: C_7  and  N_8
REMARK    3  A    between atoms: C_9  and  C_11
REMARK    4  A    between atoms: N_13  and  N_14
REMARK    5  A    between atoms: N_14  and  C_15
REMARK                            x       y       z     vdW  Elec       q    Type
REMARK                         _______ _______ _______ _____ _____    ______ ____
ROOT
ATOM      1  N   UNL     1      -1.725  -1.016  -1.370  0.00  0.00    -0.303 N 
ATOM      2  C   UNL     1      -2.866  -1.692  -1.611  0.00  0.00    +0.301 C 
ATOM      3  O   UNL     1      -3.536  -2.099  -0.685  0.00  0.00    -0.265 OA
ATOM      4  H   UNL     1      -1.189  -0.690  -2.110  0.00  0.00    +0.149 HD
ENDROOT
BRANCH   2   5
ATOM      5  C   UNL     1      -3.306  -1.938  -3.018  0.00  0.00    +0.315 C 
ATOM      6  O   UNL     1      -2.636  -1.531  -3.943  0.00  0.00    -0.264 OA
ATOM      7  N   UNL     1      -4.447  -2.614  -3.258  0.00  0.00    -0.229 N 
ATOM      8  H   UNL     1      -4.983  -2.940  -2.518  0.00  0.00    +0.173 HD
BRANCH   7   9
ATOM      9  N   UNL     1      -4.859  -2.846  -4.577  0.00  0.00    -0.263 N 
ATOM     10  H   UNL     1      -4.324  -2.520  -5.317  0.00  0.00    +0.170 HD
BRANCH   9  11
ATOM     11  C   UNL     1      -6.043  -3.546  -4.826  0.00  0.00    +0.063 A 
ATOM     12  C   UNL     1      -6.814  -4.009  -3.768  0.00  0.00    +0.027 A 
ATOM     13  C   UNL     1      -7.983  -4.701  -4.017  0.00  0.00    +0.022 A 
ATOM     14  C   UNL     1      -8.387  -4.935  -5.320  0.00  0.00    +0.042 A 
ATOM     15  C   UNL     1      -7.621  -4.475  -6.377  0.00  0.00    +0.042 A 
ATOM     16  C   UNL     1      -6.454  -3.777  -6.134  0.00  0.00    +0.065 A 
ATOM     17 CL   UNL     1      -5.497  -3.194  -7.460  0.00  0.00    -0.082 Cl
ATOM     18 CL   UNL     1      -9.856  -5.806  -5.628  0.00  0.00    -0.083 Cl
ENDBRANCH   9  11
ENDBRANCH   7   9
ENDBRANCH   2   5
BRANCH   1  19
ATOM     19  C   UNL     1      -1.293  -0.774   0.009  0.00  0.00    +0.140 C 
BRANCH  19  25
ATOM     20  C   UNL     1      -0.017   1.378   0.010  0.00  0.00    +0.009 A 
ATOM     21  C   UNL     1       1.170   2.088   0.002  0.00  0.00    +0.050 A 
ATOM     22  C   UNL     1       2.382   1.415  -0.013  0.00  0.00    +0.162 A 
ATOM     23  C   UNL     1       2.401   0.025  -0.018  0.00  0.00    +0.162 A 
ATOM     24  C   UNL     1       1.207  -0.681  -0.011  0.00  0.00    +0.054 A 
ATOM     25  C   UNL     1       0.002  -0.004   0.002  0.00  0.00    -0.027 A 
ATOM     26  O   UNL     1       3.579  -0.656  -0.024  0.00  0.00    -0.485 OA
ATOM     27  C   UNL     1       4.746   0.081  -0.406  0.00  0.00    +0.270 C 
ATOM     28  C   UNL     1       4.733   1.422   0.340  0.00  0.00    +0.270 C 
ATOM     29  O   UNL     1       3.542   2.127  -0.024  0.00  0.00    -0.485 OA
ENDBRANCH  19  25
ENDBRANCH   1  19
TORSDOF 5
