REMARK  Name = ZINC15224939
REMARK  11 active torsions:
REMARK  status: ('A' for Active; 'I' for Inactive)
REMARK    1  A    between atoms: C_1  and  C_2
REMARK    2  A    between atoms: C_2  and  C_4
REMARK    3  A    between atoms: C_2  and  O_11
REMARK    4  A    between atoms: N_9  and  C_10
REMARK    5  A    between atoms: O_11  and  C_12
REMARK    6  A    between atoms: C_12  and  C_14
REMARK    7  A    between atoms: C_18  and  S_20
REMARK    8  A    between atoms: S_20  and  N_23
REMARK    9  A    between atoms: N_23  and  C_24
REMARK   10  A    between atoms: N_23  and  C_27
REMARK   11  A    between atoms: C_24  and  C_25
REMARK                            x       y       z     vdW  Elec       q    Type
REMARK                         _______ _______ _______ _____ _____    ______ ____
ROOT
ATOM      1  C   UNL     1       4.582  -4.786   2.108  0.00  0.00    +0.061 A 
ATOM      2  C   UNL     1       5.540  -3.833   2.461  0.00  0.00    +0.015 A 
ATOM      3  C   UNL     1       5.554  -2.607   1.830  0.00  0.00    +0.003 A 
ATOM      4  C   UNL     1       4.624  -2.321   0.846  0.00  0.00    +0.029 A 
ATOM      5  C   UNL     1       3.668  -3.259   0.495  0.00  0.00    +0.110 A 
ATOM      6  C   UNL     1       3.643  -4.489   1.119  0.00  0.00    +0.043 A 
ENDROOT
BRANCH   5   7
ATOM      7  S   UNL     1       2.485  -2.882  -0.755  0.00  0.00    +0.075 S 
ATOM      8  O   UNL     1       2.160  -4.111  -1.389  0.00  0.00    -0.150 OA
ATOM      9  O   UNL     1       2.993  -1.766  -1.472  0.00  0.00    -0.150 OA
BRANCH   7  10
ATOM     10  N   UNL     1       1.110  -2.367   0.011  0.00  0.00    -0.199 N 
BRANCH  10  11
ATOM     11  C   UNL     1       0.923  -1.006   0.270  0.00  0.00    +0.052 A 
ATOM     12  C   UNL     1      -0.361  -0.492   0.395  0.00  0.00    +0.026 A 
ATOM     13  C   UNL     1      -0.543   0.853   0.650  0.00  0.00    +0.022 A 
ATOM     14  C   UNL     1       0.552   1.688   0.782  0.00  0.00    +0.041 A 
ATOM     15  C   UNL     1       1.833   1.178   0.659  0.00  0.00    +0.022 A 
ATOM     16  C   UNL     1       2.021  -0.166   0.404  0.00  0.00    +0.026 A 
ATOM     17 CL   UNL     1       0.319   3.378   1.103  0.00  0.00    -0.084 Cl
ENDBRANCH  10  11
BRANCH  10  18
ATOM     18  C   UNL     1       0.091  -3.337   0.418  0.00  0.00    +0.158 C 
BRANCH  18  19
ATOM     19  C   UNL     1      -0.970  -3.428  -0.649  0.00  0.00    -0.014 C 
ATOM     20  C   UNL     1      -1.271  -4.589  -1.176  0.00  0.00    +0.005 C 
ENDBRANCH  18  19
ENDBRANCH  10  18
ENDBRANCH   7  10
ENDBRANCH   5   7
BRANCH   1  21
ATOM     21  C   UNL     1       4.562  -6.102   2.780  0.00  0.00    +0.340 C 
ATOM     22  O   UNL     1       3.728  -6.928   2.470  0.00  0.00    -0.245 OA
BRANCH  21  23
ATOM     23  O   UNL     1       5.469  -6.385   3.735  0.00  0.00    -0.449 OA
BRANCH  23  25
ATOM     24  C   UNL     1       4.469  -7.632   5.571  0.00  0.00    +0.062 C 
ATOM     25  C   UNL     1       5.390  -7.697   4.351  0.00  0.00    +0.259 C 
BRANCH  25  26
ATOM     26  C   UNL     1       6.766  -8.133   4.783  0.00  0.00    +0.261 C 
ATOM     27  O   UNL     1       7.705  -7.374   4.673  0.00  0.00    -0.271 OA
ATOM     28  N   UNL     1       6.953  -9.367   5.291  0.00  0.00    -0.237 N 
ATOM     29  C   UNL     1       8.184  -9.758   5.677  0.00  0.00    +0.306 C 
ATOM     30  O   UNL     1       9.125  -8.997   5.566  0.00  0.00    -0.252 OA
ATOM     31  N   UNL     1       8.371 -10.992   6.185  0.00  0.00    -0.302 N 
ATOM     32  C   UNL     1       9.709 -11.416   6.604  0.00  0.00    +0.129 C 
ATOM     33  H   UNL     1       6.202  -9.975   5.379  0.00  0.00    +0.159 HD
ATOM     34  H   UNL     1       7.620 -11.599   6.273  0.00  0.00    +0.150 HD
ENDBRANCH  25  26
ENDBRANCH  23  25
ENDBRANCH  21  23
ENDBRANCH   1  21
TORSDOF 9
