REMARK  Name = ZINC13415776
REMARK  9 active torsions:
REMARK  status: ('A' for Active; 'I' for Inactive)
REMARK    1  A    between atoms: C_1  and  C_2
REMARK    2  A    between atoms: C_2  and  C_3
REMARK    3  A    between atoms: C_3  and  N_4
REMARK    4  A    between atoms: N_4  and  C_5
REMARK    5  A    between atoms: C_5  and  C_6
REMARK    6  A    between atoms: C_19  and  C_21
REMARK    7  A    between atoms: C_22  and  C_23
REMARK    8  A    between atoms: C_25  and  C_29
REMARK    9  A    between atoms: C_26  and  C_28
REMARK                            x       y       z     vdW  Elec       q    Type
REMARK                         _______ _______ _______ _____ _____    ______ ____
ROOT
ATOM      1  N   UNL     1       0.430  10.007   0.053  0.00  0.00    -0.291 N 
ATOM      2  C   UNL     1      -0.204   8.818   0.053  0.00  0.00    +0.240 C 
ATOM      3  O   UNL     1      -1.421   8.777   0.065  0.00  0.00    -0.271 OA
ENDROOT
BRANCH   2   4
ATOM      4  C   UNL     1       0.545   7.616   0.038  0.00  0.00    +0.071 C 
ATOM      5  C   UNL     1      -0.093   6.420   0.038  0.00  0.00    +0.051 C 
BRANCH   5   6
ATOM      6  C   UNL     1       0.657   5.217   0.024  0.00  0.00    +0.129 A 
ATOM      7  C   UNL     1       0.137   3.955   0.022  0.00  0.00    +0.064 A 
ATOM      8  C   UNL     1       1.238   3.063   0.007  0.00  0.00    +0.104 A 
ATOM      9  C   UNL     1       2.374   3.845   0.006  0.00  0.00    +0.117 A 
ATOM     10  O   UNL     1       2.003   5.128   0.010  0.00  0.00    -0.460 OA
ATOM     11  C   UNL     1       3.793   3.339  -0.003  0.00  0.00    +0.087 C 
BRANCH   8  12
ATOM     12  C   UNL     1       1.181   1.591  -0.001  0.00  0.00    +0.390 C 
ATOM     13  O   UNL     1       2.209   0.943  -0.014  0.00  0.00    -0.240 OA
ATOM     14  O   UNL     1      -0.011   0.963   0.007  0.00  0.00    -0.240 OA
ENDBRANCH   8  12
ENDBRANCH   5   6
ENDBRANCH   2   4
BRANCH   1  15
ATOM     15  C   UNL     1       1.894  10.056   0.038  0.00  0.00    +0.108 C 
BRANCH  15  17
ATOM     16  C   UNL     1       3.918  10.133  -1.425  0.00  0.00    +0.005 C 
ATOM     17  C   UNL     1       2.389  10.081  -1.410  0.00  0.00    +0.016 C 
ENDBRANCH  15  17
ENDBRANCH   1  15
BRANCH   1  18
ATOM     18  C   UNL     1      -0.344  11.250   0.068  0.00  0.00    +0.182 C 
BRANCH  18  19
ATOM     19  C   UNL     1      -0.595  11.669   1.494  0.00  0.00    +0.128 A 
ATOM     20  N   UNL     1      -1.303  12.807   1.716  0.00  0.00    -0.309 N 
ATOM     21  H   UNL     1      -1.631  13.324   0.964  0.00  0.00    +0.170 HD
ATOM     22  C   UNL     1      -1.556  13.226   2.978  0.00  0.00    +0.259 A 
ATOM     23  O   UNL     1      -2.189  14.243   3.192  0.00  0.00    -0.267 OA
ATOM     24  C   UNL     1      -1.037  12.404   4.081  0.00  0.00    +0.065 A 
ATOM     25  C   UNL     1      -1.242  12.746   5.416  0.00  0.00    +0.017 A 
ATOM     26  C   UNL     1      -0.738  11.947   6.404  0.00  0.00    +0.021 A 
ATOM     27  C   UNL     1      -0.024  10.797   6.092  0.00  0.00    +0.043 A 
ATOM     28  C   UNL     1       0.193  10.436   4.779  0.00  0.00    +0.048 A 
ATOM     29  C   UNL     1      -0.312  11.236   3.753  0.00  0.00    +0.080 A 
ATOM     30  N   UNL     1      -0.129  10.920   2.446  0.00  0.00    -0.232 NA
ATOM     31 CL   UNL     1       0.603   9.803   7.369  0.00  0.00    -0.083 Cl
ENDBRANCH  18  19
ENDBRANCH   1  18
TORSDOF 7
