REMARK  Name = ZINC00674230
REMARK  12 active torsions:
REMARK  status: ('A' for Active; 'I' for Inactive)
REMARK    1  A    between atoms: C_1  and  C_2
REMARK    2  A    between atoms: C_2  and  O_3
REMARK    3  A    between atoms: O_3  and  C_4
REMARK    4  A    between atoms: C_6  and  C_14
REMARK    5  A    between atoms: C_8  and  N_11
REMARK    6  A    between atoms: C_9  and  O_10
REMARK    7  A    between atoms: C_23  and  C_31
REMARK    8  A    between atoms: C_24  and  C_25
REMARK    9  A    between atoms: C_25  and  O_27
REMARK   10  A    between atoms: O_27  and  C_28
REMARK   11  A    between atoms: C_28  and  C_29
REMARK   12  A    between atoms: C_28  and  C_30
REMARK                            x       y       z     vdW  Elec       q    Type
REMARK                         _______ _______ _______ _____ _____    ______ ____
ROOT
ATOM      1  C   UNL     1      -0.217  -4.963  -0.535  0.00  0.00    +0.093 C 
ATOM      2  C   UNL     1      -1.302  -5.791   0.127  0.00  0.00    +0.028 C 
ATOM      3  C   UNL     1      -2.350  -5.187   0.715  0.00  0.00    +0.162 C 
ATOM      4  C   UNL     1      -3.439  -5.985   1.380  0.00  0.00    +0.080 C 
ATOM      5  C   UNL     1      -3.567  -7.344   0.684  0.00  0.00    +0.014 C 
ATOM      6  C   UNL     1      -2.215  -8.059   0.742  0.00  0.00    +0.056 C 
ATOM      7  C   UNL     1      -1.165  -7.188   0.095  0.00  0.00    +0.049 C 
ATOM      8  N   UNL     1      -0.132  -7.751  -0.490  0.00  0.00    -0.256 NA
ATOM      9  C   UNL     1       0.858  -7.108  -1.092  0.00  0.00    +0.049 C 
ATOM     10  C   UNL     1       0.915  -5.752  -1.168  0.00  0.00    +0.069 C 
ATOM     11  C   UNL     1       1.969  -7.915  -1.715  0.00  0.00    +0.066 C 
ATOM     12  O   UNL     1      -2.426  -3.842   0.709  0.00  0.00    -0.292 OA
ENDROOT
BRANCH   1  15
ATOM     13  C   UNL     1       0.802  -1.825   1.306  0.00  0.00    +0.164 A 
ATOM     14  C   UNL     1       0.261  -2.673   0.353  0.00  0.00    +0.054 A 
ATOM     15  C   UNL     1       0.372  -4.043   0.502  0.00  0.00    -0.029 A 
ATOM     16  C   UNL     1       1.024  -4.570   1.602  0.00  0.00    +0.041 A 
ATOM     17  C   UNL     1       1.566  -3.730   2.557  0.00  0.00    +0.171 A 
ATOM     18  C   UNL     1       1.462  -2.356   2.410  0.00  0.00    +0.189 A 
BRANCH  17  19
ATOM     19  N   UNL     1       2.263  -4.298   3.733  0.00  0.00    +0.060 N 
ATOM     20  O   UNL     1       2.357  -5.497   3.859  0.00  0.00    -0.126 OA
ATOM     21  O   UNL     1       2.737  -3.563   4.567  0.00  0.00    -0.126 OA
ENDBRANCH  17  19
BRANCH  18  22
ATOM     22  O   UNL     1       2.000  -1.528   3.345  0.00  0.00    -0.502 OA
ATOM     23  H   UNL     1       1.395  -1.301   4.064  0.00  0.00    +0.292 HD
ENDBRANCH  18  22
BRANCH  13  24
ATOM     24  O   UNL     1       0.693  -0.477   1.160  0.00  0.00    -0.488 OA
BRANCH  24  26
ATOM     25  C   UNL     1      -0.019   1.526   0.010  0.00  0.00    +0.048 C 
ATOM     26  C   UNL     1       0.002  -0.004   0.002  0.00  0.00    +0.226 C 
ENDBRANCH  24  26
ENDBRANCH  13  24
ENDBRANCH   1  15
BRANCH  10  27
ATOM     27  C   UNL     1       1.987  -5.104  -1.814  0.00  0.00    +0.338 C 
ATOM     28  O   UNL     1       2.882  -5.760  -2.314  0.00  0.00    -0.245 OA
BRANCH  27  29
ATOM     29  O   UNL     1       2.020  -3.756  -1.879  0.00  0.00    -0.459 OA
BRANCH  29  30
ATOM     30  C   UNL     1       3.136  -3.166  -2.549  0.00  0.00    +0.171 C 
ATOM     31  C   UNL     1       2.809  -2.998  -4.034  0.00  0.00    +0.052 C 
ATOM     32  C   UNL     1       3.436  -1.798  -1.934  0.00  0.00    +0.052 C 
ENDBRANCH  29  30
ENDBRANCH  27  29
ENDBRANCH  10  27
TORSDOF 8
