REMARK  Name = ZINC61814657
REMARK  4 active torsions:
REMARK  status: ('A' for Active; 'I' for Inactive)
REMARK    1  A    between atoms: C_4  and  C_19
REMARK    2  A    between atoms: C_6  and  O_7
REMARK    3  A    between atoms: O_7  and  C_8
REMARK    4  A    between atoms: C_11  and  N_15
REMARK                            x       y       z     vdW  Elec       q    Type
REMARK                         _______ _______ _______ _____ _____    ______ ____
ROOT
ATOM      1  C   UNL     1      -0.017   1.388   0.010  0.00  0.00    +0.066 A 
ATOM      2  C   UNL     1       1.180   2.081   0.002  0.00  0.00    +0.115 A 
ATOM      3  N   UNL     1       2.332   1.443  -0.013  0.00  0.00    -0.252 NA
ATOM      4  C   UNL     1       2.397   0.117  -0.021  0.00  0.00    +0.104 A 
ATOM      5  C   UNL     1       1.236  -0.649  -0.013  0.00  0.00    +0.077 A 
ATOM      6  C   UNL     1       0.002  -0.004   0.002  0.00  0.00    +0.132 A 
ENDROOT
BRANCH   4   7
ATOM      7  C   UNL     1       3.719  -0.554  -0.038  0.00  0.00    +0.113 C 
ATOM      8  N   UNL     1       4.833   0.173  -0.045  0.00  0.00    -0.386 N 
ATOM      9  N   UNL     1       3.792  -1.882  -0.046  0.00  0.00    -0.343 N 
ATOM     10  H   UNL     1       4.781   1.142  -0.040  0.00  0.00    +0.157 HD
ATOM     11  H   UNL     1       2.979  -2.412  -0.040  0.00  0.00    +0.144 HD
ATOM     12  H   UNL     1       4.657  -2.321  -0.057  0.00  0.00    +0.144 HD
ATOM     13  H   UNL     1       5.698  -0.265  -0.057  0.00  0.00    +0.157 HD
ENDBRANCH   4   7
BRANCH   6  14
ATOM     14  O   UNL     1      -1.154  -0.715   0.010  0.00  0.00    -0.454 OA
BRANCH  14  15
ATOM     15  C   UNL     1      -2.326  -0.027   0.025  0.00  0.00    +0.156 A 
ATOM     16  C   UNL     1      -2.911   0.323   1.234  0.00  0.00    +0.063 A 
ATOM     17  C   UNL     1      -4.103   1.023   1.246  0.00  0.00    +0.051 A 
ATOM     18  C   UNL     1      -4.713   1.373   0.056  0.00  0.00    +0.129 A 
ATOM     19  C   UNL     1      -4.133   1.026  -1.150  0.00  0.00    +0.051 A 
ATOM     20  C   UNL     1      -2.938   0.331  -1.168  0.00  0.00    +0.063 A 
ATOM     21 BR   UNL     1      -2.141  -0.137  -2.818  0.00  0.00    -0.046 Br
ATOM     22 BR   UNL     1      -2.078  -0.157   2.862  0.00  0.00    -0.046 Br
BRANCH  18  23
ATOM     23  N   UNL     1      -5.990   2.122   0.073  0.00  0.00    +0.056 N 
ATOM     24  O   UNL     1      -6.498   2.426   1.127  0.00  0.00    -0.126 OA
ATOM     25  O   UNL     1      -6.524   2.429  -0.967  0.00  0.00    -0.126 OA
ENDBRANCH  18  23
ENDBRANCH  14  15
ENDBRANCH   6  14
TORSDOF 4
