REMARK  Name = ZINC07473794
REMARK  7 active torsions:
REMARK  status: ('A' for Active; 'I' for Inactive)
REMARK    1  A    between atoms: C_1  and  C_2
REMARK    2  A    between atoms: C_5  and  N_9
REMARK    3  A    between atoms: C_6  and  C_8
REMARK    4  A    between atoms: C_11  and  C_25
REMARK    5  A    between atoms: C_12  and  C_14
REMARK    6  A    between atoms: N_16  and  C_17
REMARK    7  A    between atoms: C_20  and  C_24
REMARK                            x       y       z     vdW  Elec       q    Type
REMARK                         _______ _______ _______ _____ _____    ______ ____
ROOT
ATOM      1  N   UNL     1       1.165   3.153  -0.591  0.00  0.00    -0.149 N 
ATOM      2  N   UNL     1      -0.030   3.853  -0.799  0.00  0.00    -0.152 NA
ATOM      3  C   UNL     1       0.289   5.105  -1.028  0.00  0.00    +0.093 A 
ATOM      4  C   UNL     1       1.692   5.180  -0.970  0.00  0.00    +0.170 A 
ATOM      5  N   UNL     1       2.152   3.971  -0.703  0.00  0.00    -0.142 NA
ATOM      6  C   UNL     1      -0.662   6.241  -1.305  0.00  0.00    +0.070 C 
ENDROOT
BRANCH   1  11
ATOM      7  C   UNL     1       1.588  -2.393   0.540  0.00  0.00    +0.044 C 
ATOM      8  C   UNL     1       1.476  -0.920   0.240  0.00  0.00    -0.050 A 
ATOM      9  C   UNL     1       0.245  -0.372  -0.075  0.00  0.00    +0.005 A 
ATOM     10  C   UNL     1       0.139   0.977  -0.350  0.00  0.00    +0.030 A 
ATOM     11  C   UNL     1       1.270   1.783  -0.312  0.00  0.00    +0.089 A 
ATOM     12  C   UNL     1       2.503   1.230   0.004  0.00  0.00    -0.023 A 
ATOM     13  C   UNL     1       2.603  -0.120   0.279  0.00  0.00    +0.008 A 
ATOM     14  C   UNL     1       3.732   2.101   0.046  0.00  0.00    +0.046 C 
ENDBRANCH   1  11
BRANCH   4  15
ATOM     15  C   UNL     1       2.507   6.396  -1.171  0.00  0.00    +0.270 C 
ATOM     16  O   UNL     1       1.966   7.457  -1.412  0.00  0.00    -0.268 OA
ATOM     17  N   UNL     1       3.850   6.328  -1.087  0.00  0.00    -0.279 N 
ATOM     18  H   UNL     1       4.285   5.471  -0.956  0.00  0.00    +0.155 HD
BRANCH  17  19
ATOM     19  C   UNL     1       4.617   7.494  -1.188  0.00  0.00    +0.052 A 
ATOM     20  C   UNL     1       4.193   8.537  -2.001  0.00  0.00    +0.025 A 
ATOM     21  C   UNL     1       4.953   9.686  -2.099  0.00  0.00    +0.005 A 
ATOM     22  C   UNL     1       6.134   9.800  -1.389  0.00  0.00    -0.049 A 
ATOM     23  C   UNL     1       6.559   8.764  -0.578  0.00  0.00    +0.025 A 
ATOM     24  C   UNL     1       5.802   7.612  -0.472  0.00  0.00    +0.062 A 
ATOM     25 CL   UNL     1       6.333   6.314   0.552  0.00  0.00    -0.082 Cl
ATOM     26  C   UNL     1       6.959  11.056  -1.499  0.00  0.00    +0.044 C 
ENDBRANCH  17  19
ENDBRANCH   4  15
TORSDOF 3
