REMARK  Name = ZINC09506749
REMARK  11 active torsions:
REMARK  status: ('A' for Active; 'I' for Inactive)
REMARK    1  A    between atoms: C_1  and  C_2
REMARK    2  A    between atoms: C_4  and  C_37
REMARK    3  A    between atoms: C_5  and  N_9
REMARK    4  A    between atoms: C_6  and  C_8
REMARK    5  A    between atoms: C_10  and  C_12
REMARK    6  A    between atoms: C_12  and  N_13
REMARK    7  A    between atoms: C_14  and  C_16
REMARK    8  A    between atoms: C_16  and  N_17
REMARK    9  A    between atoms: C_20  and  C_24
REMARK   10  A    between atoms: C_20  and  C_31
REMARK   11  A    between atoms: C_24  and  C_25
REMARK                            x       y       z     vdW  Elec       q    Type
REMARK                         _______ _______ _______ _____ _____    ______ ____
ROOT
ATOM      1  N   UNL     1       3.022  -4.600  -0.551  0.00  0.00    -0.215 N 
ATOM      2  C   UNL     1       3.705  -3.497  -0.174  0.00  0.00    +0.252 C 
ATOM      3  O   UNL     1       4.648  -2.986  -0.741  0.00  0.00    -0.272 OA
ATOM      4  C   UNL     1       3.043  -3.027   1.106  0.00  0.00    +0.142 C 
ATOM      5  N   UNL     1       1.968  -4.011   1.325  0.00  0.00    -0.281 N 
ATOM      6  C   UNL     1       2.036  -4.887   0.307  0.00  0.00    +0.310 C 
ATOM      7  O   UNL     1       1.285  -5.835   0.180  0.00  0.00    -0.252 OA
ATOM      8  H   UNL     1       1.335  -4.023   2.059  0.00  0.00    +0.152 HD
ENDROOT
BRANCH   4   9
ATOM      9  C   UNL     1       2.470  -1.645   0.931  0.00  0.00    -0.015 A 
ATOM     10  C   UNL     1       1.190  -1.485   0.434  0.00  0.00    +0.006 A 
ATOM     11  C   UNL     1       0.664  -0.217   0.273  0.00  0.00    +0.000 A 
ATOM     12  C   UNL     1       1.417   0.892   0.611  0.00  0.00    +0.000 A 
ATOM     13  C   UNL     1       2.697   0.732   1.109  0.00  0.00    +0.000 A 
ATOM     14  C   UNL     1       3.224  -0.536   1.268  0.00  0.00    +0.006 A 
ENDBRANCH   4   9
BRANCH   1  15
ATOM     15  C   UNL     1       3.324  -5.385  -1.750  0.00  0.00    +0.213 C 
BRANCH  15  17
ATOM     16  N   UNL     1       2.655  -5.415  -4.131  0.00  0.00    -0.305 N 
ATOM     17  C   UNL     1       2.536  -4.846  -2.916  0.00  0.00    +0.231 C 
ATOM     18  O   UNL     1       1.794  -3.899  -2.760  0.00  0.00    -0.274 OA
ATOM     19  H   UNL     1       3.248  -6.173  -4.256  0.00  0.00    +0.149 HD
BRANCH  16  20
ATOM     20  C   UNL     1       1.888  -4.891  -5.264  0.00  0.00    +0.200 C 
BRANCH  20  22
ATOM     21  N   UNL     1       1.605  -5.396  -7.669  0.00  0.00    -0.284 N 
ATOM     22  C   UNL     1       2.199  -5.699  -6.498  0.00  0.00    +0.234 C 
ATOM     23  O   UNL     1       2.984  -6.621  -6.437  0.00  0.00    -0.274 OA
ATOM     24  H   UNL     1       0.925  -4.705  -7.704  0.00  0.00    +0.155 HD
BRANCH  21  29
ATOM     25  C   UNL     1       3.080  -8.163 -12.397  0.00  0.00    +0.044 C 
ATOM     26  C   UNL     1       2.688  -7.428 -11.141  0.00  0.00    -0.050 A 
ATOM     27  C   UNL     1       3.662  -6.847 -10.349  0.00  0.00    +0.008 A 
ATOM     28  C   UNL     1       3.306  -6.173  -9.198  0.00  0.00    -0.029 A 
ATOM     29  C   UNL     1       1.969  -6.079  -8.835  0.00  0.00    +0.039 A 
ATOM     30  C   UNL     1       0.994  -6.668  -9.629  0.00  0.00    -0.029 A 
ATOM     31  C   UNL     1       1.356  -7.336 -10.783  0.00  0.00    +0.008 A 
ATOM     32  C   UNL     1      -0.458  -6.574  -9.236  0.00  0.00    +0.045 C 
ATOM     33  C   UNL     1       4.368  -5.539  -8.336  0.00  0.00    +0.045 C 
ENDBRANCH  21  29
ENDBRANCH  20  22
ENDBRANCH  16  20
ENDBRANCH  15  17
ENDBRANCH   1  15
BRANCH   4  34
ATOM     34  C   UNL     1       4.040  -3.052   2.267  0.00  0.00    +0.075 C 
BRANCH  34  35
ATOM     35  C   UNL     1       4.598  -4.444   2.421  0.00  0.00    -0.045 A 
ATOM     36  C   UNL     1       3.969  -5.352   3.252  0.00  0.00    +0.004 A 
ATOM     37  C   UNL     1       4.478  -6.630   3.389  0.00  0.00    +0.000 A 
ATOM     38  C   UNL     1       5.621  -6.996   2.703  0.00  0.00    +0.000 A 
ATOM     39  C   UNL     1       6.253  -6.086   1.877  0.00  0.00    +0.000 A 
ATOM     40  C   UNL     1       5.741  -4.809   1.736  0.00  0.00    +0.004 A 
ENDBRANCH  34  35
ENDBRANCH   4  34
TORSDOF 8
