REMARK  Name = ZINC33594721
REMARK  11 active torsions:
REMARK  status: ('A' for Active; 'I' for Inactive)
REMARK    1  A    between atoms: C_1  and  C_2
REMARK    2  A    between atoms: C_3  and  C_24
REMARK    3  A    between atoms: C_4  and  S_11
REMARK    4  A    between atoms: C_6  and  C_7
REMARK    5  A    between atoms: C_7  and  O_9
REMARK    6  A    between atoms: O_9  and  C_10
REMARK    7  A    between atoms: S_11  and  N_14
REMARK    8  A    between atoms: N_14  and  C_15
REMARK    9  A    between atoms: C_18  and  N_21
REMARK   10  A    between atoms: C_24  and  O_26
REMARK   11  A    between atoms: O_26  and  C_27
REMARK                            x       y       z     vdW  Elec       q    Type
REMARK                         _______ _______ _______ _____ _____    ______ ____
ROOT
ATOM      1  C   UNL     1      -0.651  -1.216  -0.414  0.00  0.00    +0.046 C 
ATOM      2  C   UNL     1       0.518  -0.278  -0.256  0.00  0.00    -0.013 A 
ATOM      3  C   UNL     1       0.339   1.097  -0.239  0.00  0.00    +0.097 A 
ATOM      4  C   UNL     1       1.462   1.899  -0.090  0.00  0.00    +0.163 A 
ATOM      5  S   UNL     1       2.751   0.745   0.025  0.00  0.00    -0.061 S 
ATOM      6  C   UNL     1       1.795  -0.753  -0.124  0.00  0.00    +0.102 A 
ENDROOT
BRANCH   4   7
ATOM      7  S   UNL     1       1.555   3.657  -0.032  0.00  0.00    +0.099 S 
ATOM      8  O   UNL     1       1.855   4.091  -1.352  0.00  0.00    -0.148 OA
ATOM      9  O   UNL     1       0.405   4.102   0.673  0.00  0.00    -0.148 OA
BRANCH   7  10
ATOM     10  N   UNL     1       2.865   4.048   0.903  0.00  0.00    -0.097 NA
BRANCH  10  11
ATOM     11  C   UNL     1       2.905   3.660   2.244  0.00  0.00    +0.074 A 
ATOM     12  C   UNL     1       1.796   3.851   3.058  0.00  0.00    +0.029 A 
ATOM     13  C   UNL     1       1.837   3.461   4.383  0.00  0.00    +0.034 A 
ATOM     14  C   UNL     1       2.986   2.891   4.901  0.00  0.00    +0.126 A 
ATOM     15  C   UNL     1       4.094   2.704   4.095  0.00  0.00    +0.034 A 
ATOM     16  C   UNL     1       4.057   3.087   2.769  0.00  0.00    +0.029 A 
BRANCH  14  17
ATOM     17  N   UNL     1       3.028   2.479   6.322  0.00  0.00    +0.056 N 
ATOM     18  O   UNL     1       4.039   1.977   6.781  0.00  0.00    -0.126 OA
ATOM     19  O   UNL     1       2.053   2.643   7.033  0.00  0.00    -0.126 OA
ENDBRANCH  14  17
ENDBRANCH  10  11
ENDBRANCH   7  10
ENDBRANCH   4   7
BRANCH   6  20
ATOM     20  C   UNL     1       2.260  -2.142  -0.110  0.00  0.00    +0.346 C 
ATOM     21  O   UNL     1       1.462  -3.052  -0.225  0.00  0.00    -0.244 OA
BRANCH  20  22
ATOM     22  O   UNL     1       3.574  -2.412   0.032  0.00  0.00    -0.464 OA
ATOM     23  C   UNL     1       3.963  -3.811   0.038  0.00  0.00    +0.280 C 
ENDBRANCH  20  22
ENDBRANCH   6  20
BRANCH   3  24
ATOM     24  C   UNL     1      -1.001   1.690  -0.382  0.00  0.00    +0.342 C 
ATOM     25  O   UNL     1      -1.678   1.905   0.605  0.00  0.00    -0.245 OA
BRANCH  24  26
ATOM     26  O   UNL     1      -1.477   1.992  -1.605  0.00  0.00    -0.464 OA
ATOM     27  C   UNL     1      -2.806   2.574  -1.670  0.00  0.00    +0.280 C 
ENDBRANCH  24  26
ENDBRANCH   3  24
TORSDOF 8
