REMARK  Name = ZINC59872735
REMARK  7 active torsions:
REMARK  status: ('A' for Active; 'I' for Inactive)
REMARK    1  A    between atoms: C_3  and  C_10
REMARK    2  A    between atoms: C_5  and  N_7
REMARK    3  A    between atoms: C_10  and  O_11
REMARK    4  A    between atoms: O_11  and  C_12
REMARK    5  A    between atoms: C_12  and  C_14
REMARK    6  A    between atoms: C_17  and  O_33
REMARK    7  A    between atoms: C_21  and  C_23
REMARK                            x       y       z     vdW  Elec       q    Type
REMARK                         _______ _______ _______ _____ _____    ______ ____
ROOT
ATOM      1  C   UNL     1       5.721   3.410   2.780  0.00  0.00    +0.187 C 
ATOM      2  C   UNL     1       4.656   4.326   3.418  0.00  0.00    +0.066 C 
ATOM      3  C   UNL     1       5.510   5.367   4.189  0.00  0.00    +0.134 C 
ATOM      4  C   UNL     1       6.728   5.530   3.246  0.00  0.00    +0.140 C 
ATOM      5  N   UNL     1       6.974   4.176   2.709  0.00  0.00    -0.285 N 
ATOM      6  C   UNL     1       8.149   3.717   2.234  0.00  0.00    +0.223 C 
ATOM      7  O   UNL     1       8.254   2.558   1.891  0.00  0.00    -0.275 OA
ENDROOT
BRANCH   6   8
ATOM      8  C   UNL     1       9.332   4.644   2.128  0.00  0.00    +0.048 C 
ATOM      9  C   UNL     1       8.912   5.927   1.409  0.00  0.00    +0.019 C 
ATOM     10  C   UNL     1      10.114   6.869   1.302  0.00  0.00    -0.009 C 
ATOM     11  C   UNL     1      11.230   6.183   0.511  0.00  0.00    +0.007 C 
ATOM     12  C   UNL     1      11.650   4.899   1.230  0.00  0.00    -0.009 C 
ATOM     13  C   UNL     1      10.448   3.958   1.337  0.00  0.00    +0.019 C 
ATOM     14  C   UNL     1      12.156   5.242   2.632  0.00  0.00    +0.007 C 
ATOM     15  C   UNL     1      11.040   5.928   3.423  0.00  0.00    -0.009 C 
ATOM     16  C   UNL     1      10.620   7.212   2.704  0.00  0.00    +0.007 C 
ATOM     17  C   UNL     1       9.838   4.987   3.530  0.00  0.00    +0.019 C 
ENDBRANCH   6   8
BRANCH   1  18
ATOM     18  C   UNL     1       5.287   3.008   1.394  0.00  0.00    +0.328 C 
ATOM     19  O   UNL     1       5.955   3.320   0.437  0.00  0.00    -0.249 OA
BRANCH  18  20
ATOM     20  O   UNL     1       4.158   2.303   1.222  0.00  0.00    -0.459 OA
BRANCH  20  21
ATOM     21  C   UNL     1       3.807   1.955  -0.119  0.00  0.00    +0.267 C 
BRANCH  21  24
ATOM     22  C   UNL     1       0.129   1.111  -0.211  0.00  0.00    +0.003 A 
ATOM     23  C   UNL     1       1.309   1.830  -0.214  0.00  0.00    +0.007 A 
ATOM     24  C   UNL     1       2.520   1.171  -0.115  0.00  0.00    -0.008 A 
ATOM     25  C   UNL     1       2.550  -0.207  -0.012  0.00  0.00    +0.039 A 
ATOM     26  C   UNL     1       1.370  -0.926  -0.008  0.00  0.00    +0.127 A 
ATOM     27  C   UNL     1       0.159  -0.267  -0.109  0.00  0.00    +0.033 A 
BRANCH  26  28
ATOM     28  N   UNL     1       1.403  -2.402   0.101  0.00  0.00    +0.056 N 
ATOM     29  O   UNL     1       2.462  -2.978   0.187  0.00  0.00    -0.126 OA
ATOM     30  O   UNL     1       0.370  -3.031   0.105  0.00  0.00    -0.126 OA
ENDBRANCH  26  28
ENDBRANCH  21  24
ENDBRANCH  20  21
ENDBRANCH  18  20
ENDBRANCH   1  18
BRANCH   3  31
ATOM     31  O   UNL     1       4.805   6.602   4.333  0.00  0.00    -0.390 OA
ATOM     32  H   UNL     1       5.299   7.284   4.809  0.00  0.00    +0.210 HD
ENDBRANCH   3  31
TORSDOF 7
