REMARK  Name = ZINC13065593
REMARK  11 active torsions:
REMARK  status: ('A' for Active; 'I' for Inactive)
REMARK    1  A    between atoms: C_1  and  C_2
REMARK    2  A    between atoms: C_7  and  C_8
REMARK    3  A    between atoms: C_8  and  C_9
REMARK    4  A    between atoms: C_9  and  N_63
REMARK    5  A    between atoms: C_10  and  C_11
REMARK    6  A    between atoms: C_10  and  N_63
REMARK    7  A    between atoms: C_17  and  C_23
REMARK    8  A    between atoms: C_24  and  C_25
REMARK    9  A    between atoms: C_24  and  N_63
REMARK   10  A    between atoms: N_29  and  C_30
REMARK   11  A    between atoms: C_30  and  C_31
REMARK                            x       y       z     vdW  Elec       q    Type
REMARK                         _______ _______ _______ _____ _____    ______ ____
ROOT
ATOM      1  N   UNL     1      -3.100   3.962  -1.301  0.00  0.00    +0.387 N 
ATOM      2  H   UNL     1      -3.214   3.090  -1.831  0.00  0.00    -0.081 HD
ENDROOT
BRANCH   1   3
ATOM      3  C   UNL     1      -2.164   4.847  -2.027  0.00  0.00    -0.073 C 
BRANCH   3   4
ATOM      4  C   UNL     1      -1.927   6.137  -1.240  0.00  0.00    +0.017 C 
BRANCH   4  11
ATOM      5  C   UNL     1      -2.678   8.009  -3.309  0.00  0.00    +0.044 C 
ATOM      6  C   UNL     1      -1.229   7.855  -2.922  0.00  0.00    -0.047 A 
ATOM      7  C   UNL     1      -0.260   8.610  -3.556  0.00  0.00    +0.003 A 
ATOM      8  C   UNL     1       1.068   8.469  -3.201  0.00  0.00    +0.000 A 
ATOM      9  C   UNL     1       1.428   7.573  -2.211  0.00  0.00    +0.000 A 
ATOM     10  C   UNL     1       0.458   6.822  -1.573  0.00  0.00    +0.004 A 
ATOM     11  C   UNL     1      -0.870   6.960  -1.932  0.00  0.00    -0.046 A 
ENDBRANCH   4  11
ENDBRANCH   3   4
ENDBRANCH   1   3
BRANCH   1  12
ATOM     12  C   UNL     1      -2.558   3.644   0.037  0.00  0.00    -0.037 C 
BRANCH  12  13
ATOM     13  C   UNL     1      -1.390   2.705  -0.124  0.00  0.00    +0.001 A 
ATOM     14  C   UNL     1      -0.125   3.193  -0.119  0.00  0.00    +0.017 A 
ATOM     15  C   UNL     1       0.987   2.255  -0.277  0.00  0.00    -0.001 A 
ATOM     16  C   UNL     1       2.314   2.699  -0.279  0.00  0.00    +0.010 A 
ATOM     17  C   UNL     1       3.329   1.797  -0.429  0.00  0.00    +0.001 A 
ATOM     18  C   UNL     1       3.057   0.444  -0.579  0.00  0.00    +0.005 A 
ATOM     19  C   UNL     1       1.758  -0.016  -0.579  0.00  0.00    -0.026 A 
ATOM     20  C   UNL     1       0.707   0.883  -0.428  0.00  0.00    +0.052 A 
ATOM     21  N   UNL     1      -0.602   0.451  -0.425  0.00  0.00    -0.322 N 
ATOM     22  H   UNL     1      -0.794  -0.494  -0.529  0.00  0.00    +0.169 HD
ATOM     23  C   UNL     1      -1.618   1.321  -0.285  0.00  0.00    +0.251 A 
ATOM     24  O   UNL     1      -2.763   0.904  -0.292  0.00  0.00    -0.268 OA
ATOM     25  C   UNL     1       1.476  -1.487  -0.742  0.00  0.00    +0.046 C 
ENDBRANCH  12  13
ENDBRANCH   1  12
BRANCH   1  26
ATOM     26  C   UNL     1      -4.417   4.620  -1.169  0.00  0.00    +0.001 C 
BRANCH  26  27
ATOM     27  C   UNL     1      -5.043   4.733  -2.535  0.00  0.00    +0.136 A 
ATOM     28  N   UNL     1      -4.930   5.740  -3.366  0.00  0.00    -0.115 NA
ATOM     29  N   UNL     1      -5.607   5.458  -4.426  0.00  0.00    -0.023 NA
ATOM     30  N   UNL     1      -6.155   4.302  -4.289  0.00  0.00    -0.044 NA
ATOM     31  N   UNL     1      -5.831   3.822  -3.136  0.00  0.00    -0.224 N 
BRANCH  31  32
ATOM     32  C   UNL     1      -6.242   2.528  -2.585  0.00  0.00    +0.221 C 
BRANCH  32  33
ATOM     33  C   UNL     1      -7.530   2.696  -1.819  0.00  0.00    +0.126 A 
ATOM     34  C   UNL     1      -8.769   2.581  -2.330  0.00  0.00    +0.046 A 
ATOM     35  C   UNL     1      -9.672   2.812  -1.267  0.00  0.00    +0.041 A 
ATOM     36  C   UNL     1      -8.931   3.061  -0.172  0.00  0.00    +0.195 A 
ATOM     37  O   UNL     1      -7.634   2.989  -0.513  0.00  0.00    -0.466 OA
ENDBRANCH  32  33
ENDBRANCH  31  32
ENDBRANCH  26  27
ENDBRANCH   1  26
TORSDOF 9
