REMARK  Name = ZINC25053690
REMARK  7 active torsions:
REMARK  status: ('A' for Active; 'I' for Inactive)
REMARK    1  A    between atoms: C_1  and  C_2
REMARK    2  A    between atoms: C_2  and  C_4
REMARK    3  A    between atoms: C_2  and  S_14
REMARK    4  A    between atoms: N_10  and  C_11
REMARK    5  A    between atoms: N_10  and  C_12
REMARK    6  A    between atoms: S_14  and  C_15
REMARK    7  A    between atoms: C_18  and  C_21
REMARK                            x       y       z     vdW  Elec       q    Type
REMARK                         _______ _______ _______ _____ _____    ______ ____
ROOT
ATOM      1  C   UNL     1       1.423   1.615  -0.003  0.00  0.00    +0.028 C 
ATOM      2  C   UNL     1      -0.013   1.086   0.008  0.00  0.00    +0.119 C 
ENDROOT
BRANCH   2   3
ATOM      3  C   UNL     1      -0.718   1.572   1.248  0.00  0.00    +0.149 A 
ATOM      4  N   UNL     1      -1.117   2.829   1.329  0.00  0.00    -0.198 NA
ATOM      5  C   UNL     1      -1.741   3.262   2.422  0.00  0.00    +0.217 A 
ATOM      6  N   UNL     1      -1.962   2.428   3.433  0.00  0.00    -0.181 NA
ATOM      7  C   UNL     1      -1.559   1.165   3.348  0.00  0.00    +0.222 A 
ATOM      8  N   UNL     1      -0.940   0.739   2.249  0.00  0.00    -0.198 NA
ATOM      9  N   UNL     1      -1.786   0.295   4.395  0.00  0.00    -0.306 N 
ATOM     10  C   UNL     1      -2.472   0.765   5.601  0.00  0.00    +0.132 C 
ATOM     11  C   UNL     1      -1.341  -1.097   4.300  0.00  0.00    +0.132 C 
ATOM     12  N   UNL     1      -2.158   4.575   2.506  0.00  0.00    -0.327 N 
ATOM     13  H   UNL     1      -2.673   4.932   3.410  0.00  0.00    +0.145 HD
ATOM     14  H   UNL     1      -1.974   5.265   1.669  0.00  0.00    +0.145 HD
ENDBRANCH   2   3
BRANCH   2  15
ATOM     15  S   UNL     1      -0.888   1.685  -1.458  0.00  0.00    -0.077 S 
BRANCH  15  16
ATOM     16  C   UNL     1       0.032   0.868  -2.720  0.00  0.00    +0.167 A 
ATOM     17  N   UNL     1      -0.202   0.959  -4.058  0.00  0.00    -0.333 N 
ATOM     18  H   UNL     1      -1.028   1.582  -4.431  0.00  0.00    +0.168 HD
ATOM     19  C   UNL     1       0.746   0.169  -4.686  0.00  0.00    +0.067 A 
ATOM     20  C   UNL     1       1.511  -0.375  -3.703  0.00  0.00    +0.139 A 
ATOM     21  N   UNL     1       1.054   0.066  -2.524  0.00  0.00    -0.230 NA
BRANCH  19  22
ATOM     22  C   UNL     1       0.894  -0.045  -6.141  0.00  0.00    +0.000 A 
ATOM     23  C   UNL     1       0.023   0.583  -7.033  0.00  0.00    +0.013 A 
ATOM     24  C   UNL     1       0.169   0.384  -8.390  0.00  0.00    +0.039 A 
ATOM     25  C   UNL     1       1.170  -0.446  -8.868  0.00  0.00    +0.123 A 
ATOM     26  C   UNL     1       2.034  -1.077  -7.986  0.00  0.00    +0.039 A 
ATOM     27  C   UNL     1       1.901  -0.881  -6.627  0.00  0.00    +0.013 A 
ATOM     28  F   UNL     1       1.305  -0.642 -10.197  0.00  0.00    -0.205 F 
ENDBRANCH  19  22
ENDBRANCH  15  16
ENDBRANCH   2  15
TORSDOF 4
