REMARK  Name = ZINC13462025
REMARK  8 active torsions:
REMARK  status: ('A' for Active; 'I' for Inactive)
REMARK    1  A    between atoms: C_4  and  C_7
REMARK    2  A    between atoms: C_7  and  C_8
REMARK    3  A    between atoms: C_8  and  C_9
REMARK    4  A    between atoms: N_12  and  C_15
REMARK    5  A    between atoms: C_18  and  C_24
REMARK    6  A    between atoms: C_20  and  N_21
REMARK    7  A    between atoms: N_26  and  C_27
REMARK    8  A    between atoms: C_27  and  C_28
REMARK                            x       y       z     vdW  Elec       q    Type
REMARK                         _______ _______ _______ _____ _____    ______ ____
ROOT
ATOM      1  C   UNL     1       8.277  -0.639  -2.478  0.00  0.00    +0.060 A 
ATOM      2  C   UNL     1       8.628  -1.753  -1.720  0.00  0.00    +0.026 A 
ATOM      3  C   UNL     1       9.889  -2.293  -1.833  0.00  0.00    +0.015 A 
ATOM      4  C   UNL     1      10.817  -1.722  -2.709  0.00  0.00    +0.039 A 
ATOM      5  C   UNL     1      10.460  -0.604  -3.468  0.00  0.00    +0.047 A 
ATOM      6  C   UNL     1       9.197  -0.072  -3.355  0.00  0.00    +0.148 A 
ENDROOT
BRANCH   1  10
ATOM      7  C   UNL     1       4.287   0.111  -1.401  0.00  0.00    -0.008 C 
ATOM      8  C   UNL     1       5.390   1.060  -0.925  0.00  0.00    +0.022 C 
ATOM      9  C   UNL     1       6.738   0.338  -0.984  0.00  0.00    +0.105 C 
ATOM     10  N   UNL     1       7.002  -0.096  -2.362  0.00  0.00    -0.328 N 
ATOM     11  C   UNL     1       5.981  -1.044  -2.825  0.00  0.00    +0.105 C 
ATOM     12  C   UNL     1       4.611  -0.364  -2.821  0.00  0.00    +0.022 C 
BRANCH   7  13
ATOM     13  C   UNL     1       2.945   0.846  -1.402  0.00  0.00    +0.008 C 
BRANCH  13  14
ATOM     14  C   UNL     1       2.562   1.210   0.034  0.00  0.00    +0.035 C 
BRANCH  14  18
ATOM     15  C   UNL     1      -1.184   3.263   0.031  0.00  0.00    +0.000 A 
ATOM     16  C   UNL     1      -1.151   1.885   0.140  0.00  0.00    +0.000 A 
ATOM     17  C   UNL     1       0.062   1.221   0.146  0.00  0.00    +0.003 A 
ATOM     18  C   UNL     1       1.240   1.935   0.033  0.00  0.00    -0.047 A 
ATOM     19  C   UNL     1       1.207   3.312  -0.080  0.00  0.00    +0.003 A 
ATOM     20  C   UNL     1      -0.005   3.976  -0.081  0.00  0.00    +0.000 A 
ENDBRANCH  14  18
ENDBRANCH  13  14
ENDBRANCH   7  13
ENDBRANCH   1  10
BRANCH   4  21
ATOM     21  C   UNL     1      12.169  -2.299  -2.832  0.00  0.00    +0.245 C 
ATOM     22  O   UNL     1      12.975  -1.802  -3.594  0.00  0.00    -0.270 OA
ATOM     23  N   UNL     1      12.511  -3.377  -2.098  0.00  0.00    -0.301 N 
ATOM     24  H   UNL     1      11.868  -3.774  -1.490  0.00  0.00    +0.150 HD
BRANCH  23  25
ATOM     25  C   UNL     1      13.854  -3.949  -2.220  0.00  0.00    +0.229 C 
BRANCH  25  26
ATOM     26  C   UNL     1      13.979  -5.137  -1.301  0.00  0.00    +0.373 C 
ATOM     27  O   UNL     1      13.042  -5.471  -0.615  0.00  0.00    -0.245 OA
ATOM     28  O   UNL     1      15.131  -5.824  -1.245  0.00  0.00    -0.245 OA
ENDBRANCH  25  26
ENDBRANCH  23  25
ENDBRANCH   4  21
BRANCH   6  29
ATOM     29  N   UNL     1       8.817   1.109  -4.163  0.00  0.00    +0.058 N 
ATOM     30  O   UNL     1       9.587   1.549  -4.998  0.00  0.00    -0.126 OA
ATOM     31  O   UNL     1       7.734   1.641  -3.993  0.00  0.00    -0.126 OA
ENDBRANCH   6  29
TORSDOF 8
