REMARK  Name = ZINC45520982
REMARK  9 active torsions:
REMARK  status: ('A' for Active; 'I' for Inactive)
REMARK    1  A    between atoms: C_3  and  C_6
REMARK    2  A    between atoms: C_9  and  S_16
REMARK    3  A    between atoms: N_10  and  C_11
REMARK    4  A    between atoms: C_11  and  C_12
REMARK    5  A    between atoms: C_12  and  C_13
REMARK    6  A    between atoms: S_16  and  C_17
REMARK    7  A    between atoms: C_17  and  C_18
REMARK    8  A    between atoms: N_20  and  C_21
REMARK    9  A    between atoms: C_21  and  C_26
REMARK                            x       y       z     vdW  Elec       q    Type
REMARK                         _______ _______ _______ _____ _____    ______ ____
ROOT
ATOM      1  C   UNL     1       8.722   0.796  -0.630  0.00  0.00    +0.173 C 
ENDROOT
BRANCH   1   2
ATOM      2  C   UNL     1       9.866  -0.117  -0.270  0.00  0.00    +0.224 C 
ATOM      3  O   UNL     1       9.654  -1.286  -0.026  0.00  0.00    -0.275 OA
ATOM      4  N   UNL     1      11.123   0.365  -0.220  0.00  0.00    -0.305 N 
ATOM      5  H   UNL     1      11.302   1.281  -0.484  0.00  0.00    +0.150 HD
BRANCH   4   6
ATOM      6  C   UNL     1      12.219  -0.494   0.235  0.00  0.00    +0.060 C 
ATOM      7  C   UNL     1      13.510   0.336   0.394  0.00  0.00    +0.030 C 
ATOM      8  C   UNL     1      13.539   0.708   1.897  0.00  0.00    +0.002 C 
ATOM      9  C   UNL     1      13.000  -0.574   2.577  0.00  0.00    +0.002 C 
ATOM     10  C   UNL     1      11.895  -1.073   1.623  0.00  0.00    +0.030 C 
BRANCH   6  11
ATOM     11  C   UNL     1      12.441  -1.612  -0.751  0.00  0.00    -0.020 A 
ATOM     12  C   UNL     1      13.106  -2.758  -0.357  0.00  0.00    +0.009 A 
ATOM     13  C   UNL     1      13.313  -3.785  -1.258  0.00  0.00    +0.050 A 
ATOM     14  C   UNL     1      12.853  -3.668  -2.562  0.00  0.00    +0.162 A 
ATOM     15  C   UNL     1      12.182  -2.517  -2.958  0.00  0.00    +0.162 A 
ATOM     16  C   UNL     1      11.974  -1.492  -2.046  0.00  0.00    +0.055 A 
ATOM     17  O   UNL     1      11.716  -2.385  -4.229  0.00  0.00    -0.485 OA
ATOM     18  C   UNL     1      12.262  -3.273  -5.211  0.00  0.00    +0.270 C 
ATOM     19  C   UNL     1      12.266  -4.692  -4.626  0.00  0.00    +0.270 C 
ATOM     20  O   UNL     1      13.067  -4.686  -3.440  0.00  0.00    -0.485 OA
ENDBRANCH   6  11
ENDBRANCH   4   6
ENDBRANCH   1   2
BRANCH   1  21
ATOM     21  S   UNL     1       7.170  -0.142  -0.613  0.00  0.00    -0.077 S 
BRANCH  21  25
ATOM     22  C   UNL     1       4.055   2.039  -1.520  0.00  0.00    +0.200 A 
ATOM     23  N   UNL     1       5.045   2.901  -1.593  0.00  0.00    -0.125 NA
ATOM     24  N   UNL     1       6.156   2.319  -1.315  0.00  0.00    -0.122 NA
ATOM     25  C   UNL     1       5.947   1.050  -1.047  0.00  0.00    +0.192 A 
ATOM     26  N   UNL     1       4.603   0.826  -1.162  0.00  0.00    -0.299 N 
BRANCH  22  29
ATOM     27  C   UNL     1       0.687   3.346  -2.090  0.00  0.00    +0.042 A 
ATOM     28  C   UNL     1       2.058   3.550  -1.839  0.00  0.00    +0.053 A 
ATOM     29  C   UNL     1       2.632   2.317  -1.768  0.00  0.00    +0.172 A 
ATOM     30  O   UNL     1       1.668   1.395  -1.964  0.00  0.00    -0.460 OA
ATOM     31  C   UNL     1       0.492   2.014  -2.159  0.00  0.00    +0.196 A 
ENDBRANCH  22  29
BRANCH  26  32
ATOM     32  C   UNL     1       3.894  -0.438  -0.952  0.00  0.00    +0.135 C 
BRANCH  32  33
ATOM     33  C   UNL     1       3.825  -1.210  -2.271  0.00  0.00    +0.117 C 
BRANCH  33  34
ATOM     34  C   UNL     1       3.096  -2.511  -2.055  0.00  0.00    +0.212 C 
ATOM     35  O   UNL     1       2.673  -2.793  -0.954  0.00  0.00    -0.276 OA
ATOM     36  N   UNL     1       2.914  -3.361  -3.085  0.00  0.00    -0.329 N 
ATOM     37  H   UNL     1       3.252  -3.135  -3.965  0.00  0.00    +0.145 HD
ATOM     38  H   UNL     1       2.444  -4.198  -2.946  0.00  0.00    +0.145 HD
ENDBRANCH  33  34
ENDBRANCH  32  33
ENDBRANCH  26  32
ENDBRANCH  21  25
ENDBRANCH   1  21
TORSDOF 9
