REMARK  Name = ZINC05411056
REMARK  5 active torsions:
REMARK  status: ('A' for Active; 'I' for Inactive)
REMARK    1  A    between atoms: C_8  and  C_10
REMARK    2  A    between atoms: C_25  and  C_26
REMARK    3  A    between atoms: C_25  and  N_55
REMARK    4  A    between atoms: C_29  and  C_31
REMARK    5  A    between atoms: C_31  and  O_32
REMARK                            x       y       z     vdW  Elec       q    Type
REMARK                         _______ _______ _______ _____ _____    ______ ____
ROOT
ATOM      1  C   UNL     1       5.265   8.343   1.275  0.00  0.00    +0.053 A 
ATOM      2  C   UNL     1       5.683   7.032   1.088  0.00  0.00    +0.016 A 
ATOM      3  C   UNL     1       5.427   6.417  -0.138  0.00  0.00    +0.022 A 
ATOM      4  C   UNL     1       4.803   7.094  -1.141  0.00  0.00    +0.023 A 
ATOM      5  N   UNL     1       4.472   8.399  -0.996  0.00  0.00    -0.311 N 
ATOM      6  C   UNL     1       4.618   9.008   0.207  0.00  0.00    +0.260 A 
ATOM      7  O   UNL     1       4.187  10.137   0.370  0.00  0.00    -0.267 OA
ATOM      8  C   UNL     1       4.009   9.236  -2.104  0.00  0.00    +0.126 C 
ATOM      9  C   UNL     1       3.491   8.414  -3.273  0.00  0.00    -0.007 C 
ATOM     10  C   UNL     1       4.492   7.301  -3.595  0.00  0.00    +0.011 C 
ATOM     11  C   UNL     1       4.500   6.329  -2.410  0.00  0.00    +0.020 C 
ATOM     12  C   UNL     1       3.087   5.739  -2.267  0.00  0.00    -0.069 C 
ATOM     13  C   UNL     1       2.112   7.836  -2.991  0.00  0.00    -0.073 C 
ATOM     14  N   UNL     1       2.178   6.847  -1.896  0.00  0.00    +0.385 N 
ATOM     15  H   UNL     1       2.542   7.308  -1.053  0.00  0.00    -0.081 HD
ENDROOT
BRANCH   1  23
ATOM     16  C   UNL     1       7.561  11.110   6.391  0.00  0.00    +0.001 A 
ATOM     17  C   UNL     1       6.285  11.336   6.889  0.00  0.00    +0.001 A 
ATOM     18  C   UNL     1       5.186  10.921   6.162  0.00  0.00    +0.015 A 
ATOM     19  C   UNL     1       5.372  10.287   4.952  0.00  0.00    +0.020 A 
ATOM     20  C   UNL     1       6.659  10.044   4.423  0.00  0.00    -0.010 A 
ATOM     21  C   UNL     1       7.759  10.486   5.199  0.00  0.00    +0.009 A 
ATOM     22  C   UNL     1       6.671   9.367   3.138  0.00  0.00    +0.024 A 
ATOM     23  C   UNL     1       5.491   9.028   2.562  0.00  0.00    +0.026 A 
ATOM     24  S   UNL     1       4.277   9.617   3.728  0.00  0.00    -0.088 S 
ENDBRANCH   1  23
BRANCH  14  25
ATOM     25  C   UNL     1       0.829   6.321  -1.610  0.00  0.00    -0.003 C 
BRANCH  25  26
ATOM     26  C   UNL     1       0.948   5.131  -0.692  0.00  0.00    +0.089 A 
ATOM     27  C   UNL     1       0.956   5.173   0.653  0.00  0.00    +0.043 A 
ATOM     28  C   UNL     1       1.079   3.839   1.104  0.00  0.00    +0.047 A 
ATOM     29  C   UNL     1       1.147   3.062   0.008  0.00  0.00    +0.130 A 
ATOM     30  O   UNL     1       1.063   3.850  -1.077  0.00  0.00    -0.464 OA
BRANCH  29  31
ATOM     31  C   UNL     1       1.286   1.562  -0.002  0.00  0.00    +0.230 C 
BRANCH  31  32
ATOM     32  O   UNL     1      -0.011   0.963   0.007  0.00  0.00    -0.387 OA
ATOM     33  H   UNL     1       0.002  -0.004   0.002  0.00  0.00    +0.210 HD
ENDBRANCH  31  32
ENDBRANCH  29  31
ENDBRANCH  25  26
ENDBRANCH  14  25
TORSDOF 5
