REMARK  Name = ZINC00109091
REMARK  3 active torsions:
REMARK  status: ('A' for Active; 'I' for Inactive)
REMARK    1  A    between atoms: C_9  and  S_11
REMARK    2  A    between atoms: S_11  and  C_12
REMARK    3  A    between atoms: C_15  and  N_19
REMARK                            x       y       z     vdW  Elec       q    Type
REMARK                         _______ _______ _______ _____ _____    ______ ____
ROOT
ATOM      1  S   UNL     1       1.246  -2.442  -0.024  0.00  0.00    -0.050 S 
ENDROOT
BRANCH   1  10
ATOM      2  C   UNL     1       7.296  -4.035  -0.670  0.00  0.00    +0.002 A 
ATOM      3  C   UNL     1       7.489  -2.666  -0.561  0.00  0.00    +0.002 A 
ATOM      4  C   UNL     1       6.416  -1.819  -0.395  0.00  0.00    +0.030 A 
ATOM      5  C   UNL     1       5.122  -2.343  -0.336  0.00  0.00    +0.090 A 
ATOM      6  C   UNL     1       4.932  -3.731  -0.447  0.00  0.00    +0.067 A 
ATOM      7  C   UNL     1       6.024  -4.568  -0.614  0.00  0.00    +0.028 A 
ATOM      8  N   UNL     1       3.566  -3.942  -0.347  0.00  0.00    -0.333 N 
ATOM      9  H   UNL     1       3.099  -4.825  -0.382  0.00  0.00    +0.168 HD
ATOM     10  C   UNL     1       2.978  -2.719  -0.193  0.00  0.00    +0.172 A 
ATOM     11  N   UNL     1       3.894  -1.782  -0.183  0.00  0.00    -0.222 NA
ENDBRANCH   1  10
BRANCH   1  12
ATOM     12  C   UNL     1       1.242  -0.709   0.294  0.00  0.00    +0.034 A 
ATOM     13  C   UNL     1       0.875   0.181  -0.708  0.00  0.00    +0.019 A 
ATOM     14  C   UNL     1       0.872   1.539  -0.455  0.00  0.00    +0.034 A 
ATOM     15  C   UNL     1       1.235   2.013   0.792  0.00  0.00    +0.128 A 
ATOM     16  C   UNL     1       1.601   1.131   1.792  0.00  0.00    +0.053 A 
ATOM     17  C   UNL     1       1.606  -0.229   1.547  0.00  0.00    +0.057 A 
ATOM     18 CL   UNL     1       2.065  -1.337   2.802  0.00  0.00    -0.082 Cl
BRANCH  15  19
ATOM     19  N   UNL     1       1.231   3.470   1.058  0.00  0.00    +0.056 N 
ATOM     20  O   UNL     1       1.550   3.889   2.156  0.00  0.00    -0.126 OA
ATOM     21  O   UNL     1       0.908   4.248   0.179  0.00  0.00    -0.126 OA
ENDBRANCH  15  19
ENDBRANCH   1  12
TORSDOF 3
