REMARK  Name = ZINC35272914
REMARK  7 active torsions:
REMARK  status: ('A' for Active; 'I' for Inactive)
REMARK    1  A    between atoms: C_1  and  C_2
REMARK    2  A    between atoms: C_2  and  C_3
REMARK    3  A    between atoms: C_3  and  N_4
REMARK    4  A    between atoms: C_12  and  C_14
REMARK    5  A    between atoms: C_19  and  S_21
REMARK    6  A    between atoms: S_21  and  C_22
REMARK    7  A    between atoms: C_22  and  C_23
REMARK                            x       y       z     vdW  Elec       q    Type
REMARK                         _______ _______ _______ _____ _____    ______ ____
ROOT
ATOM      1  N   UNL     1       0.740  -1.962  -1.263  0.00  0.00    -0.299 N 
ATOM      2  C   UNL     1       1.321  -2.623  -2.284  0.00  0.00    +0.303 C 
ATOM      3  O   UNL     1       1.748  -2.007  -3.242  0.00  0.00    -0.253 OA
ATOM      4  N   UNL     1       1.429  -3.966  -2.244  0.00  0.00    -0.280 N 
ATOM      5  C   UNL     1       0.815  -4.732  -1.151  0.00  0.00    +0.128 C 
ATOM      6  C   UNL     1       1.897  -5.592  -0.487  0.00  0.00    +0.125 C 
ATOM      7  N   UNL     1       2.631  -6.316  -1.535  0.00  0.00    -0.312 N 
ATOM      8  C   UNL     1       3.245  -5.549  -2.628  0.00  0.00    +0.128 C 
ATOM      9  C   UNL     1       2.157  -4.690  -3.295  0.00  0.00    +0.092 C 
ATOM     10  C   UNL     1       1.188  -5.588  -4.065  0.00  0.00    +0.030 C 
ATOM     11  C   UNL     1       2.742  -7.696  -1.493  0.00  0.00    +0.127 A 
ATOM     12  C   UNL     1       1.991  -8.440  -0.580  0.00  0.00    +0.083 A 
ATOM     13  C   UNL     1       2.134  -9.815  -0.574  0.00  0.00    +0.135 A 
ATOM     14  N   UNL     1       2.973 -10.384  -1.429  0.00  0.00    -0.210 NA
ATOM     15  C   UNL     1       3.672  -9.652  -2.285  0.00  0.00    +0.192 A 
ATOM     16  N   UNL     1       3.560  -8.332  -2.325  0.00  0.00    -0.207 NA
ATOM     17 CL   UNL     1       1.224 -10.787   0.541  0.00  0.00    -0.062 Cl
ATOM     18  H   UNL     1       0.334  -2.457  -0.534  0.00  0.00    +0.150 HD
ENDROOT
BRANCH   1  19
ATOM     19  C   UNL     1       0.721  -0.497  -1.255  0.00  0.00    +0.105 C 
BRANCH  19  21
ATOM     20  C   UNL     1      -0.012   1.526   0.014  0.00  0.00    +0.005 C 
ATOM     21  C   UNL     1       0.007  -0.004   0.005  0.00  0.00    +0.015 C 
ENDBRANCH  19  21
ENDBRANCH   1  19
BRANCH  15  22
ATOM     22  S   UNL     1       4.774 -10.455  -3.401  0.00  0.00    -0.074 S 
BRANCH  22  23
ATOM     23  C   UNL     1       4.599 -12.216  -3.001  0.00  0.00    +0.202 C 
BRANCH  23  24
ATOM     24  C   UNL     1       5.500 -13.027  -3.896  0.00  0.00    +0.366 C 
ATOM     25  O   UNL     1       6.196 -12.469  -4.726  0.00  0.00    -0.245 OA
ATOM     26  O   UNL     1       5.533 -14.241  -3.788  0.00  0.00    -0.245 OA
ENDBRANCH  23  24
ENDBRANCH  22  23
ENDBRANCH  15  22
TORSDOF 5
