REMARK  Name = ZINC39933241
REMARK  4 active torsions:
REMARK  status: ('A' for Active; 'I' for Inactive)
REMARK    1  A    between atoms: C_8  and  C_13
REMARK    2  A    between atoms: N_14  and  N_15
REMARK    3  A    between atoms: C_16  and  C_18
REMARK    4  A    between atoms: C_21  and  N_24
REMARK                            x       y       z     vdW  Elec       q    Type
REMARK                         _______ _______ _______ _____ _____    ______ ____
ROOT
ATOM      1  C   UNL     1       2.847  -3.570   1.171  0.00  0.00    +0.117 C 
ATOM      2  N   UNL     1       2.838  -4.843   1.035  0.00  0.00    -0.191 NA
ENDROOT
BRANCH   1  10
ATOM      3  C   UNL     1      -0.113   1.311   0.048  0.00  0.00    +0.001 A 
ATOM      4  C   UNL     1       1.057   2.072   0.028  0.00  0.00    +0.002 A 
ATOM      5  C   UNL     1       2.294   1.514  -0.003  0.00  0.00    +0.024 A 
ATOM      6  C   UNL     1       2.446   0.113  -0.014  0.00  0.00    +0.038 A 
ATOM      7  N   UNL     1       3.663  -0.423  -0.043  0.00  0.00    -0.311 N 
ATOM      8  C   UNL     1       3.877  -1.729  -0.056  0.00  0.00    +0.065 C 
ATOM      9  S   UNL     1       5.477  -2.337  -0.093  0.00  0.00    -0.039 S 
ATOM     10  C   UNL     1       2.703  -2.682  -0.037  0.00  0.00    +0.107 C 
ATOM     11  C   UNL     1       1.314  -2.074  -0.004  0.00  0.00    -0.002 C 
ATOM     12  C   UNL     1       1.227  -0.715   0.007  0.00  0.00    -0.007 A 
ATOM     13  C   UNL     1      -0.075  -0.046   0.040  0.00  0.00    +0.009 A 
ATOM     14  H   UNL     1       4.430   0.171  -0.056  0.00  0.00    +0.152 HD
ENDBRANCH   1  10
BRANCH   2  15
ATOM     15  N   UNL     1       2.814  -5.410  -0.246  0.00  0.00    -0.203 N 
ATOM     16  C   UNL     1       2.692  -6.744  -0.390  0.00  0.00    +0.263 C 
ATOM     17  O   UNL     1       2.603  -7.456   0.591  0.00  0.00    -0.268 OA
ATOM     18  H   UNL     1       2.885  -4.842  -1.029  0.00  0.00    +0.178 HD
BRANCH  16  19
ATOM     19  C   UNL     1       2.666  -7.342  -1.742  0.00  0.00    +0.038 A 
ATOM     20  C   UNL     1       2.774  -6.528  -2.871  0.00  0.00    +0.015 A 
ATOM     21  C   UNL     1       2.749  -7.093  -4.129  0.00  0.00    +0.033 A 
ATOM     22  C   UNL     1       2.618  -8.463  -4.274  0.00  0.00    +0.126 A 
ATOM     23  C   UNL     1       2.510  -9.275  -3.159  0.00  0.00    +0.033 A 
ATOM     24  C   UNL     1       2.540  -8.724  -1.894  0.00  0.00    +0.015 A 
BRANCH  22  25
ATOM     25  N   UNL     1       2.592  -9.062  -5.627  0.00  0.00    +0.056 N 
ATOM     26  O   UNL     1       2.686  -8.354  -6.603  0.00  0.00    -0.126 OA
ATOM     27  O   UNL     1       2.478 -10.258  -5.756  0.00  0.00    -0.126 OA
ENDBRANCH  22  25
ENDBRANCH  16  19
ENDBRANCH   2  15
TORSDOF 4
