REMARK  Name = ZINC15403078
REMARK  11 active torsions:
REMARK  status: ('A' for Active; 'I' for Inactive)
REMARK    1  A    between atoms: C_1  and  C_2
REMARK    2  A    between atoms: C_2  and  O_3
REMARK    3  A    between atoms: O_3  and  C_4
REMARK    4  A    between atoms: C_4  and  C_6
REMARK    5  A    between atoms: C_7  and  C_19
REMARK    6  A    between atoms: C_12  and  C_14
REMARK    7  A    between atoms: C_19  and  N_20
REMARK    8  A    between atoms: C_27  and  S_29
REMARK    9  A    between atoms: S_29  and  N_32
REMARK   10  A    between atoms: N_32  and  C_33
REMARK   11  A    between atoms: N_32  and  C_34
REMARK                            x       y       z     vdW  Elec       q    Type
REMARK                         _______ _______ _______ _____ _____    ______ ____
ROOT
ATOM      1  C   UNL     1      -4.747   3.165   7.546  0.00  0.00    +0.083 C 
ATOM      2  C   UNL     1      -3.468   2.817   7.288  0.00  0.00    +0.041 C 
ATOM      3  N   UNL     1      -2.441   3.291   8.053  0.00  0.00    -0.271 N 
ATOM      4  C   UNL     1      -2.611   4.111   9.098  0.00  0.00    +0.304 C 
ATOM      5  O   UNL     1      -1.634   4.480   9.720  0.00  0.00    -0.252 OA
ATOM      6  N   UNL     1      -3.829   4.542   9.482  0.00  0.00    -0.285 N 
ATOM      7  C   UNL     1      -5.004   4.088   8.720  0.00  0.00    +0.179 C 
ATOM      8  H   UNL     1      -1.538   3.017   7.828  0.00  0.00    +0.156 HD
ATOM      9  H   UNL     1      -3.929   5.136  10.241  0.00  0.00    +0.151 HD
ENDROOT
BRANCH   7  10
ATOM     10  C   UNL     1      -5.934   3.384   9.675  0.00  0.00    +0.130 A 
ATOM     11  C   UNL     1      -7.275   3.481   9.682  0.00  0.00    +0.047 A 
ATOM     12  C   UNL     1      -7.739   2.661  10.737  0.00  0.00    +0.041 A 
ATOM     13  C   UNL     1      -6.654   2.113  11.311  0.00  0.00    +0.195 A 
ATOM     14  O   UNL     1      -5.563   2.550  10.660  0.00  0.00    -0.466 OA
ENDBRANCH   7  10
BRANCH   1  15
ATOM     15  C   UNL     1      -5.812   2.680   6.750  0.00  0.00    +0.339 C 
ATOM     16  O   UNL     1      -5.576   2.018   5.757  0.00  0.00    -0.245 OA
BRANCH  15  17
ATOM     17  O   UNL     1      -7.088   2.952   7.093  0.00  0.00    -0.462 OA
BRANCH  17  19
ATOM     18  C   UNL     1      -9.483   2.838   6.788  0.00  0.00    +0.048 C 
ATOM     19  C   UNL     1      -8.113   2.430   6.244  0.00  0.00    +0.229 C 
ENDBRANCH  17  19
ENDBRANCH  15  17
ENDBRANCH   1  15
BRANCH   2  20
ATOM     20  C   UNL     1      -3.169   1.897   6.133  0.00  0.00    +0.156 C 
BRANCH  20  21
ATOM     21  N   UNL     1      -3.085   2.680   4.892  0.00  0.00    -0.324 N 
ATOM     22  C   UNL     1      -2.056   3.737   5.000  0.00  0.00    +0.110 C 
ATOM     23  C   UNL     1      -1.554   3.870   3.544  0.00  0.00    +0.056 C 
ATOM     24  C   UNL     1      -1.855   2.505   2.958  0.00  0.00    -0.023 A 
ATOM     25  C   UNL     1      -2.751   1.863   3.805  0.00  0.00    +0.033 A 
ATOM     26  C   UNL     1      -3.181   0.577   3.487  0.00  0.00    +0.025 A 
ATOM     27  C   UNL     1      -2.722  -0.046   2.344  0.00  0.00    +0.030 A 
ATOM     28  C   UNL     1      -1.834   0.603   1.506  0.00  0.00    +0.106 A 
ATOM     29  C   UNL     1      -1.397   1.878   1.818  0.00  0.00    +0.034 A 
BRANCH  28  30
ATOM     30  S   UNL     1      -1.253  -0.196   0.047  0.00  0.00    +0.060 S 
ATOM     31  O   UNL     1      -1.384  -1.593   0.269  0.00  0.00    -0.153 OA
ATOM     32  O   UNL     1      -0.011   0.411  -0.281  0.00  0.00    -0.153 OA
BRANCH  30  33
ATOM     33  N   UNL     1      -2.305   0.190  -1.173  0.00  0.00    -0.183 NA
ATOM     34  C   UNL     1      -2.070   1.381  -1.993  0.00  0.00    +0.131 C 
ATOM     35  C   UNL     1      -3.469  -0.661  -1.433  0.00  0.00    +0.131 C 
ENDBRANCH  30  33
ENDBRANCH  28  30
ENDBRANCH  20  21
ENDBRANCH   2  20
TORSDOF 8
