REMARK  Name = ZINC20570147
REMARK  8 active torsions:
REMARK  status: ('A' for Active; 'I' for Inactive)
REMARK    1  A    between atoms: C_1  and  O_2
REMARK    2  A    between atoms: O_2  and  C_3
REMARK    3  A    between atoms: C_6  and  S_9
REMARK    4  A    between atoms: S_9  and  N_12
REMARK    5  A    between atoms: N_12  and  C_13
REMARK    6  A    between atoms: C_18  and  C_19
REMARK    7  A    between atoms: N_21  and  C_22
REMARK    8  A    between atoms: C_23  and  C_31
REMARK                            x       y       z     vdW  Elec       q    Type
REMARK                         _______ _______ _______ _____ _____    ______ ____
ROOT
ATOM      1  C   UNL     1       3.534   1.664  -0.197  0.00  0.00    +0.060 A 
ATOM      2  C   UNL     1       4.682   0.886  -0.277  0.00  0.00    +0.025 A 
ATOM      3  C   UNL     1       4.582  -0.479  -0.450  0.00  0.00    +0.002 A 
ATOM      4  C   UNL     1       3.339  -1.086  -0.540  0.00  0.00    +0.001 A 
ATOM      5  C   UNL     1       2.189  -0.332  -0.458  0.00  0.00    +0.015 A 
ATOM      6  C   UNL     1       2.273   1.052  -0.282  0.00  0.00    +0.059 A 
ENDROOT
BRANCH   6   7
ATOM      7  C   UNL     1       1.047   1.864  -0.194  0.00  0.00    +0.250 C 
ATOM      8  O   UNL     1       1.125   3.068  -0.041  0.00  0.00    -0.270 OA
ATOM      9  N   UNL     1      -0.161   1.273  -0.282  0.00  0.00    -0.275 N 
ATOM     10  H   UNL     1      -0.232   0.183  -0.416  0.00  0.00    +0.156 HD
BRANCH   9  11
ATOM     11  C   UNL     1      -1.314   2.037  -0.205  0.00  0.00    +0.085 A 
ATOM     12  C   UNL     1      -2.634   1.617  -0.285  0.00  0.00    +0.068 A 
ATOM     13  C   UNL     1      -3.670   2.630  -0.168  0.00  0.00    -0.023 A 
ATOM     14  C   UNL     1      -3.222   3.893  -0.003  0.00  0.00    -0.004 A 
ATOM     15  S   UNL     1      -1.457   3.751   0.007  0.00  0.00    -0.077 S 
ATOM     16  C   UNL     1      -4.049   5.134   0.138  0.00  0.00    +0.043 C 
ATOM     17  C   UNL     1      -5.484   4.811  -0.306  0.00  0.00    +0.005 C 
ATOM     18  C   UNL     1      -5.928   3.510   0.367  0.00  0.00    +0.005 C 
ATOM     19  C   UNL     1      -5.162   2.328  -0.229  0.00  0.00    +0.037 C 
BRANCH  12  20
ATOM     20  C   UNL     1      -2.972   0.203  -0.476  0.00  0.00    +0.244 C 
ATOM     21  O   UNL     1      -3.133  -0.520   0.490  0.00  0.00    -0.270 OA
ATOM     22  N   UNL     1      -3.105  -0.296  -1.720  0.00  0.00    -0.325 N 
ATOM     23  H   UNL     1      -3.358  -1.357  -1.863  0.00  0.00    +0.145 HD
ATOM     24  H   UNL     1      -2.959   0.357  -2.594  0.00  0.00    +0.145 HD
ENDBRANCH  12  20
ENDBRANCH   9  11
ENDBRANCH   6   7
BRANCH   1  25
ATOM     25  N   UNL     1       3.632   3.039  -0.028  0.00  0.00    -0.216 N 
ATOM     26  H   UNL     1       2.893   3.571   0.588  0.00  0.00    +0.174 HD
BRANCH  25  27
ATOM     27  S   UNL     1       4.862   3.876  -0.754  0.00  0.00    +0.072 S 
ATOM     28  O   UNL     1       4.617   5.254  -0.507  0.00  0.00    -0.150 OA
ATOM     29  O   UNL     1       6.072   3.237  -0.369  0.00  0.00    -0.150 OA
BRANCH  27  33
ATOM     30  C   UNL     1       4.442   3.267  -5.222  0.00  0.00    +0.120 A 
ATOM     31  C   UNL     1       3.805   4.333  -4.603  0.00  0.00    +0.047 A 
ATOM     32  C   UNL     1       3.935   4.517  -3.240  0.00  0.00    +0.032 A 
ATOM     33  C   UNL     1       4.699   3.639  -2.493  0.00  0.00    +0.109 A 
ATOM     34  C   UNL     1       5.339   2.579  -3.108  0.00  0.00    +0.032 A 
ATOM     35  C   UNL     1       5.208   2.388  -4.470  0.00  0.00    +0.047 A 
BRANCH  30  37
ATOM     36  C   UNL     1       4.999   1.966  -7.132  0.00  0.00    +0.277 C 
ATOM     37  O   UNL     1       4.316   3.084  -6.562  0.00  0.00    -0.495 OA
ENDBRANCH  30  37
ENDBRANCH  27  33
ENDBRANCH  25  27
ENDBRANCH   1  25
TORSDOF 7
