REMARK  Name = ZINC09885055
REMARK  9 active torsions:
REMARK  status: ('A' for Active; 'I' for Inactive)
REMARK    1  A    between atoms: C_1  and  N_2
REMARK    2  A    between atoms: C_4  and  C_11
REMARK    3  A    between atoms: N_7  and  C_10
REMARK    4  A    between atoms: N_12  and  N_13
REMARK    5  A    between atoms: N_13  and  C_14
REMARK    6  A    between atoms: C_17  and  N_31
REMARK    7  A    between atoms: C_19  and  S_20
REMARK    8  A    between atoms: S_20  and  N_23
REMARK    9  A    between atoms: N_23  and  C_24
REMARK                            x       y       z     vdW  Elec       q    Type
REMARK                         _______ _______ _______ _____ _____    ______ ____
ROOT
ATOM      1  C   UNL     1      -6.814   2.099   0.250  0.00  0.00    +0.075 A 
ATOM      2  C   UNL     1      -6.280   1.526  -0.911  0.00  0.00    +0.029 A 
ATOM      3  C   UNL     1      -7.080   1.354  -2.019  0.00  0.00    +0.035 A 
ATOM      4  C   UNL     1      -8.409   1.746  -1.987  0.00  0.00    +0.128 A 
ATOM      5  C   UNL     1      -8.944   2.314  -0.842  0.00  0.00    +0.063 A 
ATOM      6  C   UNL     1      -8.159   2.489   0.277  0.00  0.00    +0.135 A 
ENDROOT
BRANCH   6   7
ATOM      7  S   UNL     1      -8.843   3.204   1.734  0.00  0.00    +0.093 S 
ATOM      8  O   UNL     1      -7.960   4.246   2.128  0.00  0.00    -0.148 OA
ATOM      9  O   UNL     1     -10.219   3.433   1.466  0.00  0.00    -0.148 OA
BRANCH   7  10
ATOM     10  N   UNL     1      -8.776   2.053   2.922  0.00  0.00    -0.098 NA
BRANCH  10  11
ATOM     11  C   UNL     1      -9.498   0.865   2.785  0.00  0.00    +0.074 A 
ATOM     12  C   UNL     1     -10.822   0.899   2.366  0.00  0.00    +0.028 A 
ATOM     13  C   UNL     1     -11.532  -0.277   2.225  0.00  0.00    +0.022 A 
ATOM     14  C   UNL     1     -10.928  -1.489   2.512  0.00  0.00    +0.041 A 
ATOM     15  C   UNL     1      -9.611  -1.526   2.935  0.00  0.00    +0.022 A 
ATOM     16  C   UNL     1      -8.895  -0.353   3.072  0.00  0.00    +0.028 A 
ATOM     17 CL   UNL     1     -11.825  -2.966   2.341  0.00  0.00    -0.084 Cl
ENDBRANCH  10  11
ENDBRANCH   7  10
ENDBRANCH   6   7
BRANCH   4  18
ATOM     18  N   UNL     1      -9.262   1.557  -3.183  0.00  0.00    +0.056 N 
ATOM     19  O   UNL     1      -8.757   1.017  -4.273  0.00  0.00    -0.126 OA
ATOM     20  O   UNL     1     -10.525   1.928  -3.156  0.00  0.00    -0.126 OA
ENDBRANCH   4  18
BRANCH   1  21
ATOM     21  N   UNL     1      -6.024   2.274   1.359  0.00  0.00    -0.236 N 
ATOM     22  H   UNL     1      -6.465   2.644   2.296  0.00  0.00    +0.174 HD
BRANCH  21  24
ATOM     23  C   UNL     1      -3.969   2.269   2.357  0.00  0.00    +0.145 C 
ATOM     24  N   UNL     1      -4.764   2.003   1.302  0.00  0.00    -0.190 NA
BRANCH  23  28
ATOM     25  C   UNL     1       0.435   2.227   4.416  0.00  0.00    +0.153 C 
ATOM     26  N   UNL     1      -0.455   1.950   3.285  0.00  0.00    -0.303 N 
ATOM     27  C   UNL     1      -1.752   2.248   3.394  0.00  0.00    +0.105 A 
ATOM     28  C   UNL     1      -2.615   1.979   2.296  0.00  0.00    +0.075 A 
ATOM     29  C   UNL     1      -2.010   1.378   1.079  0.00  0.00    +0.265 A 
ATOM     30  O   UNL     1      -2.687   1.125   0.102  0.00  0.00    -0.267 OA
ATOM     31  N   UNL     1      -0.685   1.117   1.093  0.00  0.00    -0.263 N 
ATOM     32  C   UNL     1       0.058   1.403   2.174  0.00  0.00    +0.331 A 
ATOM     33  O   UNL     1       1.247   1.157   2.143  0.00  0.00    -0.246 OA
ATOM     34  C   UNL     1      -0.051   0.520  -0.086  0.00  0.00    +0.157 C 
ENDBRANCH  23  28
ENDBRANCH  21  24
ENDBRANCH   1  21
TORSDOF 7
