REMARK  Name = ZINC39693449
REMARK  11 active torsions:
REMARK  status: ('A' for Active; 'I' for Inactive)
REMARK    1  A    between atoms: C_1  and  C_2
REMARK    2  A    between atoms: C_2  and  C_3
REMARK    3  A    between atoms: C_2  and  C_4
REMARK    4  A    between atoms: C_2  and  O_5
REMARK    5  A    between atoms: O_5  and  C_6
REMARK    6  A    between atoms: N_8  and  C_9
REMARK    7  A    between atoms: C_9  and  C_10
REMARK    8  A    between atoms: C_10  and  N_11
REMARK    9  A    between atoms: C_12  and  C_14
REMARK   10  A    between atoms: C_25  and  C_27
REMARK   11  A    between atoms: C_27  and  C_28
REMARK                            x       y       z     vdW  Elec       q    Type
REMARK                         _______ _______ _______ _____ _____    ______ ____
ROOT
ATOM      1  C   UNL     1       8.095  -0.218  -5.353  0.00  0.00    +0.100 C 
ATOM      2  C   UNL     1       8.950  -0.678  -4.151  0.00  0.00    +0.121 C 
ATOM      3  N   UNL     1       9.539  -1.968  -4.582  0.00  0.00    -0.300 N 
ATOM      4  C   UNL     1       9.883  -1.758  -6.009  0.00  0.00    +0.115 C 
ATOM      5  C   UNL     1       8.713  -0.926  -6.571  0.00  0.00    -0.004 C 
ATOM      6  C   UNL     1       9.229   0.102  -7.574  0.00  0.00    -0.010 C 
ATOM      7  C   UNL     1       9.786  -0.624  -8.802  0.00  0.00    -0.082 C 
ATOM      8  N   UNL     1       8.729  -1.442  -9.409  0.00  0.00    +0.379 N 
ATOM      9  C   UNL     1       8.303  -2.487  -8.471  0.00  0.00    -0.082 C 
ATOM     10  C   UNL     1       7.684  -1.840  -7.229  0.00  0.00    -0.010 C 
ATOM     11  C   UNL     1       9.721  -3.081  -3.844  0.00  0.00    +0.220 C 
ATOM     12  O   UNL     1      10.221  -4.066  -4.345  0.00  0.00    -0.275 OA
ATOM     13  H   UNL     1       7.940  -0.855  -9.637  0.00  0.00    -0.086 HD
ATOM     14  H   UNL     1       9.080  -1.871 -10.252  0.00  0.00    -0.086 HD
ENDROOT
BRANCH   1  16
ATOM     15  N   UNL     1       5.668   0.076  -5.730  0.00  0.00    -0.314 N 
ATOM     16  C   UNL     1       6.661  -0.644  -5.171  0.00  0.00    +0.218 C 
ATOM     17  O   UNL     1       6.400  -1.633  -4.521  0.00  0.00    -0.275 OA
ATOM     18  H   UNL     1       5.877   0.868  -6.250  0.00  0.00    +0.149 HD
BRANCH  15  19
ATOM     19  C   UNL     1       4.274  -0.337  -5.553  0.00  0.00    +0.123 C 
BRANCH  19  20
ATOM     20  C   UNL     1       3.355   0.643  -6.283  0.00  0.00    +0.126 C 
BRANCH  20  23
ATOM     21  C   UNL     1       0.968   0.949  -6.665  0.00  0.00    +0.401 C 
ATOM     22  O   UNL     1       1.229   1.941  -7.317  0.00  0.00    -0.226 OA
ATOM     23  N   UNL     1       1.960   0.230  -6.106  0.00  0.00    -0.280 N 
ATOM     24  H   UNL     1       1.752  -0.562  -5.586  0.00  0.00    +0.152 HD
BRANCH  21  25
ATOM     25  O   UNL     1      -0.314   0.569  -6.503  0.00  0.00    -0.445 OA
BRANCH  25  27
ATOM     26  C   UNL     1      -1.083   1.406  -8.635  0.00  0.00    +0.055 C 
ATOM     27  C   UNL     1      -1.314   1.379  -7.123  0.00  0.00    +0.107 C 
ATOM     28  C   UNL     1      -1.234   2.803  -6.569  0.00  0.00    +0.055 C 
ATOM     29  C   UNL     1      -2.697   0.794  -6.830  0.00  0.00    +0.055 C 
ENDBRANCH  25  27
ENDBRANCH  21  25
ENDBRANCH  20  23
ENDBRANCH  19  20
ENDBRANCH  15  19
ENDBRANCH   1  16
BRANCH  11  30
ATOM     30  C   UNL     1       9.303  -3.102  -2.397  0.00  0.00    +0.131 C 
BRANCH  30  31
ATOM     31  C   UNL     1       9.612  -4.452  -1.804  0.00  0.00    -0.039 A 
ATOM     32  C   UNL     1       8.670  -5.463  -1.856  0.00  0.00    +0.005 A 
ATOM     33  C   UNL     1       8.954  -6.701  -1.313  0.00  0.00    +0.020 A 
ATOM     34  C   UNL     1      10.181  -6.930  -0.716  0.00  0.00    +0.041 A 
ATOM     35  C   UNL     1      11.123  -5.918  -0.663  0.00  0.00    +0.020 A 
ATOM     36  C   UNL     1      10.841  -4.682  -1.212  0.00  0.00    +0.005 A 
ATOM     37 CL   UNL     1      10.537  -8.485  -0.032  0.00  0.00    -0.084 Cl
ENDBRANCH  30  31
ENDBRANCH  11  30
TORSDOF 8
