REMARK  Name = ZINC13417936
REMARK  9 active torsions:
REMARK  status: ('A' for Active; 'I' for Inactive)
REMARK    1  A    between atoms: C_1  and  C_2
REMARK    2  A    between atoms: N_7  and  C_10
REMARK    3  A    between atoms: C_10  and  C_12
REMARK    4  A    between atoms: C_10  and  C_13
REMARK    5  A    between atoms: N_15  and  C_16
REMARK    6  A    between atoms: C_19  and  O_22
REMARK    7  A    between atoms: O_22  and  C_23
REMARK    8  A    between atoms: C_23  and  C_24
REMARK    9  A    between atoms: C_31  and  C_32
REMARK                            x       y       z     vdW  Elec       q    Type
REMARK                         _______ _______ _______ _____ _____    ______ ____
ROOT
ATOM      1  C   UNL     1       9.666  -3.921  -1.125  0.00  0.00    +0.240 C 
ATOM      2  O   UNL     1       9.277  -3.702   0.002  0.00  0.00    -0.273 OA
ATOM      3  N   UNL     1       8.890  -3.604  -2.180  0.00  0.00    -0.284 N 
ATOM      4  H   UNL     1       9.171  -3.840  -3.078  0.00  0.00    +0.155 HD
ENDROOT
BRANCH   3   5
ATOM      5  C   UNL     1       7.676  -2.933  -1.980  0.00  0.00    +0.034 A 
ATOM      6  C   UNL     1       6.911  -3.203  -0.853  0.00  0.00    +0.027 A 
ATOM      7  C   UNL     1       5.715  -2.542  -0.656  0.00  0.00    +0.047 A 
ATOM      8  C   UNL     1       5.278  -1.607  -1.583  0.00  0.00    +0.121 A 
ATOM      9  C   UNL     1       6.039  -1.341  -2.712  0.00  0.00    +0.047 A 
ATOM     10  C   UNL     1       7.238  -1.998  -2.908  0.00  0.00    +0.027 A 
BRANCH   8  11
ATOM     11  O   UNL     1       4.100  -0.956  -1.388  0.00  0.00    -0.487 OA
BRANCH  11  12
ATOM     12  C   UNL     1       3.712  -0.007  -2.383  0.00  0.00    +0.264 C 
BRANCH  12  13
ATOM     13  C   UNL     1       2.391   0.610  -2.001  0.00  0.00    -0.010 A 
ATOM     14  C   UNL     1       2.361   1.755  -1.227  0.00  0.00    +0.007 A 
ATOM     15  C   UNL     1       1.149   2.320  -0.876  0.00  0.00    +0.000 A 
ATOM     16  C   UNL     1      -0.033   1.740  -1.298  0.00  0.00    +0.000 A 
ATOM     17  C   UNL     1      -0.003   0.595  -2.072  0.00  0.00    +0.000 A 
ATOM     18  C   UNL     1       1.209   0.029  -2.423  0.00  0.00    +0.007 A 
ENDBRANCH  12  13
ENDBRANCH  11  12
ENDBRANCH   8  11
ENDBRANCH   3   5
BRANCH   1  19
ATOM     19  C   UNL     1      11.019  -4.548  -1.347  0.00  0.00    +0.174 C 
ATOM     20  C   UNL     1      11.890  -3.602  -2.176  0.00  0.00    +0.041 C 
BRANCH  19  27
ATOM     21  C   UNL     1      12.909  -8.775   1.438  0.00  0.00    +0.046 C 
ATOM     22  C   UNL     1      13.077  -7.473   2.178  0.00  0.00    -0.015 A 
ATOM     23  C   UNL     1      12.642  -6.279   1.600  0.00  0.00    +0.076 A 
ATOM     24  C   UNL     1      12.844  -5.112   2.373  0.00  0.00    +0.116 A 
ATOM     25  N   UNL     1      12.474  -3.913   1.940  0.00  0.00    -0.230 NA
ATOM     26  C   UNL     1      11.911  -3.751   0.773  0.00  0.00    +0.204 A 
ATOM     27  N   UNL     1      11.660  -4.795  -0.054  0.00  0.00    -0.287 N 
ATOM     28  C   UNL     1      11.994  -6.055   0.287  0.00  0.00    +0.263 A 
ATOM     29  O   UNL     1      11.770  -6.987  -0.465  0.00  0.00    -0.267 OA
ATOM     30  S   UNL     1      13.620  -5.727   3.845  0.00  0.00    -0.062 S 
ATOM     31  C   UNL     1      13.656  -7.458   3.414  0.00  0.00    +0.106 A 
BRANCH  31  32
ATOM     32  C   UNL     1      14.177  -8.584   4.192  0.00  0.00    +0.393 C 
ATOM     33  O   UNL     1      14.121  -9.712   3.742  0.00  0.00    -0.240 OA
ATOM     34  O   UNL     1      14.720  -8.369   5.409  0.00  0.00    -0.240 OA
ENDBRANCH  31  32
ENDBRANCH  19  27
ENDBRANCH   1  19
TORSDOF 7
