REMARK  Name = ZINC00909827
REMARK  11 active torsions:
REMARK  status: ('A' for Active; 'I' for Inactive)
REMARK    1  A    between atoms: C_1  and  C_2
REMARK    2  A    between atoms: C_2  and  C_3
REMARK    3  A    between atoms: C_3  and  C_4
REMARK    4  A    between atoms: C_3  and  C_5
REMARK    5  A    between atoms: C_3  and  N_6
REMARK    6  A    between atoms: C_7  and  C_11
REMARK    7  A    between atoms: C_11  and  C_13
REMARK    8  A    between atoms: C_11  and  N_65
REMARK    9  A    between atoms: C_17  and  C_26
REMARK   10  A    between atoms: C_19  and  C_25
REMARK   11  A    between atoms: C_29  and  C_32
REMARK                            x       y       z     vdW  Elec       q    Type
REMARK                         _______ _______ _______ _____ _____    ______ ____
ROOT
ATOM      1  C   UNL     1       1.987   3.015  -0.387  0.00  0.00    +0.039 C 
ENDROOT
BRANCH   1   2
ATOM      2  C   UNL     1       1.877   3.639   0.981  0.00  0.00    +0.011 A 
ATOM      3  C   UNL     1       2.969   4.201   1.556  0.00  0.00    +0.017 A 
ATOM      4  C   UNL     1       2.828   4.800   2.885  0.00  0.00    -0.001 A 
ATOM      5  C   UNL     1       3.918   5.394   3.530  0.00  0.00    +0.013 A 
ATOM      6  C   UNL     1       3.754   5.944   4.770  0.00  0.00    -0.050 A 
ATOM      7  C   UNL     1       2.515   5.917   5.396  0.00  0.00    +0.008 A 
ATOM      8  C   UNL     1       1.428   5.337   4.780  0.00  0.00    -0.026 A 
ATOM      9  C   UNL     1       1.571   4.771   3.517  0.00  0.00    +0.052 A 
ATOM     10  N   UNL     1       0.500   4.183   2.878  0.00  0.00    -0.322 N 
ATOM     11  H   UNL     1      -0.391   4.159   3.330  0.00  0.00    +0.169 HD
ATOM     12  C   UNL     1       0.637   3.641   1.655  0.00  0.00    +0.251 A 
ATOM     13  O   UNL     1      -0.332   3.135   1.117  0.00  0.00    -0.268 OA
ATOM     14  C   UNL     1       0.089   5.315   5.471  0.00  0.00    +0.046 C 
ATOM     15  C   UNL     1       4.928   6.585   5.464  0.00  0.00    +0.044 C 
ENDBRANCH   1   2
BRANCH   1  22
ATOM     16  C   UNL     1       1.124   5.081  -1.307  0.00  0.00    -0.077 C 
ATOM     17  C   UNL     1      -0.016   5.684  -2.131  0.00  0.00    -0.015 C 
ATOM     18  C   UNL     1       0.038   5.123  -3.555  0.00  0.00    -0.018 C 
ATOM     19  C   UNL     1      -0.053   3.596  -3.497  0.00  0.00    -0.015 C 
ATOM     20  C   UNL     1       1.088   3.053  -2.634  0.00  0.00    -0.077 C 
ATOM     21  C   UNL     1      -1.135   5.676  -4.367  0.00  0.00    +0.007 C 
ATOM     22  N   UNL     1       0.965   3.612  -1.270  0.00  0.00    +0.389 N 
ATOM     23  H   UNL     1       0.033   3.387  -0.901  0.00  0.00    -0.080 HD
ENDBRANCH   1  22
BRANCH   1  25
ATOM     24  N   UNL     1       2.640   0.551  -0.462  0.00  0.00    -0.225 N 
ATOM     25  C   UNL     1       1.737   1.532  -0.284  0.00  0.00    +0.143 A 
ATOM     26  N   UNL     1       0.597   0.949  -0.004  0.00  0.00    -0.115 NA
ATOM     27  N   UNL     1       0.791  -0.325  -0.010  0.00  0.00    -0.023 NA
ATOM     28  N   UNL     1       2.024  -0.569  -0.286  0.00  0.00    -0.043 NA
BRANCH  24  29
ATOM     29  C   UNL     1       4.057   0.722  -0.793  0.00  0.00    +0.061 C 
ATOM     30  C   UNL     1       4.183   1.404  -2.157  0.00  0.00    +0.036 C 
ATOM     31  C   UNL     1       4.730   1.587   0.274  0.00  0.00    +0.036 C 
BRANCH  29  33
ATOM     32  C   UNL     1       6.218  -0.469  -1.190  0.00  0.00    +0.006 C 
ATOM     33  C   UNL     1       4.738  -0.648  -0.844  0.00  0.00    +0.026 C 
ENDBRANCH  29  33
ENDBRANCH  24  29
ENDBRANCH   1  25
TORSDOF 5
