REMARK  Name = ZINC48546724
REMARK  7 active torsions:
REMARK  status: ('A' for Active; 'I' for Inactive)
REMARK    1  A    between atoms: C_1  and  C_2
REMARK    2  A    between atoms: C_5  and  N_9
REMARK    3  A    between atoms: C_7  and  C_8
REMARK    4  A    between atoms: N_9  and  C_10
REMARK    5  A    between atoms: C_16  and  C_18
REMARK    6  A    between atoms: C_21  and  C_25
REMARK    7  A    between atoms: C_21  and  C_26
REMARK                            x       y       z     vdW  Elec       q    Type
REMARK                         _______ _______ _______ _____ _____    ______ ____
ROOT
ATOM      1  C   UNL     1       0.061  -4.893  -1.294  0.00  0.00    +0.105 C 
ATOM      2  C   UNL     1       1.476  -5.081  -1.783  0.00  0.00    -0.001 C 
ATOM      3  C   UNL     1       1.765  -6.370  -1.883  0.00  0.00    +0.044 C 
ATOM      4  C   UNL     1       0.645  -7.220  -1.494  0.00  0.00    +0.162 C 
ATOM      5  O   UNL     1       0.633  -8.433  -1.489  0.00  0.00    -0.292 OA
ATOM      6  C   UNL     1      -0.502  -6.312  -1.099  0.00  0.00    +0.108 C 
ENDROOT
BRANCH   6   7
ATOM      7  C   UNL     1      -0.886  -6.539   0.364  0.00  0.00    +0.219 C 
ATOM      8  C   UNL     1      -1.991  -5.579   0.766  0.00  0.00    +0.325 C 
ATOM      9  O   UNL     1      -3.244  -5.883   0.360  0.00  0.00    -0.422 OA
ATOM     10  C   UNL     1      -3.682  -7.217   0.645  0.00  0.00    +0.254 C 
ATOM     11  O   UNL     1      -2.716  -8.150   0.146  0.00  0.00    -0.422 OA
ATOM     12  C   UNL     1      -1.440  -7.941   0.544  0.00  0.00    +0.325 C 
ATOM     13  O   UNL     1      -0.773  -8.829   1.020  0.00  0.00    -0.250 OA
ATOM     14  C   UNL     1      -3.827  -7.394   2.158  0.00  0.00    +0.104 C 
ATOM     15  C   UNL     1      -5.031  -7.468  -0.030  0.00  0.00    +0.104 C 
ATOM     16  O   UNL     1      -1.761  -4.588   1.419  0.00  0.00    -0.250 OA
ENDBRANCH   6   7
BRANCH   1  17
ATOM     17  N   UNL     1       0.058  -4.167  -0.021  0.00  0.00    -0.337 N 
ATOM     18  H   UNL     1       0.069  -4.657   0.816  0.00  0.00    +0.147 HD
BRANCH  17  23
ATOM     19  C   UNL     1      -0.018   1.503   0.010  0.00  0.00    +0.044 C 
ATOM     20  C   UNL     1       0.002  -0.004   0.002  0.00  0.00    -0.047 A 
ATOM     21  C   UNL     1       0.006  -0.687  -1.200  0.00  0.00    +0.005 A 
ATOM     22  C   UNL     1       0.024  -2.068  -1.212  0.00  0.00    +0.023 A 
ATOM     23  C   UNL     1       0.040  -2.771  -0.013  0.00  0.00    +0.028 A 
ATOM     24  C   UNL     1       0.036  -2.081   1.192  0.00  0.00    +0.026 A 
ATOM     25  C   UNL     1       0.023  -0.700   1.196  0.00  0.00    -0.046 A 
ATOM     26  C   UNL     1       0.025   0.049   2.504  0.00  0.00    +0.044 C 
ENDBRANCH  17  23
ENDBRANCH   1  17
TORSDOF 3
