REMARK  Name = ZINC00943478
REMARK  8 active torsions:
REMARK  status: ('A' for Active; 'I' for Inactive)
REMARK    1  A    between atoms: C_1  and  C_2
REMARK    2  A    between atoms: C_2  and  O_3
REMARK    3  A    between atoms: O_3  and  C_4
REMARK    4  A    between atoms: C_4  and  C_6
REMARK    5  A    between atoms: C_10  and  N_11
REMARK    6  A    between atoms: C_12  and  C_14
REMARK    7  A    between atoms: C_17  and  N_20
REMARK    8  A    between atoms: C_24  and  C_28
REMARK                            x       y       z     vdW  Elec       q    Type
REMARK                         _______ _______ _______ _____ _____    ______ ____
ROOT
ATOM      1  C   UNL     1       1.359  -0.302  -0.012  0.00  0.00    +0.091 A 
ATOM      2  C   UNL     1       2.290   0.814  -0.015  0.00  0.00    -0.021 A 
ATOM      3  C   UNL     1       1.722   2.038  -0.003  0.00  0.00    -0.004 A 
ATOM      4  S   UNL     1      -0.021   1.728   0.011  0.00  0.00    -0.077 S 
ATOM      5  C   UNL     1       0.002  -0.004   0.002  0.00  0.00    +0.087 A 
ATOM      6  C   UNL     1       2.425   3.361  -0.004  0.00  0.00    +0.046 C 
ATOM      7  C   UNL     1       3.890   3.129  -0.398  0.00  0.00    -0.009 C 
ATOM      8  C   UNL     1       4.445   1.965   0.427  0.00  0.00    +0.008 C 
ATOM      9  C   UNL     1       3.806   0.652  -0.029  0.00  0.00    +0.037 C 
ATOM     10  C   UNL     1       4.704   4.394  -0.117  0.00  0.00    +0.008 C 
ENDROOT
BRANCH   5  11
ATOM     11  N   UNL     1      -1.071  -0.879   0.007  0.00  0.00    -0.275 N 
ATOM     12  C   UNL     1      -2.331  -0.401   0.022  0.00  0.00    +0.249 C 
ATOM     13  O   UNL     1      -2.525   0.799   0.031  0.00  0.00    -0.270 OA
ATOM     14  H   UNL     1      -0.916  -1.837   0.000  0.00  0.00    +0.156 HD
BRANCH  12  15
ATOM     15  C   UNL     1      -3.476  -1.335   0.028  0.00  0.00    +0.037 A 
ATOM     16  C   UNL     1      -3.257  -2.713   0.012  0.00  0.00    +0.015 A 
ATOM     17  C   UNL     1      -4.330  -3.580   0.022  0.00  0.00    +0.033 A 
ATOM     18  C   UNL     1      -5.622  -3.085   0.038  0.00  0.00    +0.126 A 
ATOM     19  C   UNL     1      -5.847  -1.720   0.048  0.00  0.00    +0.033 A 
ATOM     20  C   UNL     1      -4.782  -0.842   0.043  0.00  0.00    +0.015 A 
BRANCH  18  21
ATOM     21  N   UNL     1      -6.769  -4.021   0.043  0.00  0.00    +0.056 N 
ATOM     22  O   UNL     1      -7.908  -3.588   0.057  0.00  0.00    -0.126 OA
ATOM     23  O   UNL     1      -6.575  -5.223   0.034  0.00  0.00    -0.126 OA
ENDBRANCH  18  21
ENDBRANCH  12  15
ENDBRANCH   5  11
BRANCH   1  24
ATOM     24  C   UNL     1       1.832  -1.687  -0.025  0.00  0.00    +0.342 C 
ATOM     25  O   UNL     1       2.019  -2.257  -1.083  0.00  0.00    -0.245 OA
BRANCH  24  26
ATOM     26  O   UNL     1       2.062  -2.332   1.138  0.00  0.00    -0.461 OA
BRANCH  26  28
ATOM     27  C   UNL     1       2.733  -4.265   2.458  0.00  0.00    +0.048 C 
ATOM     28  C   UNL     1       2.530  -3.704   1.049  0.00  0.00    +0.229 C 
ENDBRANCH  26  28
ENDBRANCH  24  26
ENDBRANCH   1  24
TORSDOF 6
