REMARK  Name = ZINC59218675
REMARK  11 active torsions:
REMARK  status: ('A' for Active; 'I' for Inactive)
REMARK    1  A    between atoms: C_1  and  C_2
REMARK    2  A    between atoms: C_2  and  O_3
REMARK    3  A    between atoms: O_3  and  C_4
REMARK    4  A    between atoms: C_7  and  C_10
REMARK    5  A    between atoms: C_13  and  S_15
REMARK    6  A    between atoms: S_15  and  C_16
REMARK    7  A    between atoms: C_16  and  C_17
REMARK    8  A    between atoms: N_19  and  C_20
REMARK    9  A    between atoms: C_23  and  N_26
REMARK   10  A    between atoms: N_29  and  C_32
REMARK   11  A    between atoms: C_32  and  C_33
REMARK                            x       y       z     vdW  Elec       q    Type
REMARK                         _______ _______ _______ _____ _____    ______ ____
ROOT
ATOM      1  C   UNL     1      -2.039 -13.338  -0.633  0.00  0.00    +0.228 C 
ATOM      2  O   UNL     1      -1.649 -14.348  -1.179  0.00  0.00    -0.275 OA
ATOM      3  N   UNL     1      -3.249 -13.317  -0.040  0.00  0.00    -0.285 N 
ATOM      4  H   UNL     1      -3.534 -12.531   0.452  0.00  0.00    +0.155 HD
ENDROOT
BRANCH   3   5
ATOM      5  C   UNL     1      -4.095 -14.430  -0.135  0.00  0.00    +0.034 A 
ATOM      6  C   UNL     1      -5.469 -14.251  -0.227  0.00  0.00    +0.025 A 
ATOM      7  C   UNL     1      -6.303 -15.347  -0.321  0.00  0.00    +0.025 A 
ATOM      8  C   UNL     1      -5.768 -16.629  -0.324  0.00  0.00    +0.030 A 
ATOM      9  C   UNL     1      -4.394 -16.807  -0.232  0.00  0.00    +0.025 A 
ATOM     10  C   UNL     1      -3.559 -15.711  -0.143  0.00  0.00    +0.025 A 
BRANCH   8  11
ATOM     11  N   UNL     1      -6.613 -17.740  -0.418  0.00  0.00    -0.333 N 
ATOM     12  C   UNL     1      -8.057 -17.575  -0.641  0.00  0.00    +0.086 C 
ATOM     13  C   UNL     1      -8.474 -18.472  -1.811  0.00  0.00    -0.059 C 
ATOM     14  N   UNL     1      -8.057 -19.854  -1.540  0.00  0.00    +0.384 N 
ATOM     15  C   UNL     1      -6.591 -19.932  -1.484  0.00  0.00    -0.059 C 
ATOM     16  C   UNL     1      -6.081 -19.107  -0.304  0.00  0.00    +0.086 C 
ATOM     17  H   UNL     1      -8.442 -20.152  -0.657  0.00  0.00    -0.081 HD
BRANCH  14  18
ATOM     18  C   UNL     1      -8.552 -20.732  -2.609  0.00  0.00    -0.052 C 
BRANCH  18  19
ATOM     19  C   UNL     1      -8.231 -22.165  -2.270  0.00  0.00    -0.053 C 
ATOM     20  C   UNL     1      -9.188 -23.059  -2.235  0.00  0.00    +0.002 C 
ENDBRANCH  18  19
ENDBRANCH  14  18
ENDBRANCH   8  11
ENDBRANCH   3   5
BRANCH   1  21
ATOM     21  C   UNL     1      -1.170 -12.107  -0.617  0.00  0.00    +0.175 C 
BRANCH  21  22
ATOM     22  S   UNL     1       0.383 -12.451  -1.490  0.00  0.00    -0.056 S 
BRANCH  22  26
ATOM     23  C   UNL     1       2.794  -9.412  -1.581  0.00  0.00    +0.249 A 
ATOM     24  N   UNL     1       1.775  -8.927  -0.915  0.00  0.00    -0.106 NA
ATOM     25  N   UNL     1       0.869  -9.833  -0.798  0.00  0.00    -0.101 NA
ATOM     26  C   UNL     1       1.275 -10.935  -1.385  0.00  0.00    +0.278 A 
ATOM     27  O   UNL     1       2.497 -10.693  -1.897  0.00  0.00    -0.411 OA
BRANCH  23  31
ATOM     28  C   UNL     1       6.366  -7.339  -2.576  0.00  0.00    +0.121 A 
ATOM     29  C   UNL     1       5.368  -6.694  -1.858  0.00  0.00    +0.046 A 
ATOM     30  C   UNL     1       4.207  -7.363  -1.533  0.00  0.00    +0.017 A 
ATOM     31  C   UNL     1       4.036  -8.691  -1.927  0.00  0.00    +0.039 A 
ATOM     32  C   UNL     1       5.042  -9.337  -2.650  0.00  0.00    +0.017 A 
ATOM     33  C   UNL     1       6.197  -8.658  -2.976  0.00  0.00    +0.046 A 
BRANCH  28  34
ATOM     34  O   UNL     1       7.508  -6.676  -2.895  0.00  0.00    -0.492 OA
BRANCH  34  36
ATOM     35  C   UNL     1       8.960  -4.744  -2.902  0.00  0.00    +0.048 C 
ATOM     36  C   UNL     1       7.616  -5.321  -2.453  0.00  0.00    +0.225 C 
ENDBRANCH  34  36
ENDBRANCH  28  34
ENDBRANCH  23  31
ENDBRANCH  22  26
ENDBRANCH  21  22
ENDBRANCH   1  21
TORSDOF 10
