REMARK  Name = ZINC13205562
REMARK  13 active torsions:
REMARK  status: ('A' for Active; 'I' for Inactive)
REMARK    1  A    between atoms: C_1  and  C_2
REMARK    2  A    between atoms: C_5  and  C_8
REMARK    3  A    between atoms: C_11  and  S_17
REMARK    4  A    between atoms: N_12  and  C_13
REMARK    5  A    between atoms: C_13  and  C_14
REMARK    6  A    between atoms: S_17  and  C_18
REMARK    7  A    between atoms: C_18  and  C_19
REMARK    8  A    between atoms: C_19  and  C_21
REMARK    9  A    between atoms: C_22  and  C_32
REMARK   10  A    between atoms: C_23  and  C_28
REMARK   11  A    between atoms: C_24  and  C_27
REMARK   12  A    between atoms: C_28  and  O_30
REMARK   13  A    between atoms: O_30  and  C_31
REMARK                            x       y       z     vdW  Elec       q    Type
REMARK                         _______ _______ _______ _____ _____    ______ ____
ROOT
ATOM      1  C   UNL     1       0.005  -4.253  -0.001  0.00  0.00    +0.165 A 
ATOM      2  N   UNL     1      -0.324  -5.032  -1.006  0.00  0.00    -0.128 NA
ATOM      3  N   UNL     1      -0.120  -6.261  -0.694  0.00  0.00    -0.122 NA
ATOM      4  C   UNL     1       0.352  -6.344   0.530  0.00  0.00    +0.193 A 
ATOM      5  N   UNL     1       0.453  -5.070   1.012  0.00  0.00    -0.291 N 
ENDROOT
BRANCH   1  10
ATOM      6  C   UNL     1      -0.342   1.489   0.133  0.00  0.00    +0.044 C 
ATOM      7  C   UNL     1      -0.251  -0.015   0.098  0.00  0.00    -0.050 A 
ATOM      8  C   UNL     1      -0.233  -0.675  -1.118  0.00  0.00    +0.004 A 
ATOM      9  C   UNL     1      -0.150  -2.052  -1.157  0.00  0.00    +0.012 A 
ATOM     10  C   UNL     1      -0.084  -2.778   0.033  0.00  0.00    +0.019 A 
ATOM     11  C   UNL     1      -0.102  -2.105   1.256  0.00  0.00    +0.012 A 
ATOM     12  C   UNL     1      -0.180  -0.728   1.281  0.00  0.00    +0.004 A 
ENDBRANCH   1  10
BRANCH   5  13
ATOM     13  C   UNL     1       0.934  -4.658   2.333  0.00  0.00    +0.250 C 
BRANCH  13  14
ATOM     14  C   UNL     1      -0.214  -4.656   3.308  0.00  0.00    +0.375 C 
ATOM     15  O   UNL     1      -1.332  -4.969   2.935  0.00  0.00    -0.244 OA
ATOM     16  O   UNL     1      -0.026  -4.341   4.471  0.00  0.00    -0.244 OA
ENDBRANCH  13  14
ENDBRANCH   5  13
BRANCH   4  17
ATOM     17  S   UNL     1       0.781  -7.822   1.388  0.00  0.00    -0.078 S 
BRANCH  17  18
ATOM     18  C   UNL     1       0.419  -9.141   0.197  0.00  0.00    +0.158 C 
BRANCH  18  19
ATOM     19  C   UNL     1       0.745 -10.477   0.812  0.00  0.00    +0.190 C 
ATOM     20  O   UNL     1       1.180 -10.534   1.945  0.00  0.00    -0.290 OA
BRANCH  19  21
ATOM     21  C   UNL     1       0.545 -11.666   0.070  0.00  0.00    +0.087 A 
ATOM     22  C   UNL     1       0.796 -12.948   0.512  0.00  0.00    -0.008 A 
ATOM     23  C   UNL     1       0.456 -13.818  -0.547  0.00  0.00    +0.083 A 
ATOM     24  C   UNL     1       0.010 -13.032  -1.595  0.00  0.00    +0.028 A 
ATOM     25  N   UNL     1       0.060 -11.745  -1.219  0.00  0.00    -0.355 N 
ATOM     26  H   UNL     1      -0.202 -10.989  -1.768  0.00  0.00    +0.166 HD
ATOM     27  C   UNL     1      -0.460 -13.538  -2.934  0.00  0.00    +0.064 C 
ATOM     28  C   UNL     1       1.331 -13.344   1.864  0.00  0.00    +0.047 C 
BRANCH  23  29
ATOM     29  C   UNL     1       0.557 -15.287  -0.537  0.00  0.00    +0.341 C 
ATOM     30  O   UNL     1      -0.385 -15.958  -0.164  0.00  0.00    -0.245 OA
BRANCH  29  31
ATOM     31  O   UNL     1       1.694 -15.887  -0.942  0.00  0.00    -0.464 OA
ATOM     32  C   UNL     1       1.721 -17.315  -0.907  0.00  0.00    +0.280 C 
ENDBRANCH  29  31
ENDBRANCH  23  29
ENDBRANCH  19  21
ENDBRANCH  18  19
ENDBRANCH  17  18
ENDBRANCH   4  17
TORSDOF 9
