REMARK  Name = ZINC59193789
REMARK  5 active torsions:
REMARK  status: ('A' for Active; 'I' for Inactive)
REMARK    1  A    between atoms: C_1  and  C_2
REMARK    2  A    between atoms: C_3  and  C_19
REMARK    3  A    between atoms: N_7  and  N_8
REMARK    4  A    between atoms: C_9  and  C_10
REMARK    5  A    between atoms: C_13  and  N_16
REMARK                            x       y       z     vdW  Elec       q    Type
REMARK                         _______ _______ _______ _____ _____    ______ ____
ROOT
ATOM      1  C   UNL     1      -0.018   1.503   0.010  0.00  0.00    +0.054 C 
ATOM      2  C   UNL     1       0.002  -0.004   0.002  0.00  0.00    +0.016 A 
ATOM      3  C   UNL     1      -1.130  -0.946   0.002  0.00  0.00    +0.083 A 
ATOM      4  N   UNL     1      -0.839  -2.215  -0.007  0.00  0.00    -0.223 NA
ATOM      5  C   UNL     1       0.442  -2.594  -0.015  0.00  0.00    +0.179 A 
ATOM      6  S   UNL     1       1.325  -1.045  -0.017  0.00  0.00    -0.055 S 
ATOM      7  N   UNL     1       0.942  -3.838  -0.024  0.00  0.00    -0.215 N 
ATOM      8  H   UNL     1       0.344  -4.601  -0.026  0.00  0.00    +0.176 HD
ENDROOT
BRANCH   3   9
ATOM      9  C   UNL     1      -2.527  -0.474   0.011  0.00  0.00    +0.001 A 
ATOM     10  C   UNL     1      -2.872   0.690   0.710  0.00  0.00    +0.010 A 
ATOM     11  C   UNL     1      -4.180   1.124   0.714  0.00  0.00    +0.001 A 
ATOM     12  C   UNL     1      -5.152   0.412   0.029  0.00  0.00    +0.000 A 
ATOM     13  C   UNL     1      -4.819  -0.740  -0.664  0.00  0.00    +0.001 A 
ATOM     14  C   UNL     1      -3.515  -1.185  -0.683  0.00  0.00    +0.010 A 
ENDBRANCH   3   9
BRANCH   7  15
ATOM     15  N   UNL     1       2.220  -4.019  -0.031  0.00  0.00    -0.188 NA
ATOM     16  C   UNL     1       2.712  -5.243  -0.040  0.00  0.00    +0.138 C 
BRANCH  16  17
ATOM     17  C   UNL     1       4.159  -5.449  -0.048  0.00  0.00    -0.005 A 
ATOM     18  C   UNL     1       5.031  -4.346  -0.040  0.00  0.00    +0.012 A 
ATOM     19  C   UNL     1       6.392  -4.551  -0.046  0.00  0.00    +0.033 A 
ATOM     20  C   UNL     1       6.904  -5.839  -0.062  0.00  0.00    +0.126 A 
ATOM     21  C   UNL     1       6.053  -6.934  -0.070  0.00  0.00    +0.033 A 
ATOM     22  C   UNL     1       4.689  -6.751  -0.058  0.00  0.00    +0.012 A 
BRANCH  20  23
ATOM     23  N   UNL     1       8.369  -6.048  -0.069  0.00  0.00    +0.056 N 
ATOM     24  O   UNL     1       9.182  -5.011  -0.061  0.00  0.00    -0.126 OA
ATOM     25  O   UNL     1       8.861  -7.269  -0.083  0.00  0.00    -0.126 OA
ENDBRANCH  20  23
ENDBRANCH  16  17
ENDBRANCH   7  15
TORSDOF 4
