REMARK  Name = ZINC08343579
REMARK  8 active torsions:
REMARK  status: ('A' for Active; 'I' for Inactive)
REMARK    1  A    between atoms: C_1  and  C_2
REMARK    2  A    between atoms: C_3  and  C_26
REMARK    3  A    between atoms: C_4  and  C_23
REMARK    4  A    between atoms: C_5  and  S_9
REMARK    5  A    between atoms: C_7  and  C_8
REMARK    6  A    between atoms: S_9  and  C_10
REMARK    7  A    between atoms: C_10  and  C_11
REMARK    8  A    between atoms: N_13  and  C_14
REMARK                            x       y       z     vdW  Elec       q    Type
REMARK                         _______ _______ _______ _____ _____    ______ ____
ROOT
ATOM      1  S   UNL     1       6.945  -3.493   4.274  0.00  0.00    -0.096 S 
ENDROOT
BRANCH   1   6
ATOM      2  C   UNL     1      12.387  -2.726   6.684  0.00  0.00    +0.046 C 
ATOM      3  C   UNL     1      11.021  -2.964   6.096  0.00  0.00    -0.026 A 
ATOM      4  C   UNL     1      10.398  -4.190   6.254  0.00  0.00    -0.031 A 
ATOM      5  C   UNL     1       9.126  -4.367   5.697  0.00  0.00    +0.071 A 
ATOM      6  C   UNL     1       8.542  -3.299   4.993  0.00  0.00    +0.110 A 
ATOM      7  N   UNL     1       9.183  -2.146   4.872  0.00  0.00    -0.245 NA
ATOM      8  C   UNL     1      10.379  -1.959   5.394  0.00  0.00    +0.043 A 
ATOM      9  C   UNL     1      11.060  -0.625   5.224  0.00  0.00    +0.066 C 
ATOM     10  C   UNL     1      11.070  -5.305   7.013  0.00  0.00    +0.045 C 
BRANCH   5  11
ATOM     11  C   UNL     1       8.416  -5.650   5.841  0.00  0.00    +0.244 C 
ATOM     12  O   UNL     1       8.566  -6.524   5.010  0.00  0.00    -0.270 OA
ATOM     13  N   UNL     1       7.600  -5.854   6.894  0.00  0.00    -0.325 N 
ATOM     14  H   UNL     1       7.480  -5.156   7.558  0.00  0.00    +0.145 HD
ATOM     15  H   UNL     1       7.132  -6.699   6.989  0.00  0.00    +0.145 HD
ENDBRANCH   5  11
ENDBRANCH   1   6
BRANCH   1  16
ATOM     16  C   UNL     1       6.728  -1.853   3.541  0.00  0.00    +0.171 C 
BRANCH  16  17
ATOM     17  C   UNL     1       5.391  -1.783   2.851  0.00  0.00    +0.227 C 
ATOM     18  O   UNL     1       4.656  -2.748   2.854  0.00  0.00    -0.275 OA
ATOM     19  N   UNL     1       5.011  -0.649   2.229  0.00  0.00    -0.285 N 
ATOM     20  H   UNL     1       5.628   0.096   2.160  0.00  0.00    +0.155 HD
BRANCH  19  21
ATOM     21  C   UNL     1       3.725  -0.547   1.683  0.00  0.00    +0.037 A 
ATOM     22  C   UNL     1       2.657  -1.191   2.295  0.00  0.00    +0.027 A 
ATOM     23  C   UNL     1       1.388  -1.090   1.758  0.00  0.00    +0.051 A 
ATOM     24  C   UNL     1       1.177  -0.347   0.608  0.00  0.00    +0.166 A 
ATOM     25  C   UNL     1       2.246   0.301  -0.008  0.00  0.00    +0.168 A 
ATOM     26  C   UNL     1       3.517   0.199   0.531  0.00  0.00    +0.072 A 
ATOM     27  O   UNL     1       1.781   0.958  -1.110  0.00  0.00    -0.453 OA
ATOM     28  C   UNL     1       0.354   1.044  -0.934  0.00  0.00    +0.466 C 
ATOM     29  O   UNL     1       0.042  -0.094  -0.110  0.00  0.00    -0.453 OA
ENDBRANCH  19  21
ENDBRANCH  16  17
ENDBRANCH   1  16
TORSDOF 5
