REMARK  Name = ZINC12636782
REMARK  5 active torsions:
REMARK  status: ('A' for Active; 'I' for Inactive)
REMARK    1  A    between atoms: C_6  and  C_7
REMARK    2  A    between atoms: C_9  and  C_12
REMARK    3  A    between atoms: C_12  and  N_13
REMARK    4  A    between atoms: C_14  and  C_16
REMARK    5  A    between atoms: C_21  and  N_22
REMARK                            x       y       z     vdW  Elec       q    Type
REMARK                         _______ _______ _______ _____ _____    ______ ____
ROOT
ATOM      1  N   UNL     1       3.961  -0.118   1.334  0.00  0.00    -0.306 N 
ATOM      2  C   UNL     1       5.288  -0.155   1.564  0.00  0.00    +0.247 C 
ATOM      3  O   UNL     1       6.068  -0.123   0.632  0.00  0.00    -0.270 OA
ATOM      4  H   UNL     1       3.339  -0.144   2.078  0.00  0.00    +0.149 HD
ENDROOT
BRANCH   2   5
ATOM      5  C   UNL     1       5.796  -0.235   2.951  0.00  0.00    +0.068 A 
ATOM      6  C   UNL     1       4.913  -0.135   4.027  0.00  0.00    +0.035 A 
ATOM      7  C   UNL     1       5.394  -0.211   5.319  0.00  0.00    +0.042 A 
ATOM      8  C   UNL     1       6.748  -0.385   5.548  0.00  0.00    +0.022 A 
ATOM      9  C   UNL     1       7.628  -0.485   4.484  0.00  0.00    +0.035 A 
ATOM     10  C   UNL     1       7.159  -0.416   3.188  0.00  0.00    +0.138 A 
ATOM     11 CL   UNL     1       4.298  -0.088   6.660  0.00  0.00    -0.084 Cl
BRANCH  10  12
ATOM     12  N   UNL     1       8.101  -0.528   2.052  0.00  0.00    +0.057 N 
ATOM     13  O   UNL     1       7.876  -1.313   1.149  0.00  0.00    -0.126 OA
ATOM     14  O   UNL     1       9.102   0.165   2.021  0.00  0.00    -0.126 OA
ENDBRANCH  10  12
ENDBRANCH   2   5
BRANCH   1  15
ATOM     15  C   UNL     1       3.458  -0.039  -0.040  0.00  0.00    +0.163 C 
BRANCH  15  18
ATOM     16  C   UNL     1      -0.141   0.627  -0.021  0.00  0.00    +0.168 A 
ATOM     17  C   UNL     1       1.129   1.134  -0.054  0.00  0.00    +0.077 A 
ATOM     18  C   UNL     1       1.951  -0.011  -0.022  0.00  0.00    +0.101 A 
ATOM     19  N   UNL     1       1.154  -1.040   0.025  0.00  0.00    -0.081 NA
ATOM     20  O   UNL     1      -0.009  -0.710   0.027  0.00  0.00    -0.354 OA
BRANCH  16  26
ATOM     21  C   UNL     1      -1.376   2.790  -0.085  0.00  0.00    +0.014 A 
ATOM     22  C   UNL     1      -2.557   3.501  -0.106  0.00  0.00    +0.039 A 
ATOM     23  C   UNL     1      -3.771   2.833  -0.073  0.00  0.00    +0.123 A 
ATOM     24  C   UNL     1      -3.805   1.449  -0.023  0.00  0.00    +0.039 A 
ATOM     25  C   UNL     1      -2.630   0.728  -0.005  0.00  0.00    +0.014 A 
ATOM     26  C   UNL     1      -1.404   1.395  -0.039  0.00  0.00    +0.020 A 
ATOM     27  F   UNL     1      -4.926   3.535  -0.090  0.00  0.00    -0.205 F 
ENDBRANCH  16  26
ENDBRANCH  15  18
ENDBRANCH   1  15
TORSDOF 5
