REMARK  Name = ZINC09052258
REMARK  15 active torsions:
REMARK  status: ('A' for Active; 'I' for Inactive)
REMARK    1  A    between atoms: C_1  and  C_2
REMARK    2  A    between atoms: C_2  and  O_3
REMARK    3  A    between atoms: O_3  and  C_4
REMARK    4  A    between atoms: C_4  and  C_6
REMARK    5  A    between atoms: C_11  and  N_12
REMARK    6  A    between atoms: C_13  and  C_15
REMARK    7  A    between atoms: C_15  and  O_16
REMARK    8  A    between atoms: O_16  and  C_17
REMARK    9  A    between atoms: C_17  and  C_19
REMARK   10  A    between atoms: C_19  and  C_21
REMARK   11  A    between atoms: C_19  and  N_25
REMARK   12  A    between atoms: C_21  and  C_23
REMARK   13  A    between atoms: C_21  and  O_24
REMARK   14  A    between atoms: N_25  and  S_26
REMARK   15  A    between atoms: S_26  and  C_29
REMARK                            x       y       z     vdW  Elec       q    Type
REMARK                         _______ _______ _______ _____ _____    ______ ____
ROOT
ATOM      1  C   UNL     1       0.628   1.192   0.309  0.00  0.00    +0.329 C 
ATOM      2  O   UNL     1       1.698   1.745   0.220  0.00  0.00    -0.249 OA
ENDROOT
BRANCH   1   3
ATOM      3  O   UNL     1      -0.495   1.917   0.431  0.00  0.00    -0.454 OA
BRANCH   3   4
ATOM      4  C   UNL     1      -0.347   3.361   0.456  0.00  0.00    +0.328 C 
BRANCH   4   6
ATOM      5  N   UNL     1      -1.812   5.345   0.643  0.00  0.00    -0.282 N 
ATOM      6  C   UNL     1      -1.703   4.003   0.597  0.00  0.00    +0.255 C 
ATOM      7  O   UNL     1      -2.697   3.311   0.670  0.00  0.00    -0.272 OA
ATOM      8  H   UNL     1      -1.028   5.900   0.511  0.00  0.00    +0.155 HD
BRANCH   5  14
ATOM      9  C   UNL     1      -3.381   7.153   0.264  0.00  0.00    +0.080 A 
ATOM     10  C   UNL     1      -4.628   7.734   0.509  0.00  0.00    +0.017 A 
ATOM     11  C   UNL     1      -5.523   7.112   1.351  0.00  0.00    +0.001 A 
ATOM     12  C   UNL     1      -5.194   5.910   1.957  0.00  0.00    +0.002 A 
ATOM     13  C   UNL     1      -3.969   5.320   1.720  0.00  0.00    +0.024 A 
ATOM     14  C   UNL     1      -3.051   5.936   0.879  0.00  0.00    +0.048 A 
BRANCH   9  15
ATOM     15  C   UNL     1      -2.419   7.813  -0.637  0.00  0.00    +0.341 C 
ATOM     16  O   UNL     1      -1.382   7.254  -0.933  0.00  0.00    -0.245 OA
BRANCH  15  17
ATOM     17  O   UNL     1      -2.690   9.037  -1.131  0.00  0.00    -0.461 OA
BRANCH  17  19
ATOM     18  C   UNL     1      -2.176  11.006  -2.469  0.00  0.00    +0.048 C 
ATOM     19  C   UNL     1      -1.697   9.627  -2.011  0.00  0.00    +0.229 C 
ENDBRANCH  17  19
ENDBRANCH  15  17
ENDBRANCH   9  15
ENDBRANCH   5  14
ENDBRANCH   4   6
ENDBRANCH   3   4
ENDBRANCH   1   3
BRANCH   1  20
ATOM     20  C   UNL     1       0.553  -0.313   0.276  0.00  0.00    +0.213 C 
BRANCH  20  21
ATOM     21  C   UNL     1      -0.310  -0.755  -0.908  0.00  0.00    +0.141 C 
ATOM     22  C   UNL     1      -0.263  -2.279  -1.033  0.00  0.00    +0.040 C 
BRANCH  21  23
ATOM     23  O   UNL     1      -1.660  -0.336  -0.696  0.00  0.00    -0.390 OA
ATOM     24  H   UNL     1      -1.765   0.621  -0.608  0.00  0.00    +0.210 HD
ENDBRANCH  21  23
ENDBRANCH  20  21
BRANCH  20  25
ATOM     25  N   UNL     1       1.902  -0.866   0.130  0.00  0.00    -0.174 NA
ATOM     26  H   UNL     1       2.311  -0.921  -0.747  0.00  0.00    +0.149 HD
BRANCH  25  27
ATOM     27  S   UNL     1       2.727  -1.398   1.464  0.00  0.00    +0.059 S 
ATOM     28  O   UNL     1       3.961  -1.924   0.995  0.00  0.00    -0.153 OA
ATOM     29  O   UNL     1       2.659  -0.355   2.426  0.00  0.00    -0.153 OA
BRANCH  27  30
ATOM     30  C   UNL     1       1.821  -2.756   2.129  0.00  0.00    +0.105 A 
ATOM     31  C   UNL     1       0.780  -2.527   3.009  0.00  0.00    +0.031 A 
ATOM     32  C   UNL     1       0.066  -3.590   3.528  0.00  0.00    +0.040 A 
ATOM     33  C   UNL     1       0.401  -4.886   3.174  0.00  0.00    +0.124 A 
ATOM     34  C   UNL     1       1.448  -5.115   2.297  0.00  0.00    +0.040 A 
ATOM     35  C   UNL     1       2.157  -4.049   1.775  0.00  0.00    +0.031 A 
ATOM     36  F   UNL     1      -0.293  -5.927   3.684  0.00  0.00    -0.205 F 
ENDBRANCH  27  30
ENDBRANCH  25  27
ENDBRANCH  20  25
ENDBRANCH   1  20
TORSDOF 13
