REMARK  Name = ZINC59957970
REMARK  7 active torsions:
REMARK  status: ('A' for Active; 'I' for Inactive)
REMARK    1  A    between atoms: C_1  and  C_2
REMARK    2  A    between atoms: C_11  and  O_13
REMARK    3  A    between atoms: O_13  and  C_14
REMARK    4  A    between atoms: C_14  and  C_15
REMARK    5  A    between atoms: N_17  and  N_18
REMARK    6  A    between atoms: C_19  and  C_20
REMARK    7  A    between atoms: C_24  and  N_27
REMARK                            x       y       z     vdW  Elec       q    Type
REMARK                         _______ _______ _______ _____ _____    ______ ____
ROOT
ATOM      1  C   UNL     1       0.111  -3.159   7.139  0.00  0.00    +0.270 C 
ATOM      2  O   UNL     1       0.126  -4.356   6.944  0.00  0.00    -0.270 OA
ATOM      3  N   UNL     1       0.116  -2.681   8.399  0.00  0.00    -0.204 N 
ATOM      4  H   UNL     1       0.104  -1.724   8.555  0.00  0.00    +0.177 HD
ENDROOT
BRANCH   3   5
ATOM      5  N   UNL     1       0.139  -3.567   9.484  0.00  0.00    -0.188 NA
ATOM      6  C   UNL     1       0.143  -3.107  10.698  0.00  0.00    +0.142 C 
BRANCH   6   7
ATOM      7  C   UNL     1       0.167  -4.039  11.839  0.00  0.00    +0.045 A 
ATOM      8  C   UNL     1       0.166  -3.549  13.147  0.00  0.00    +0.028 A 
ATOM      9  C   UNL     1       0.189  -4.427  14.211  0.00  0.00    +0.021 A 
ATOM     10  C   UNL     1       0.211  -5.794  13.987  0.00  0.00    +0.052 A 
ATOM     11  C   UNL     1       0.212  -6.291  12.698  0.00  0.00    +0.174 A 
ATOM     12  C   UNL     1       0.184  -5.423  11.618  0.00  0.00    +0.218 A 
ATOM     13  O   UNL     1       0.179  -5.912  10.351  0.00  0.00    -0.285 OA
ATOM     14 BR   UNL     1       0.188  -3.762  15.981  0.00  0.00    -0.050 Br
BRANCH  11  15
ATOM     15  N   UNL     1       0.237  -7.753  12.470  0.00  0.00    +0.060 N 
ATOM     16  O   UNL     1       0.257  -8.512  13.411  0.00  0.00    -0.126 OA
ATOM     17  O   UNL     1       0.238  -8.190  11.342  0.00  0.00    -0.126 OA
ENDBRANCH  11  15
ENDBRANCH   6   7
ENDBRANCH   3   5
BRANCH   1  18
ATOM     18  C   UNL     1       0.087  -2.206   5.972  0.00  0.00    +0.326 C 
BRANCH  18  19
ATOM     19  O   UNL     1       0.086  -2.948   4.751  0.00  0.00    -0.483 OA
BRANCH  19  30
ATOM     20  C   UNL     1      -0.018   1.503   0.010  0.00  0.00    +0.045 C 
ATOM     21  C   UNL     1       0.002  -0.004   0.002  0.00  0.00    -0.033 A 
ATOM     22  C   UNL     1       0.006  -0.695  -1.167  0.00  0.00    +0.096 A 
ATOM     23  C   UNL     1       0.026  -2.105  -1.149  0.00  0.00    +0.337 A 
ATOM     24  O   UNL     1       0.030  -2.712  -2.204  0.00  0.00    -0.245 OA
ATOM     25  O   UNL     1       0.041  -2.795   0.003  0.00  0.00    -0.422 OA
ATOM     26  C   UNL     1       0.038  -2.169   1.199  0.00  0.00    +0.143 A 
ATOM     27  C   UNL     1       0.024  -0.763   1.254  0.00  0.00    +0.021 A 
ATOM     28  C   UNL     1       0.026  -0.111   2.492  0.00  0.00    +0.015 A 
ATOM     29  C   UNL     1       0.046  -0.842   3.644  0.00  0.00    +0.046 A 
ATOM     30  C   UNL     1       0.066  -2.234   3.596  0.00  0.00    +0.125 A 
ATOM     31  C   UNL     1       0.053  -2.897   2.379  0.00  0.00    +0.092 A 
ENDBRANCH  19  30
ENDBRANCH  18  19
ENDBRANCH   1  18
TORSDOF 6
