REMARK  Name = ZINC39732213
REMARK  11 active torsions:
REMARK  status: ('A' for Active; 'I' for Inactive)
REMARK    1  A    between atoms: C_1  and  C_2
REMARK    2  A    between atoms: C_2  and  C_3
REMARK    3  A    between atoms: C_4  and  C_34
REMARK    4  A    between atoms: C_12  and  S_13
REMARK    5  A    between atoms: S_13  and  C_14
REMARK    6  A    between atoms: C_14  and  C_15
REMARK    7  A    between atoms: N_17  and  C_18
REMARK    8  A    between atoms: C_20  and  C_29
REMARK    9  A    between atoms: C_29  and  O_31
REMARK   10  A    between atoms: O_31  and  C_32
REMARK   11  A    between atoms: C_32  and  C_33
REMARK                            x       y       z     vdW  Elec       q    Type
REMARK                         _______ _______ _______ _____ _____    ______ ____
ROOT
ATOM      1  C   UNL     1      -5.497  -2.967  -5.648  0.00  0.00    +0.224 C 
ATOM      2  O   UNL     1      -4.489  -2.484  -6.118  0.00  0.00    -0.275 OA
ATOM      3  N   UNL     1      -6.508  -3.337  -6.460  0.00  0.00    -0.301 N 
ATOM      4  H   UNL     1      -7.315  -3.724  -6.084  0.00  0.00    +0.150 HD
ENDROOT
BRANCH   3   5
ATOM      5  C   UNL     1      -6.389  -3.155  -7.908  0.00  0.00    +0.153 C 
ATOM      6  C   UNL     1      -6.757  -4.448  -8.675  0.00  0.00    +0.155 C 
ATOM      7  C   UNL     1      -5.867  -4.654  -9.875  0.00  0.00    -0.044 C 
ATOM      8  C   UNL     1      -4.716  -3.994  -9.908  0.00  0.00    -0.013 C 
ATOM      9  S   UNL     1      -4.628  -3.010  -8.429  0.00  0.00    -0.106 S 
ATOM     10  C   UNL     1      -3.671  -4.053 -10.987  0.00  0.00    +0.042 C 
ATOM     11  C   UNL     1      -3.952  -5.265 -11.883  0.00  0.00    +0.005 C 
ATOM     12  C   UNL     1      -5.439  -5.261 -12.252  0.00  0.00    +0.005 C 
ATOM     13  C   UNL     1      -6.272  -5.590 -11.013  0.00  0.00    +0.032 C 
BRANCH   6  14
ATOM     14  C   UNL     1      -8.188  -4.356  -9.137  0.00  0.00    +0.317 C 
ATOM     15  O   UNL     1      -8.641  -3.294  -9.495  0.00  0.00    -0.250 OA
BRANCH  14  16
ATOM     16  O   UNL     1      -8.961  -5.453  -9.151  0.00  0.00    -0.464 OA
BRANCH  16  17
ATOM     17  C   UNL     1     -10.308  -5.292  -9.601  0.00  0.00    +0.229 C 
ATOM     18  C   UNL     1     -11.028  -6.641  -9.547  0.00  0.00    +0.048 C 
ENDBRANCH  16  17
ENDBRANCH  14  16
ENDBRANCH   6  14
ENDBRANCH   3   5
BRANCH   1  19
ATOM     19  C   UNL     1      -5.620  -3.154  -4.158  0.00  0.00    +0.173 C 
BRANCH  19  20
ATOM     20  S   UNL     1      -4.108  -2.565  -3.348  0.00  0.00    -0.076 S 
BRANCH  20  30
ATOM     21  C   UNL     1      -1.711  -1.875   0.671  0.00  0.00    +0.038 A 
ATOM     22  C   UNL     1      -2.296  -2.023  -0.538  0.00  0.00    +0.034 A 
ATOM     23  N   UNL     1      -3.549  -2.566  -0.607  0.00  0.00    -0.259 N 
ATOM     24  C   UNL     1      -4.201  -2.955   0.544  0.00  0.00    +0.260 A 
ATOM     25  N   UNL     1      -3.610  -2.804   1.739  0.00  0.00    -0.171 NA
ATOM     26  C   UNL     1      -2.402  -2.288   1.831  0.00  0.00    +0.278 A 
ATOM     27  O   UNL     1      -1.820  -2.148   3.046  0.00  0.00    -0.265 OA
ATOM     28  N   UNL     1      -5.373  -3.435   0.172  0.00  0.00    -0.107 NA
ATOM     29  N   UNL     1      -5.486  -3.370  -1.107  0.00  0.00    -0.120 NA
ATOM     30  C   UNL     1      -4.404  -2.848  -1.635  0.00  0.00    +0.198 A 
ATOM     31  C   UNL     1      -1.579  -1.596  -1.792  0.00  0.00    +0.064 C 
BRANCH  21  33
ATOM     32  C   UNL     1      -0.443   0.220   1.065  0.00  0.00    +0.009 C 
ATOM     33  C   UNL     1      -0.331  -1.279   0.780  0.00  0.00    +0.039 C 
ENDBRANCH  21  33
ENDBRANCH  20  30
ENDBRANCH  19  20
ENDBRANCH   1  19
TORSDOF 8
