REMARK  Name = ZINC12178202
REMARK  12 active torsions:
REMARK  status: ('A' for Active; 'I' for Inactive)
REMARK    1  A    between atoms: C_1  and  C_2
REMARK    2  A    between atoms: C_5  and  C_8
REMARK    3  A    between atoms: C_10  and  C_18
REMARK    4  A    between atoms: C_12  and  C_17
REMARK    5  A    between atoms: C_18  and  O_20
REMARK    6  A    between atoms: O_20  and  C_21
REMARK    7  A    between atoms: C_21  and  C_23
REMARK    8  A    between atoms: C_21  and  C_24
REMARK    9  A    between atoms: N_29  and  C_30
REMARK   10  A    between atoms: C_30  and  C_31
REMARK   11  A    between atoms: C_30  and  C_32
REMARK   12  A    between atoms: C_30  and  C_33
REMARK                            x       y       z     vdW  Elec       q    Type
REMARK                         _______ _______ _______ _____ _____    ______ ____
ROOT
ATOM      1  C   UNL     1      -0.984  -4.602  -0.264  0.00  0.00    +0.076 A 
ATOM      2  C   UNL     1      -1.090  -5.334   0.922  0.00  0.00    +0.044 A 
ATOM      3  C   UNL     1      -0.344  -6.501   1.065  0.00  0.00    +0.075 A 
ATOM      4  C   UNL     1       0.489  -6.888  -0.005  0.00  0.00    +0.077 A 
ATOM      5  C   UNL     1       1.396  -8.013  -0.228  0.00  0.00    +0.091 A 
ATOM      6  N   UNL     1       1.912  -7.866  -1.410  0.00  0.00    -0.080 NA
ATOM      7  O   UNL     1       1.402  -6.692  -2.010  0.00  0.00    -0.334 OA
ATOM      8  C   UNL     1       0.539  -6.095  -1.164  0.00  0.00    +0.260 A 
ATOM      9  N   UNL     1      -0.195  -4.997  -1.250  0.00  0.00    -0.210 NA
ATOM     10  C   UNL     1       1.680  -9.135   0.737  0.00  0.00    +0.070 C 
ENDROOT
BRANCH   1  15
ATOM     11  C   UNL     1      -4.062   0.226  -0.877  0.00  0.00    +0.044 C 
ATOM     12  C   UNL     1      -3.256  -1.038  -0.717  0.00  0.00    -0.050 A 
ATOM     13  C   UNL     1      -2.428  -1.461  -1.740  0.00  0.00    +0.004 A 
ATOM     14  C   UNL     1      -1.688  -2.617  -1.599  0.00  0.00    +0.010 A 
ATOM     15  C   UNL     1      -1.776  -3.359  -0.421  0.00  0.00    +0.001 A 
ATOM     16  C   UNL     1      -2.612  -2.927   0.607  0.00  0.00    +0.010 A 
ATOM     17  C   UNL     1      -3.344  -1.766   0.456  0.00  0.00    +0.004 A 
ENDBRANCH   1  15
BRANCH   3  18
ATOM     18  C   UNL     1      -0.424  -7.309   2.302  0.00  0.00    +0.341 C 
ATOM     19  O   UNL     1      -0.350  -8.520   2.241  0.00  0.00    -0.245 OA
BRANCH  18  20
ATOM     20  O   UNL     1      -0.577  -6.703   3.494  0.00  0.00    -0.449 OA
BRANCH  20  21
ATOM     21  C   UNL     1      -0.646  -7.545   4.647  0.00  0.00    +0.259 C 
ATOM     22  C   UNL     1       0.762  -7.766   5.202  0.00  0.00    +0.062 C 
BRANCH  21  23
ATOM     23  C   UNL     1      -1.503  -6.888   5.698  0.00  0.00    +0.261 C 
ATOM     24  O   UNL     1      -2.005  -5.806   5.482  0.00  0.00    -0.271 OA
ATOM     25  N   UNL     1      -1.711  -7.504   6.879  0.00  0.00    -0.237 N 
ATOM     26  C   UNL     1      -2.478  -6.917   7.819  0.00  0.00    +0.306 C 
ATOM     27  O   UNL     1      -2.981  -5.832   7.603  0.00  0.00    -0.252 OA
ATOM     28  N   UNL     1      -2.686  -7.533   9.000  0.00  0.00    -0.294 N 
ATOM     29  H   UNL     1      -1.310  -8.370   7.052  0.00  0.00    +0.159 HD
ATOM     30  H   UNL     1      -2.284  -8.399   9.173  0.00  0.00    +0.151 HD
BRANCH  28  31
ATOM     31  C   UNL     1      -3.519  -6.895  10.022  0.00  0.00    +0.028 C 
ATOM     32  C   UNL     1      -4.928  -6.674   9.467  0.00  0.00    +0.031 C 
ATOM     33  C   UNL     1      -3.593  -7.797  11.256  0.00  0.00    +0.031 C 
ATOM     34  C   UNL     1      -2.907  -5.548  10.411  0.00  0.00    +0.031 C 
ENDBRANCH  28  31
ENDBRANCH  21  23
ENDBRANCH  20  21
ENDBRANCH  18  20
ENDBRANCH   3  18
TORSDOF 6
