REMARK  Name = ZINC63695416
REMARK  4 active torsions:
REMARK  status: ('A' for Active; 'I' for Inactive)
REMARK    1  A    between atoms: C_6  and  C_7
REMARK    2  A    between atoms: C_7  and  N_8
REMARK    3  A    between atoms: C_9  and  C_11
REMARK    4  A    between atoms: N_14  and  C_17
REMARK                            x       y       z     vdW  Elec       q    Type
REMARK                         _______ _______ _______ _____ _____    ______ ____
ROOT
ATOM      1  C   UNL     1      -3.312  -1.942  -3.025  0.00  0.00    +0.077 C 
ATOM      2  C   UNL     1      -3.528  -0.604  -3.737  0.00  0.00    +0.028 C 
ATOM      3  C   UNL     1      -4.038  -0.862  -5.156  0.00  0.00    +0.089 C 
ATOM      4  N   UNL     1      -5.298  -1.613  -5.095  0.00  0.00    -0.266 NA
ATOM      5  C   UNL     1      -5.106  -2.922  -4.458  0.00  0.00    +0.089 C 
ATOM      6  C   UNL     1      -4.628  -2.725  -3.018  0.00  0.00    +0.028 C 
ENDROOT
BRANCH   4   7
ATOM      7  C   UNL     1      -5.889  -1.760  -6.432  0.00  0.00    +0.252 C 
ATOM      8  N   UNL     1      -7.179  -2.454  -6.340  0.00  0.00    -0.351 N 
ATOM      9  C   UNL     1      -7.084  -3.550  -7.035  0.00  0.00    +0.061 A 
ATOM     10  C   UNL     1      -8.029  -4.641  -7.316  0.00  0.00    +0.029 A 
ATOM     11  C   UNL     1      -7.642  -5.675  -8.088  0.00  0.00    +0.022 A 
ATOM     12  C   UNL     1      -6.353  -5.762  -8.648  0.00  0.00    +0.043 A 
ATOM     13  C   UNL     1      -5.410  -4.816  -8.452  0.00  0.00    +0.047 A 
ATOM     14  C   UNL     1      -5.721  -3.642  -7.627  0.00  0.00    +0.063 A 
ATOM     15  N   UNL     1      -5.026  -2.597  -7.275  0.00  0.00    -0.351 N 
ATOM     16 CL   UNL     1      -5.961  -7.140  -9.627  0.00  0.00    -0.083 Cl
ATOM     17  H   UNL     1      -7.960  -2.151  -5.850  0.00  0.00    +0.163 HD
ATOM     18  H   UNL     1      -4.108  -2.407  -7.524  0.00  0.00    +0.163 HD
ENDBRANCH   4   7
BRANCH   1  20
ATOM     19  N   UNL     1      -1.726  -1.017  -1.368  0.00  0.00    -0.311 N 
ATOM     20  C   UNL     1      -2.867  -1.693  -1.607  0.00  0.00    +0.216 C 
ATOM     21  O   UNL     1      -3.535  -2.101  -0.681  0.00  0.00    -0.276 OA
ATOM     22  H   UNL     1      -1.191  -0.691  -2.109  0.00  0.00    +0.149 HD
BRANCH  19  23
ATOM     23  C   UNL     1      -1.293  -0.775   0.010  0.00  0.00    +0.139 C 
BRANCH  23  29
ATOM     24  C   UNL     1      -0.017   1.378   0.010  0.00  0.00    +0.008 A 
ATOM     25  C   UNL     1       1.170   2.086   0.002  0.00  0.00    +0.038 A 
ATOM     26  C   UNL     1       2.379   1.410  -0.013  0.00  0.00    +0.123 A 
ATOM     27  C   UNL     1       2.396   0.026  -0.021  0.00  0.00    +0.038 A 
ATOM     28  C   UNL     1       1.208  -0.680  -0.013  0.00  0.00    +0.008 A 
ATOM     29  C   UNL     1       0.002  -0.004   0.002  0.00  0.00    -0.030 A 
ATOM     30  F   UNL     1       3.540   2.101  -0.021  0.00  0.00    -0.205 F 
ENDBRANCH  23  29
ENDBRANCH  19  23
ENDBRANCH   1  20
TORSDOF 4
