REMARK  Name = ZINC34785003
REMARK  9 active torsions:
REMARK  status: ('A' for Active; 'I' for Inactive)
REMARK    1  A    between atoms: C_1  and  C_2
REMARK    2  A    between atoms: C_2  and  O_3
REMARK    3  A    between atoms: O_3  and  C_4
REMARK    4  A    between atoms: C_4  and  C_6
REMARK    5  A    between atoms: C_10  and  N_11
REMARK    6  A    between atoms: N_17  and  C_20
REMARK    7  A    between atoms: C_20  and  C_21
REMARK    8  A    between atoms: C_25  and  C_27
REMARK    9  A    between atoms: C_25  and  C_28
REMARK                            x       y       z     vdW  Elec       q    Type
REMARK                         _______ _______ _______ _____ _____    ______ ____
ROOT
ATOM      1  C   UNL     1       1.448  -2.353  -2.514  0.00  0.00    +0.091 A 
ATOM      2  C   UNL     1       2.871  -2.628  -2.514  0.00  0.00    -0.016 A 
ATOM      3  C   UNL     1       3.341  -3.124  -3.682  0.00  0.00    +0.021 A 
ATOM      4  S   UNL     1       1.923  -3.215  -4.732  0.00  0.00    -0.075 S 
ATOM      5  C   UNL     1       0.750  -2.630  -3.682  0.00  0.00    +0.088 A 
ATOM      6  C   UNL     1       4.761  -3.495  -3.971  0.00  0.00    +0.203 C 
ATOM      7  O   UNL     1       5.581  -2.941  -2.929  0.00  0.00    -0.368 OA
ATOM      8  C   UNL     1       5.096  -3.211  -1.611  0.00  0.00    +0.068 C 
ATOM      9  C   UNL     1       3.818  -2.407  -1.343  0.00  0.00    +0.071 C 
ATOM     10  C   UNL     1       6.164  -2.821  -0.587  0.00  0.00    +0.041 C 
ATOM     11  C   UNL     1       4.792  -4.705  -1.478  0.00  0.00    +0.041 C 
ENDROOT
BRANCH   5  12
ATOM     12  N   UNL     1      -0.604  -2.459  -3.926  0.00  0.00    -0.263 N 
ATOM     13  C   UNL     1      -1.117  -2.783  -5.129  0.00  0.00    +0.307 C 
ATOM     14  O   UNL     1      -0.381  -3.137  -6.029  0.00  0.00    -0.252 OA
ATOM     15  N   UNL     1      -2.447  -2.714  -5.335  0.00  0.00    -0.289 N 
ATOM     16  C   UNL     1      -3.345  -2.175  -4.302  0.00  0.00    +0.091 C 
ATOM     17  C   UNL     1      -4.248  -1.118  -4.947  0.00  0.00    -0.059 C 
ATOM     18  N   UNL     1      -4.938  -1.704  -6.103  0.00  0.00    +0.384 N 
ATOM     19  C   UNL     1      -3.959  -2.071  -7.135  0.00  0.00    -0.059 C 
ATOM     20  C   UNL     1      -3.042  -3.170  -6.601  0.00  0.00    +0.091 C 
ATOM     21  H   UNL     1      -1.181  -2.108  -3.231  0.00  0.00    +0.157 HD
ATOM     22  H   UNL     1      -5.441  -2.528  -5.811  0.00  0.00    -0.081 HD
BRANCH  18  23
ATOM     23  C   UNL     1      -5.885  -0.726  -6.654  0.00  0.00    -0.052 C 
BRANCH  23  24
ATOM     24  C   UNL     1      -6.680  -1.365  -7.763  0.00  0.00    -0.053 C 
ATOM     25  C   UNL     1      -7.989  -1.358  -7.718  0.00  0.00    +0.002 C 
ENDBRANCH  23  24
ENDBRANCH  18  23
ENDBRANCH   5  12
BRANCH   1  26
ATOM     26  C   UNL     1       0.775  -1.814  -1.331  0.00  0.00    +0.342 C 
ATOM     27  O   UNL     1       0.310  -2.569  -0.498  0.00  0.00    -0.245 OA
BRANCH  26  28
ATOM     28  O   UNL     1       0.669  -0.479  -1.165  0.00  0.00    -0.461 OA
BRANCH  28  30
ATOM     29  C   UNL     1      -0.021   1.507   0.026  0.00  0.00    +0.048 C 
ATOM     30  C   UNL     1       0.000  -0.023   0.012  0.00  0.00    +0.229 C 
ENDBRANCH  28  30
ENDBRANCH  26  28
ENDBRANCH   1  26
TORSDOF 6
