REMARK  Name = ZINC00079905
REMARK  4 active torsions:
REMARK  status: ('A' for Active; 'I' for Inactive)
REMARK    1  A    between atoms: C_1  and  C_2
REMARK    2  A    between atoms: C_5  and  N_23
REMARK    3  A    between atoms: C_7  and  N_8
REMARK    4  A    between atoms: C_9  and  C_11
REMARK                            x       y       z     vdW  Elec       q    Type
REMARK                         _______ _______ _______ _____ _____    ______ ____
ROOT
ATOM      1  N   UNL     1      -1.199  -0.722   0.009  0.00  0.00    -0.285 N 
ATOM      2  C   UNL     1      -1.183  -2.065  -0.100  0.00  0.00    +0.221 C 
ATOM      3  O   UNL     1      -0.125  -2.659  -0.113  0.00  0.00    -0.275 OA
ATOM      4  H   UNL     1      -2.044  -0.252   0.085  0.00  0.00    +0.155 HD
ENDROOT
BRANCH   2   5
ATOM      5  C   UNL     1      -2.477  -2.828  -0.206  0.00  0.00    +0.083 C 
ATOM      6  C   UNL     1      -2.881  -3.699   0.986  0.00  0.00    +0.008 C 
ATOM      7  C   UNL     1      -2.390  -4.351  -0.327  0.00  0.00    +0.008 C 
ATOM      8  C   UNL     1      -3.630  -5.091  -0.916  0.00  0.00    -0.007 C 
ATOM      9  C   UNL     1      -3.868  -6.288   0.055  0.00  0.00    +0.004 C 
ATOM     10  C   UNL     1      -4.383  -5.636   1.359  0.00  0.00    +0.004 C 
ATOM     11  C   UNL     1      -4.409  -4.108   1.053  0.00  0.00    -0.007 C 
ATOM     12  C   UNL     1      -4.783  -4.123  -0.471  0.00  0.00    +0.007 C 
ENDBRANCH   2   5
BRANCH   1  19
ATOM     13  C   UNL     1      -1.159   1.842  -1.226  0.00  0.00    +0.045 C 
ATOM     14  C   UNL     1       0.066   1.251  -0.576  0.00  0.00    -0.029 A 
ATOM     15  C   UNL     1       1.254   1.956  -0.572  0.00  0.00    +0.007 A 
ATOM     16  C   UNL     1       2.379   1.412   0.018  0.00  0.00    +0.033 A 
ATOM     17  C   UNL     1       2.320   0.161   0.606  0.00  0.00    +0.128 A 
ATOM     18  C   UNL     1       1.135  -0.548   0.605  0.00  0.00    +0.056 A 
ATOM     19  C   UNL     1       0.003  -0.005   0.013  0.00  0.00    +0.038 A 
BRANCH  17  20
ATOM     20  N   UNL     1       3.527  -0.417   1.237  0.00  0.00    +0.056 N 
ATOM     21  O   UNL     1       3.476  -1.519   1.755  0.00  0.00    -0.126 OA
ATOM     22  O   UNL     1       4.573   0.208   1.239  0.00  0.00    -0.126 OA
ENDBRANCH  17  20
ENDBRANCH   1  19
TORSDOF 3
