REMARK  Name = ZINC36630004
REMARK  5 active torsions:
REMARK  status: ('A' for Active; 'I' for Inactive)
REMARK    1  A    between atoms: C_1  and  C_2
REMARK    2  A    between atoms: C_2  and  C_3
REMARK    3  A    between atoms: C_2  and  C_4
REMARK    4  A    between atoms: C_2  and  C_5
REMARK    5  A    between atoms: C_11  and  C_13
REMARK                            x       y       z     vdW  Elec       q    Type
REMARK                         _______ _______ _______ _____ _____    ______ ____
ROOT
ATOM      1  C   UNL     1       0.707  -0.490  -1.238  0.00  0.00    +0.226 C 
ATOM      2  O   UNL     1       1.150   0.308  -2.036  0.00  0.00    -0.275 OA
ATOM      3  N   UNL     1       0.847  -1.812  -1.460  0.00  0.00    -0.238 N 
ATOM      4  C   UNL     1       1.496  -2.260  -2.601  0.00  0.00    +0.314 A 
ATOM      5  N   UNL     1       2.023  -1.510  -3.537  0.00  0.00    -0.092 NA
ATOM      6  N   UNL     1       2.542  -2.258  -4.445  0.00  0.00    -0.106 NA
ATOM      7  C   UNL     1       2.367  -3.518  -4.124  0.00  0.00    +0.252 A 
ATOM      8  O   UNL     1       1.705  -3.545  -2.947  0.00  0.00    -0.405 OA
ATOM      9  H   UNL     1       0.493  -2.451  -0.821  0.00  0.00    +0.159 HD
ENDROOT
BRANCH   7  10
ATOM     10  C   UNL     1       2.815  -4.690  -4.902  0.00  0.00    +0.065 A 
ATOM     11  C   UNL     1       3.526  -4.533  -6.144  0.00  0.00    +0.042 A 
ATOM     12  C   UNL     1       3.907  -5.647  -6.806  0.00  0.00    +0.080 A 
ATOM     13  S   UNL     1       3.308  -6.957  -5.755  0.00  0.00    -0.064 S 
ATOM     14  C   UNL     1       2.574  -5.966  -4.467  0.00  0.00    +0.092 A 
ATOM     15 CL   UNL     1       1.759  -6.487  -3.026  0.00  0.00    -0.075 Cl
ATOM     16 CL   UNL     1       4.768  -5.772  -8.308  0.00  0.00    -0.076 Cl
ENDBRANCH   7  10
BRANCH   1  18
ATOM     17  C   UNL     1      -0.019   1.526   0.010  0.00  0.00    +0.020 C 
ATOM     18  C   UNL     1       0.002  -0.004   0.002  0.00  0.00    +0.039 C 
ATOM     19  C   UNL     1       0.742  -0.511   1.242  0.00  0.00    +0.020 C 
ATOM     20  C   UNL     1      -1.433  -0.534   0.013  0.00  0.00    +0.020 C 
ENDBRANCH   1  18
TORSDOF 2
