REMARK  Name = ZINC66567769
REMARK  12 active torsions:
REMARK  status: ('A' for Active; 'I' for Inactive)
REMARK    1  A    between atoms: C_1  and  C_2
REMARK    2  A    between atoms: C_3  and  C_27
REMARK    3  A    between atoms: C_8  and  C_10
REMARK    4  A    between atoms: C_10  and  N_11
REMARK    5  A    between atoms: C_14  and  C_17
REMARK    6  A    between atoms: C_14  and  N_18
REMARK    7  A    between atoms: N_18  and  C_19
REMARK    8  A    between atoms: C_20  and  O_22
REMARK    9  A    between atoms: O_22  and  C_23
REMARK   10  A    between atoms: C_23  and  C_24
REMARK   11  A    between atoms: C_23  and  C_25
REMARK   12  A    between atoms: C_23  and  C_26
REMARK                            x       y       z     vdW  Elec       q    Type
REMARK                         _______ _______ _______ _____ _____    ______ ____
ROOT
ATOM      1  N   UNL     1       0.109  -2.510   5.841  0.00  0.00    +0.386 N 
ATOM      2  C   UNL     1       1.346  -1.734   5.986  0.00  0.00    -0.076 C 
ATOM      3  C   UNL     1       1.290  -0.914   7.277  0.00  0.00    +0.007 C 
ATOM      4  C   UNL     1       1.137  -1.862   8.470  0.00  0.00    +0.034 C 
ATOM      5  C   UNL     1      -0.117  -2.719   8.272  0.00  0.00    +0.007 C 
ATOM      6  C   UNL     1      -0.009  -3.471   6.944  0.00  0.00    -0.076 C 
ATOM      7  C   UNL     1       1.000  -1.046   9.757  0.00  0.00    +0.032 C 
ATOM      8  H   UNL     1      -0.682  -1.884   5.856  0.00  0.00    -0.081 HD
ENDROOT
BRANCH   4   9
ATOM      9  N   UNL     1       2.314  -2.729   8.561  0.00  0.00    -0.265 N 
ATOM     10  C   UNL     1       2.148  -4.184   8.630  0.00  0.00    +0.136 C 
ATOM     11  C   UNL     1       3.549  -2.190   8.582  0.00  0.00    +0.404 C 
ATOM     12  O   UNL     1       3.686  -0.984   8.525  0.00  0.00    -0.226 OA
BRANCH  11  13
ATOM     13  O   UNL     1       4.630  -2.988   8.665  0.00  0.00    -0.445 OA
BRANCH  13  14
ATOM     14  C   UNL     1       5.908  -2.348   8.683  0.00  0.00    +0.107 C 
ATOM     15  C   UNL     1       5.994  -1.412   9.890  0.00  0.00    +0.055 C 
ATOM     16  C   UNL     1       7.008  -3.408   8.780  0.00  0.00    +0.055 C 
ATOM     17  C   UNL     1       6.091  -1.540   7.397  0.00  0.00    +0.055 C 
ENDBRANCH  13  14
ENDBRANCH  11  13
ENDBRANCH   4   9
BRANCH   1  18
ATOM     18  C   UNL     1       0.134  -3.235   4.563  0.00  0.00    +0.019 C 
BRANCH  18  26
ATOM     19  C   UNL     1       0.103   1.778   0.119  0.00  0.00    +0.066 C 
ATOM     20  C   UNL     1       0.127   0.272   0.062  0.00  0.00    +0.050 A 
ATOM     21  C   UNL     1       0.150  -0.391  -1.120  0.00  0.00    +0.011 A 
ATOM     22  S   UNL     1       0.171  -2.083  -0.552  0.00  0.00    -0.057 S 
ATOM     23  C   UNL     1       0.149  -1.774   1.102  0.00  0.00    +0.165 A 
ATOM     24  N   UNL     1       0.132  -0.460   1.161  0.00  0.00    -0.230 NA
ATOM     25  N   UNL     1       0.152  -2.685   2.151  0.00  0.00    -0.266 N 
ATOM     26  C   UNL     1       0.131  -2.246   3.425  0.00  0.00    +0.202 C 
ATOM     27  O   UNL     1       0.110  -1.056   3.656  0.00  0.00    -0.277 OA
ATOM     28  C   UNL     1       0.156   0.151  -2.526  0.00  0.00    +0.053 C 
ATOM     29  H   UNL     1       0.169  -3.638   1.967  0.00  0.00    +0.157 HD
ENDBRANCH  18  26
ENDBRANCH   1  18
TORSDOF 5
