REMARK  Name = ZINC08584789
REMARK  6 active torsions:
REMARK  status: ('A' for Active; 'I' for Inactive)
REMARK    1  A    between atoms: C_4  and  C_7
REMARK    2  A    between atoms: C_7  and  C_8
REMARK    3  A    between atoms: C_8  and  N_9
REMARK    4  A    between atoms: C_18  and  C_22
REMARK    5  A    between atoms: C_18  and  N_26
REMARK    6  A    between atoms: C_27  and  C_29
REMARK                            x       y       z     vdW  Elec       q    Type
REMARK                         _______ _______ _______ _____ _____    ______ ____
ROOT
ATOM      1  N   UNL     1       4.525  -2.078   1.813  0.00  0.00    -0.281 N 
ATOM      2  C   UNL     1       4.912  -3.393   1.657  0.00  0.00    +0.120 A 
ATOM      3  C   UNL     1       6.236  -3.660   1.470  0.00  0.00    +0.096 A 
ATOM      4  C   UNL     1       7.168  -2.616   1.439  0.00  0.00    +0.262 A 
ATOM      5  O   UNL     1       8.352  -2.852   1.272  0.00  0.00    -0.267 OA
ATOM      6  N   UNL     1       6.742  -1.345   1.597  0.00  0.00    -0.275 N 
ATOM      7  H   UNL     1       7.380  -0.615   1.577  0.00  0.00    +0.173 HD
ATOM      8  C   UNL     1       5.434  -1.089   1.775  0.00  0.00    +0.331 A 
ATOM      9  O   UNL     1       5.066   0.062   1.910  0.00  0.00    -0.246 OA
ATOM     10  C   UNL     1       6.358  -5.160   1.332  0.00  0.00    +0.240 C 
ATOM     11  C   UNL     1       4.929  -5.646   1.471  0.00  0.00    +0.256 C 
ATOM     12  O   UNL     1       4.545  -6.795   1.426  0.00  0.00    -0.272 OA
ATOM     13  N   UNL     1       4.172  -4.550   1.655  0.00  0.00    -0.269 N 
ATOM     14  H   UNL     1       3.209  -4.574   1.774  0.00  0.00    +0.156 HD
ENDROOT
BRANCH  10  15
ATOM     15  C   UNL     1       6.922  -5.530  -0.041  0.00  0.00    +0.424 C 
ATOM     16  F   UNL     1       8.235  -5.059  -0.148  0.00  0.00    -0.167 F 
ATOM     17  F   UNL     1       6.912  -6.921  -0.189  0.00  0.00    -0.167 F 
ATOM     18  F   UNL     1       6.135  -4.949  -1.041  0.00  0.00    -0.167 F 
ENDBRANCH  10  15
BRANCH  10  19
ATOM     19  N   UNL     1       7.196  -5.709   2.401  0.00  0.00    -0.287 N 
ATOM     20  C   UNL     1       6.886  -5.470   3.691  0.00  0.00    +0.245 C 
ATOM     21  O   UNL     1       5.863  -4.876   3.970  0.00  0.00    -0.270 OA
ATOM     22  H   UNL     1       7.974  -6.245   2.180  0.00  0.00    +0.151 HD
BRANCH  20  23
ATOM     23  C   UNL     1       7.791  -5.929   4.765  0.00  0.00    +0.037 A 
ATOM     24  C   UNL     1       8.970  -6.606   4.447  0.00  0.00    +0.014 A 
ATOM     25  C   UNL     1       9.810  -7.032   5.455  0.00  0.00    +0.021 A 
ATOM     26  C   UNL     1       9.486  -6.789   6.779  0.00  0.00    +0.041 A 
ATOM     27  C   UNL     1       8.318  -6.118   7.101  0.00  0.00    +0.021 A 
ATOM     28  C   UNL     1       7.473  -5.682   6.102  0.00  0.00    +0.014 A 
ATOM     29 CL   UNL     1      10.549  -7.329   8.042  0.00  0.00    -0.084 Cl
ENDBRANCH  20  23
ENDBRANCH  10  19
BRANCH   1  30
ATOM     30  C   UNL     1       3.110  -1.757   2.015  0.00  0.00    +0.133 C 
BRANCH  30  31
ATOM     31  C   UNL     1       2.438  -1.536   0.659  0.00  0.00    +0.057 C 
BRANCH  31  35
ATOM     32  C   UNL     1      -1.688  -0.599   1.247  0.00  0.00    +0.000 A 
ATOM     33  C   UNL     1      -0.748   0.414   1.208  0.00  0.00    +0.000 A 
ATOM     34  C   UNL     1       0.587   0.111   1.018  0.00  0.00    +0.004 A 
ATOM     35  C   UNL     1       0.983  -1.205   0.867  0.00  0.00    -0.046 A 
ATOM     36  C   UNL     1       0.043  -2.218   0.907  0.00  0.00    +0.004 A 
ATOM     37  C   UNL     1      -1.292  -1.915   1.096  0.00  0.00    +0.000 A 
ENDBRANCH  31  35
ENDBRANCH  30  31
ENDBRANCH   1  30
TORSDOF 6
