REMARK  Name = ZINC63736226
REMARK  6 active torsions:
REMARK  status: ('A' for Active; 'I' for Inactive)
REMARK    1  A    between atoms: C_10  and  C_11
REMARK    2  A    between atoms: C_11  and  N_12
REMARK    3  A    between atoms: N_12  and  C_13
REMARK    4  A    between atoms: C_16  and  N_23
REMARK    5  A    between atoms: C_18  and  S_19
REMARK    6  A    between atoms: S_19  and  N_22
REMARK                            x       y       z     vdW  Elec       q    Type
REMARK                         _______ _______ _______ _____ _____    ______ ____
ROOT
ATOM      1  C   UNL     1       6.426   1.354   1.557  0.00  0.00    +0.054 A 
ATOM      2  C   UNL     1       7.283   1.672   0.510  0.00  0.00    +0.027 A 
ATOM      3  C   UNL     1       8.426   2.408   0.754  0.00  0.00    +0.034 A 
ATOM      4  C   UNL     1       8.719   2.828   2.039  0.00  0.00    +0.128 A 
ATOM      5  C   UNL     1       7.869   2.513   3.083  0.00  0.00    +0.063 A 
ATOM      6  C   UNL     1       6.721   1.782   2.845  0.00  0.00    +0.128 A 
ENDROOT
BRANCH   6   7
ATOM      7  S   UNL     1       5.635   1.388   4.175  0.00  0.00    +0.058 S 
ATOM      8  O   UNL     1       5.367  -0.005   4.082  0.00  0.00    -0.153 OA
ATOM      9  O   UNL     1       6.189   1.980   5.342  0.00  0.00    -0.153 OA
BRANCH   7  10
ATOM     10  N   UNL     1       4.202   2.165   3.885  0.00  0.00    -0.203 NA
ATOM     11  H   UNL     1       4.099   2.712   3.090  0.00  0.00    +0.144 HD
ATOM     12  H   UNL     1       3.465   2.074   4.509  0.00  0.00    +0.144 HD
ENDBRANCH   7  10
ENDBRANCH   6   7
BRANCH   4  13
ATOM     13  N   UNL     1       9.945   3.616   2.297  0.00  0.00    +0.056 N 
ATOM     14  O   UNL     1      10.689   3.892   1.385  0.00  0.00    -0.126 OA
ATOM     15  O   UNL     1      10.202   3.983   3.419  0.00  0.00    -0.126 OA
ENDBRANCH   4  13
BRANCH   1  16
ATOM     16  N   UNL     1       5.269   0.611   1.313  0.00  0.00    -0.338 N 
ATOM     17  H   UNL     1       4.670   0.393   2.045  0.00  0.00    +0.146 HD
BRANCH  16  18
ATOM     18  C   UNL     1       4.960   0.161  -0.046  0.00  0.00    +0.137 C 
BRANCH  18  28
ATOM     19  C   UNL     1      -0.016   1.357   0.009  0.00  0.00    +0.001 A 
ATOM     20  C   UNL     1       1.169   2.091   0.002  0.00  0.00    +0.001 A 
ATOM     21  C   UNL     1       2.378   1.468  -0.013  0.00  0.00    +0.009 A 
ATOM     22  C   UNL     1       2.438   0.064  -0.021  0.00  0.00    -0.013 A 
ATOM     23  C   UNL     1       1.233  -0.683  -0.013  0.00  0.00    -0.018 A 
ATOM     24  C   UNL     1       0.002  -0.004   0.002  0.00  0.00    +0.008 A 
ATOM     25  C   UNL     1       1.292  -2.087  -0.021  0.00  0.00    +0.008 A 
ATOM     26  C   UNL     1       2.502  -2.709  -0.036  0.00  0.00    +0.001 A 
ATOM     27  C   UNL     1       3.687  -1.976  -0.043  0.00  0.00    +0.006 A 
ATOM     28  C   UNL     1       3.668  -0.615  -0.037  0.00  0.00    -0.023 A 
ENDBRANCH  18  28
ENDBRANCH  16  18
ENDBRANCH   1  16
TORSDOF 6
