REMARK  Name = ZINC16738946
REMARK  7 active torsions:
REMARK  status: ('A' for Active; 'I' for Inactive)
REMARK    1  A    between atoms: C_1  and  C_2
REMARK    2  A    between atoms: C_6  and  N_8
REMARK    3  A    between atoms: N_11  and  C_14
REMARK    4  A    between atoms: C_17  and  S_23
REMARK    5  A    between atoms: C_19  and  N_20
REMARK    6  A    between atoms: S_23  and  N_26
REMARK    7  A    between atoms: N_26  and  C_27
REMARK                            x       y       z     vdW  Elec       q    Type
REMARK                         _______ _______ _______ _____ _____    ______ ____
ROOT
ATOM      1  C   UNL     1      -1.098  -4.679   5.770  0.00  0.00    +0.060 A 
ATOM      2  C   UNL     1      -2.290  -4.967   6.424  0.00  0.00    +0.027 A 
ATOM      3  C   UNL     1      -2.271  -5.667   7.614  0.00  0.00    +0.030 A 
ATOM      4  C   UNL     1      -1.068  -6.081   8.156  0.00  0.00    +0.108 A 
ATOM      5  C   UNL     1       0.120  -5.796   7.508  0.00  0.00    +0.063 A 
ATOM      6  C   UNL     1       0.108  -5.102   6.314  0.00  0.00    +0.149 A 
ENDROOT
BRANCH   1  10
ATOM      7  N   UNL     1       0.051  -2.796   2.390  0.00  0.00    -0.327 N 
ATOM      8  C   UNL     1       0.152  -2.087   3.673  0.00  0.00    +0.124 C 
ATOM      9  C   UNL     1      -1.028  -2.505   4.559  0.00  0.00    +0.124 C 
ATOM     10  N   UNL     1      -1.113  -3.972   4.566  0.00  0.00    -0.325 N 
ATOM     11  C   UNL     1      -1.214  -4.682   3.283  0.00  0.00    +0.124 C 
ATOM     12  C   UNL     1      -0.040  -4.263   2.397  0.00  0.00    +0.124 C 
BRANCH   7  18
ATOM     13  C   UNL     1      -0.053   1.502   0.010  0.00  0.00    +0.044 C 
ATOM     14  C   UNL     1      -0.015  -0.004   0.002  0.00  0.00    -0.049 A 
ATOM     15  C   UNL     1       0.006  -0.688  -1.200  0.00  0.00    +0.003 A 
ATOM     16  C   UNL     1       0.041  -2.070  -1.212  0.00  0.00    +0.002 A 
ATOM     17  C   UNL     1       0.056  -2.773  -0.023  0.00  0.00    +0.023 A 
ATOM     18  C   UNL     1       0.036  -2.089   1.186  0.00  0.00    +0.030 A 
ATOM     19  C   UNL     1       0.006  -0.700   1.194  0.00  0.00    +0.026 A 
ENDBRANCH   7  18
ENDBRANCH   1  10
BRANCH   6  20
ATOM     20  N   UNL     1       1.380  -4.802   5.619  0.00  0.00    +0.058 N 
ATOM     21  O   UNL     1       2.429  -5.170   6.093  0.00  0.00    -0.126 OA
ATOM     22  O   UNL     1       1.369  -4.190   4.576  0.00  0.00    -0.126 OA
ENDBRANCH   6  20
BRANCH   4  23
ATOM     23  S   UNL     1      -1.048  -6.974   9.675  0.00  0.00    +0.058 S 
ATOM     24  O   UNL     1       0.236  -6.773  10.248  0.00  0.00    -0.153 OA
ATOM     25  O   UNL     1      -2.248  -6.638  10.358  0.00  0.00    -0.153 OA
BRANCH  23  26
ATOM     26  N   UNL     1      -1.153  -8.583   9.298  0.00  0.00    -0.193 NA
ATOM     27  C   UNL     1      -0.068  -9.234   8.559  0.00  0.00    +0.127 C 
ATOM     28  H   UNL     1      -1.932  -9.095   9.567  0.00  0.00    +0.148 HD
ENDBRANCH  23  26
ENDBRANCH   4  23
TORSDOF 5
