REMARK  Name = ZINC40325339
REMARK  15 active torsions:
REMARK  status: ('A' for Active; 'I' for Inactive)
REMARK    1  A    between atoms: C_1  and  C_2
REMARK    2  A    between atoms: C_2  and  C_3
REMARK    3  A    between atoms: C_3  and  S_4
REMARK    4  A    between atoms: S_4  and  C_7
REMARK    5  A    between atoms: C_10  and  C_13
REMARK    6  A    between atoms: C_15  and  C_18
REMARK    7  A    between atoms: N_20  and  C_21
REMARK    8  A    between atoms: C_21  and  C_22
REMARK    9  A    between atoms: C_22  and  C_24
REMARK   10  A    between atoms: C_22  and  N_33
REMARK   11  A    between atoms: C_27  and  N_30
REMARK   12  A    between atoms: N_30  and  C_31
REMARK   13  A    between atoms: N_30  and  C_32
REMARK   14  A    between atoms: N_33  and  C_34
REMARK   15  A    between atoms: N_33  and  C_35
REMARK                            x       y       z     vdW  Elec       q    Type
REMARK                         _______ _______ _______ _____ _____    ______ ____
ROOT
ATOM      1  C   UNL     1       5.888  -4.932  -8.804  0.00  0.00    +0.266 C 
ATOM      2  O   UNL     1       6.684  -5.080  -7.898  0.00  0.00    -0.268 OA
ATOM      3  N   UNL     1       6.278  -5.118 -10.081  0.00  0.00    -0.311 N 
ATOM      4  H   UNL     1       5.643  -5.000 -10.804  0.00  0.00    +0.149 HD
ENDROOT
BRANCH   1   7
ATOM      5  C   UNL     1       2.634  -3.991  -7.374  0.00  0.00    +0.168 A 
ATOM      6  C   UNL     1       3.944  -4.322  -7.222  0.00  0.00    +0.086 A 
ATOM      7  C   UNL     1       4.487  -4.548  -8.505  0.00  0.00    +0.168 A 
ATOM      8  N   UNL     1       3.534  -4.358  -9.387  0.00  0.00    -0.073 NA
ATOM      9  O   UNL     1       2.352  -4.010  -8.690  0.00  0.00    -0.354 OA
BRANCH   5  13
ATOM     10  C   UNL     1      -0.093  -3.079  -4.248  0.00  0.00    +0.088 A 
ATOM     11  C   UNL     1      -0.521  -3.059  -5.563  0.00  0.00    +0.027 A 
ATOM     12  C   UNL     1       0.359  -3.354  -6.583  0.00  0.00    +0.013 A 
ATOM     13  C   UNL     1       1.685  -3.673  -6.286  0.00  0.00    +0.020 A 
ATOM     14  C   UNL     1       2.111  -3.692  -4.957  0.00  0.00    +0.013 A 
ATOM     15  C   UNL     1       1.221  -3.390  -3.947  0.00  0.00    +0.027 A 
BRANCH  10  16
ATOM     16  S   UNL     1      -1.224  -2.701  -2.951  0.00  0.00    -0.003 S 
ATOM     17  O   UNL     1      -0.707  -3.374  -1.811  0.00  0.00    -0.169 OA
ATOM     18  O   UNL     1      -2.502  -3.039  -3.474  0.00  0.00    -0.169 OA
BRANCH  16  19
ATOM     19  C   UNL     1      -1.095  -0.906  -2.729  0.00  0.00    +0.171 C 
BRANCH  19  21
ATOM     20  C   UNL     1      -1.936   1.054  -1.427  0.00  0.00    +0.005 C 
ATOM     21  C   UNL     1      -2.045  -0.460  -1.614  0.00  0.00    +0.020 C 
ENDBRANCH  19  21
ENDBRANCH  16  19
ENDBRANCH  10  16
ENDBRANCH   5  13
ENDBRANCH   1   7
BRANCH   3  22
ATOM     22  C   UNL     1       7.662  -5.497 -10.376  0.00  0.00    +0.094 C 
BRANCH  22  23
ATOM     23  C   UNL     1       7.816  -5.735 -11.879  0.00  0.00    -0.021 C 
BRANCH  23  24
ATOM     24  C   UNL     1       7.547  -4.452 -12.621  0.00  0.00    -0.059 A 
ATOM     25  C   UNL     1       8.534  -3.488 -12.713  0.00  0.00    +0.004 A 
ATOM     26  C   UNL     1       8.291  -2.310 -13.392  0.00  0.00    +0.023 A 
ATOM     27  C   UNL     1       7.053  -2.095 -13.984  0.00  0.00    +0.029 A 
ATOM     28  C   UNL     1       6.063  -3.065 -13.890  0.00  0.00    +0.023 A 
ATOM     29  C   UNL     1       6.315  -4.243 -13.214  0.00  0.00    +0.004 A 
BRANCH  27  30
ATOM     30  N   UNL     1       6.803  -0.905 -14.671  0.00  0.00    -0.336 N 
ATOM     31  C   UNL     1       7.832   0.137 -14.731  0.00  0.00    +0.129 C 
ATOM     32  C   UNL     1       5.513  -0.698 -15.333  0.00  0.00    +0.129 C 
ENDBRANCH  27  30
ENDBRANCH  23  24
BRANCH  23  33
ATOM     33  N   UNL     1       9.184  -6.189 -12.166  0.00  0.00    +0.382 N 
ATOM     34  C   UNL     1       9.461  -7.417 -11.409  0.00  0.00    -0.096 C 
ATOM     35  C   UNL     1       9.319  -6.459 -13.603  0.00  0.00    -0.096 C 
ATOM     36  H   UNL     1       9.839  -5.472 -11.895  0.00  0.00    -0.082 HD
ENDBRANCH  23  33
ENDBRANCH  22  23
ENDBRANCH   3  22
TORSDOF 10
