REMARK  Name = ZINC36836611
REMARK  10 active torsions:
REMARK  status: ('A' for Active; 'I' for Inactive)
REMARK    1  A    between atoms: C_1  and  C_2
REMARK    2  A    between atoms: C_2  and  C_3
REMARK    3  A    between atoms: C_3  and  C_34
REMARK    4  A    between atoms: N_6  and  C_10
REMARK    5  A    between atoms: C_10  and  C_11
REMARK    6  A    between atoms: N_13  and  C_14
REMARK    7  A    between atoms: C_15  and  C_26
REMARK    8  A    between atoms: C_16  and  C_25
REMARK    9  A    between atoms: C_17  and  C_19
REMARK   10  A    between atoms: C_34  and  C_35
REMARK                            x       y       z     vdW  Elec       q    Type
REMARK                         _______ _______ _______ _____ _____    ______ ____
ROOT
ATOM      1  C   UNL     1       6.091   0.219  -5.188  0.00  0.00    +0.085 A 
ATOM      2  C   UNL     1       7.334   0.475  -5.756  0.00  0.00    +0.069 A 
ATOM      3  C   UNL     1       7.960  -0.570  -6.439  0.00  0.00    -0.022 A 
ATOM      4  C   UNL     1       7.285  -1.752  -6.484  0.00  0.00    +0.025 A 
ATOM      5  S   UNL     1       5.798  -1.390  -5.571  0.00  0.00    -0.072 S 
ATOM      6  C   UNL     1       9.308  -0.400  -7.090  0.00  0.00    +0.046 C 
ENDROOT
BRANCH   2   7
ATOM      7  C   UNL     1       7.966   1.794  -5.641  0.00  0.00    +0.249 C 
ATOM      8  O   UNL     1       8.698   2.039  -4.700  0.00  0.00    -0.270 OA
ATOM      9  N   UNL     1       7.735   2.735  -6.578  0.00  0.00    -0.293 N 
ATOM     10  C   UNL     1       6.849   2.465  -7.721  0.00  0.00    +0.136 C 
ATOM     11  C   UNL     1       5.829   3.604  -7.823  0.00  0.00    +0.179 C 
ATOM     12  O   UNL     1       6.521   4.855  -7.838  0.00  0.00    -0.377 OA
ATOM     13  C   UNL     1       7.268   5.126  -6.650  0.00  0.00    +0.179 C 
ATOM     14  C   UNL     1       8.357   4.066  -6.485  0.00  0.00    +0.136 C 
ENDBRANCH   2   7
BRANCH   4  15
ATOM     15  C   UNL     1       7.687  -3.021  -7.125  0.00  0.00    -0.011 A 
ATOM     16  C   UNL     1       8.971  -3.531  -6.925  0.00  0.00    +0.009 A 
ATOM     17  C   UNL     1       9.341  -4.716  -7.527  0.00  0.00    +0.001 A 
ATOM     18  C   UNL     1       8.442  -5.399  -8.328  0.00  0.00    +0.000 A 
ATOM     19  C   UNL     1       7.168  -4.898  -8.530  0.00  0.00    +0.001 A 
ATOM     20  C   UNL     1       6.784  -3.717  -7.929  0.00  0.00    +0.009 A 
ENDBRANCH   4  15
BRANCH   1  23
ATOM     21  C   UNL     1       4.102   0.661  -3.985  0.00  0.00    +0.236 C 
ATOM     22  O   UNL     1       3.743  -0.481  -4.177  0.00  0.00    -0.274 OA
ATOM     23  N   UNL     1       5.285   1.087  -4.470  0.00  0.00    -0.278 N 
ATOM     24  H   UNL     1       5.572   2.000  -4.317  0.00  0.00    +0.155 HD
BRANCH  21  25
ATOM     25  C   UNL     1       3.224   1.605  -3.204  0.00  0.00    +0.214 C 
BRANCH  25  29
ATOM     26  C   UNL     1       0.461  -0.315  -1.632  0.00  0.00    +0.112 C 
ATOM     27  C   UNL     1       1.875   0.232  -1.631  0.00  0.00    +0.247 C 
ATOM     28  O   UNL     1       2.715   0.090  -0.768  0.00  0.00    -0.273 OA
ATOM     29  N   UNL     1       2.004   0.908  -2.790  0.00  0.00    -0.215 N 
ATOM     30  C   UNL     1       0.881   0.865  -3.515  0.00  0.00    +0.310 C 
ATOM     31  O   UNL     1       0.754   1.401  -4.598  0.00  0.00    -0.252 OA
ATOM     32  N   UNL     1      -0.094   0.162  -2.910  0.00  0.00    -0.285 N 
ATOM     33  H   UNL     1      -0.988  -0.001  -3.251  0.00  0.00    +0.151 HD
BRANCH  26  35
ATOM     34  C   UNL     1      -0.391   1.777  -0.564  0.00  0.00    +0.006 C 
ATOM     35  C   UNL     1      -0.336   0.252  -0.455  0.00  0.00    +0.032 C 
ENDBRANCH  26  35
BRANCH  26  36
ATOM     36  C   UNL     1       0.472  -1.844  -1.586  0.00  0.00    +0.032 C 
ATOM     37  C   UNL     1       1.274  -2.384  -2.772  0.00  0.00    +0.006 C 
ENDBRANCH  26  36
ENDBRANCH  25  29
ENDBRANCH  21  25
ENDBRANCH   1  23
TORSDOF 7
