REMARK  Name = ZINC11246961
REMARK  11 active torsions:
REMARK  status: ('A' for Active; 'I' for Inactive)
REMARK    1  A    between atoms: C_1  and  N_2
REMARK    2  A    between atoms: N_2  and  C_3
REMARK    3  A    between atoms: C_6  and  C_11
REMARK    4  A    between atoms: C_11  and  S_12
REMARK    5  A    between atoms: S_12  and  C_13
REMARK    6  A    between atoms: C_16  and  C_26
REMARK    7  A    between atoms: N_17  and  C_18
REMARK    8  A    between atoms: C_18  and  C_19
REMARK    9  A    between atoms: C_19  and  C_20
REMARK   10  A    between atoms: C_29  and  O_32
REMARK   11  A    between atoms: O_32  and  C_33
REMARK                            x       y       z     vdW  Elec       q    Type
REMARK                         _______ _______ _______ _____ _____    ______ ____
ROOT
ATOM      1  C   UNL     1      -1.544  -6.563  -2.422  0.00  0.00    +0.192 A 
ATOM      2  N   UNL     1      -0.398  -7.188  -2.573  0.00  0.00    -0.122 NA
ATOM      3  N   UNL     1      -0.565  -8.455  -2.435  0.00  0.00    -0.128 NA
ATOM      4  C   UNL     1      -1.827  -8.717  -2.188  0.00  0.00    +0.165 A 
ATOM      5  N   UNL     1      -2.492  -7.513  -2.166  0.00  0.00    -0.302 N 
ENDROOT
BRANCH   4   6
ATOM      6  C   UNL     1      -2.421 -10.052  -1.969  0.00  0.00    +0.020 A 
ATOM      7  C   UNL     1      -3.797 -10.240  -2.117  0.00  0.00    +0.015 A 
ATOM      8  C   UNL     1      -4.347 -11.487  -1.912  0.00  0.00    +0.046 A 
ATOM      9  C   UNL     1      -3.534 -12.556  -1.558  0.00  0.00    +0.120 A 
ATOM     10  C   UNL     1      -2.166 -12.374  -1.410  0.00  0.00    +0.046 A 
ATOM     11  C   UNL     1      -1.607 -11.131  -1.619  0.00  0.00    +0.015 A 
BRANCH   9  12
ATOM     12  O   UNL     1      -4.080 -13.784  -1.357  0.00  0.00    -0.495 OA
ATOM     13  C   UNL     1      -3.188 -14.840  -0.995  0.00  0.00    +0.277 C 
ENDBRANCH   9  12
ENDBRANCH   4   6
BRANCH   1  14
ATOM     14  S   UNL     1      -1.806  -4.824  -2.523  0.00  0.00    -0.078 S 
BRANCH  14  15
ATOM     15  C   UNL     1      -0.161  -4.152  -2.883  0.00  0.00    +0.153 C 
BRANCH  15  21
ATOM     16  C   UNL     1      -0.057   1.670  -1.004  0.00  0.00    +0.132 C 
ATOM     17  N   UNL     1       0.029   0.212  -0.898  0.00  0.00    -0.306 N 
ATOM     18  C   UNL     1       0.304  -0.414   0.398  0.00  0.00    +0.132 C 
ATOM     19  C   UNL     1      -0.148  -0.573  -2.019  0.00  0.00    +0.222 A 
ATOM     20  N   UNL     1      -0.075  -1.899  -1.923  0.00  0.00    -0.198 NA
ATOM     21  C   UNL     1      -0.244  -2.651  -2.996  0.00  0.00    +0.146 A 
ATOM     22  N   UNL     1      -0.487  -2.091  -4.168  0.00  0.00    -0.199 NA
ATOM     23  C   UNL     1      -0.561  -0.766  -4.273  0.00  0.00    +0.217 A 
ATOM     24  N   UNL     1      -0.397  -0.007  -3.195  0.00  0.00    -0.181 NA
ATOM     25  N   UNL     1      -0.814  -0.183  -5.497  0.00  0.00    -0.327 N 
ATOM     26  H   UNL     1      -0.938  -0.738  -6.283  0.00  0.00    +0.145 HD
ATOM     27  H   UNL     1      -0.868   0.783  -5.572  0.00  0.00    +0.145 HD
ENDBRANCH  15  21
ENDBRANCH  14  15
ENDBRANCH   1  14
BRANCH   5  28
ATOM     28  C   UNL     1      -3.920  -7.294  -1.923  0.00  0.00    +0.130 C 
BRANCH  28  29
ATOM     29  C   UNL     1      -4.662  -7.233  -3.260  0.00  0.00    +0.057 C 
BRANCH  29  30
ATOM     30  C   UNL     1      -6.131  -7.009  -3.010  0.00  0.00    -0.046 A 
ATOM     31  C   UNL     1      -6.978  -8.089  -2.847  0.00  0.00    +0.004 A 
ATOM     32  C   UNL     1      -8.325  -7.883  -2.617  0.00  0.00    +0.000 A 
ATOM     33  C   UNL     1      -8.826  -6.596  -2.550  0.00  0.00    +0.000 A 
ATOM     34  C   UNL     1      -7.979  -5.516  -2.712  0.00  0.00    +0.000 A 
ATOM     35  C   UNL     1      -6.631  -5.722  -2.938  0.00  0.00    +0.004 A 
ENDBRANCH  29  30
ENDBRANCH  28  29
ENDBRANCH   5  28
TORSDOF 8
