REMARK  Name = ZINC59015610
REMARK  6 active torsions:
REMARK  status: ('A' for Active; 'I' for Inactive)
REMARK    1  A    between atoms: C_6  and  C_7
REMARK    2  A    between atoms: N_8  and  N_9
REMARK    3  A    between atoms: C_12  and  S_15
REMARK    4  A    between atoms: S_15  and  C_16
REMARK    5  A    between atoms: C_16  and  C_17
REMARK    6  A    between atoms: N_19  and  C_20
REMARK                            x       y       z     vdW  Elec       q    Type
REMARK                         _______ _______ _______ _____ _____    ______ ____
ROOT
ATOM      1  N   UNL     1      -2.444  -2.780   0.037  0.00  0.00    -0.205 N 
ATOM      2  C   UNL     1      -2.422  -4.163   0.026  0.00  0.00    +0.232 A 
ATOM      3  N   UNL     1      -1.345  -4.919   0.008  0.00  0.00    -0.186 NA
ATOM      4  C   UNL     1      -1.700  -6.208   0.003  0.00  0.00    +0.211 A 
ATOM      5  N   UNL     1      -3.010  -6.289   0.018  0.00  0.00    -0.144 NA
ATOM      6  N   UNL     1      -3.501  -4.974   0.038  0.00  0.00    -0.245 N 
ATOM      7  H   UNL     1      -3.292  -2.309   0.055  0.00  0.00    +0.177 HD
ATOM      8  H   UNL     1      -4.432  -4.702   0.056  0.00  0.00    +0.192 HD
ENDROOT
BRANCH   1  10
ATOM      9  C   UNL     1      -1.264  -0.762   0.032  0.00  0.00    +0.138 C 
ATOM     10  N   UNL     1      -1.243  -2.060   0.021  0.00  0.00    -0.188 NA
BRANCH   9  16
ATOM     11  C   UNL     1      -0.018   1.393   0.026  0.00  0.00    +0.010 A 
ATOM     12  C   UNL     1       1.168   2.096   0.012  0.00  0.00    +0.016 A 
ATOM     13  C   UNL     1       2.377   1.420  -0.014  0.00  0.00    +0.018 A 
ATOM     14  C   UNL     1       2.403   0.036  -0.025  0.00  0.00    +0.016 A 
ATOM     15  C   UNL     1       1.224  -0.679  -0.011  0.00  0.00    +0.010 A 
ATOM     16  C   UNL     1       0.001  -0.004   0.015  0.00  0.00    -0.005 A 
ATOM     17 BR   UNL     1       3.998   2.392  -0.034  0.00  0.00    -0.050 Br
ENDBRANCH   9  16
ENDBRANCH   1  10
BRANCH   4  18
ATOM     18  S   UNL     1      -0.590  -7.577  -0.021  0.00  0.00    -0.075 S 
BRANCH  18  19
ATOM     19  C   UNL     1      -1.680  -9.026  -0.017  0.00  0.00    +0.173 C 
BRANCH  19  20
ATOM     20  C   UNL     1      -0.847 -10.282  -0.037  0.00  0.00    +0.227 C 
ATOM     21  O   UNL     1       0.364 -10.206  -0.051  0.00  0.00    -0.275 OA
ATOM     22  N   UNL     1      -1.446 -11.489  -0.038  0.00  0.00    -0.285 N 
ATOM     23  H   UNL     1      -2.411 -11.551   0.042  0.00  0.00    +0.155 HD
BRANCH  22  24
ATOM     24  C   UNL     1      -0.677 -12.652  -0.153  0.00  0.00    +0.036 A 
ATOM     25  C   UNL     1      -1.168 -13.743  -0.857  0.00  0.00    +0.043 A 
ATOM     26  C   UNL     1      -0.406 -14.891  -0.970  0.00  0.00    +0.044 A 
ATOM     27  C   UNL     1       0.845 -14.953  -0.383  0.00  0.00    +0.040 A 
ATOM     28  C   UNL     1       1.337 -13.867   0.320  0.00  0.00    +0.044 A 
ATOM     29  C   UNL     1       0.581 -12.715   0.431  0.00  0.00    +0.043 A 
ATOM     30 CL   UNL     1       2.907 -13.948   1.056  0.00  0.00    -0.083 Cl
ATOM     31 CL   UNL     1      -1.019 -16.256  -1.850  0.00  0.00    -0.083 Cl
ENDBRANCH  22  24
ENDBRANCH  19  20
ENDBRANCH  18  19
ENDBRANCH   4  18
TORSDOF 6
