REMARK  Name = ZINC20167950
REMARK  12 active torsions:
REMARK  status: ('A' for Active; 'I' for Inactive)
REMARK    1  A    between atoms: C_1  and  C_2
REMARK    2  A    between atoms: C_2  and  O_3
REMARK    3  A    between atoms: O_3  and  C_4
REMARK    4  A    between atoms: C_4  and  C_6
REMARK    5  A    between atoms: C_7  and  N_34
REMARK    6  A    between atoms: C_9  and  C_10
REMARK    7  A    between atoms: C_16  and  C_28
REMARK    8  A    between atoms: C_18  and  C_23
REMARK    9  A    between atoms: C_28  and  O_30
REMARK   10  A    between atoms: O_30  and  C_31
REMARK   11  A    between atoms: C_31  and  C_32
REMARK   12  A    between atoms: C_31  and  C_33
REMARK                            x       y       z     vdW  Elec       q    Type
REMARK                         _______ _______ _______ _____ _____    ______ ____
ROOT
ATOM      1  C   UNL     1       1.681   3.136   1.390  0.00  0.00    +0.155 A 
ATOM      2  C   UNL     1       0.635   2.777   2.215  0.00  0.00    +0.065 A 
ATOM      3  C   UNL     1       0.834   1.365   2.577  0.00  0.00    +0.027 A 
ATOM      4  C   UNL     1       0.057   0.599   3.436  0.00  0.00    +0.058 C 
ATOM      5  C   UNL     1       2.021   0.937   1.835  0.00  0.00    +0.079 A 
ATOM      6  C   UNL     1       2.549  -0.343   1.768  0.00  0.00    +0.118 C 
ATOM      7  S   UNL     1       3.955  -0.599   0.726  0.00  0.00    -0.095 S 
ATOM      8  C   UNL     1       4.764   1.027   0.721  0.00  0.00    +0.206 C 
ATOM      9  C   UNL     1       3.728   2.107   0.554  0.00  0.00    +0.253 C 
ATOM     10  O   UNL     1       3.958   3.043  -0.181  0.00  0.00    -0.271 OA
ATOM     11  N   UNL     1       2.549   2.053   1.206  0.00  0.00    -0.270 N 
ENDROOT
BRANCH   4  12
ATOM     12  C   UNL     1      -0.847   1.225   4.314  0.00  0.00    +0.128 A 
ATOM     13  C   UNL     1      -1.790   0.590   5.105  0.00  0.00    +0.049 A 
ATOM     14  C   UNL     1      -2.461   1.598   5.810  0.00  0.00    +0.042 A 
ATOM     15  C   UNL     1      -1.919   2.780   5.435  0.00  0.00    +0.195 A 
ATOM     16  O   UNL     1      -0.947   2.552   4.541  0.00  0.00    -0.464 OA
ENDBRANCH   4  12
BRANCH   8  17
ATOM     17  C   UNL     1       5.493   1.229   2.025  0.00  0.00    +0.127 A 
ATOM     18  C   UNL     1       6.814   1.439   2.163  0.00  0.00    +0.046 A 
ATOM     19  C   UNL     1       7.065   1.574   3.547  0.00  0.00    +0.041 A 
ATOM     20  C   UNL     1       5.882   1.438   4.173  0.00  0.00    +0.195 A 
ATOM     21  O   UNL     1       4.932   1.235   3.245  0.00  0.00    -0.466 OA
ENDBRANCH   8  17
BRANCH   2  22
ATOM     22  N   UNL     1      -0.404   3.592   2.627  0.00  0.00    -0.356 N 
ATOM     23  H   UNL     1      -1.186   3.193   3.289  0.00  0.00    +0.142 HD
ATOM     24  H   UNL     1      -0.448   4.639   2.292  0.00  0.00    +0.142 HD
ENDBRANCH   2  22
BRANCH   1  25
ATOM     25  C   UNL     1       1.848   4.411   0.809  0.00  0.00    +0.358 C 
ATOM     26  O   UNL     1       2.958   4.909   0.743  0.00  0.00    -0.243 OA
BRANCH  25  27
ATOM     27  O   UNL     1       0.778   5.079   0.327  0.00  0.00    -0.460 OA
BRANCH  27  29
ATOM     28  C   UNL     1      -0.300   6.963  -0.736  0.00  0.00    +0.048 C 
ATOM     29  C   UNL     1       1.021   6.364  -0.247  0.00  0.00    +0.229 C 
ENDBRANCH  27  29
ENDBRANCH  25  27
ENDBRANCH   1  25
BRANCH   6  30
ATOM     30  C   UNL     1       1.984  -1.404   2.505  0.00  0.00    +0.348 C 
ATOM     31  O   UNL     1       1.331  -2.261   1.937  0.00  0.00    -0.244 OA
BRANCH  30  32
ATOM     32  O   UNL     1       2.166  -1.471   3.842  0.00  0.00    -0.458 OA
BRANCH  32  33
ATOM     33  C   UNL     1       1.565  -2.573   4.525  0.00  0.00    +0.171 C 
ATOM     34  C   UNL     1       2.549  -3.745   4.566  0.00  0.00    +0.052 C 
ATOM     35  C   UNL     1       1.210  -2.155   5.954  0.00  0.00    +0.052 C 
ENDBRANCH  32  33
ENDBRANCH  30  32
ENDBRANCH   6  30
TORSDOF 9
