REMARK  Name = ZINC14889201
REMARK  15 active torsions:
REMARK  status: ('A' for Active; 'I' for Inactive)
REMARK    1  A    between atoms: C_1  and  C_2
REMARK    2  A    between atoms: C_2  and  C_3
REMARK    3  A    between atoms: C_2  and  C_4
REMARK    4  A    between atoms: C_4  and  C_5
REMARK    5  A    between atoms: C_5  and  C_7
REMARK    6  A    between atoms: C_5  and  N_29
REMARK    7  A    between atoms: C_17  and  C_19
REMARK    8  A    between atoms: C_22  and  C_25
REMARK    9  A    between atoms: C_25  and  C_26
REMARK   10  A    between atoms: C_25  and  C_27
REMARK   11  A    between atoms: C_25  and  C_28
REMARK   12  A    between atoms: C_30  and  C_32
REMARK   13  A    between atoms: C_32  and  N_74
REMARK   14  A    between atoms: C_33  and  N_74
REMARK   15  A    between atoms: C_34  and  N_74
REMARK                            x       y       z     vdW  Elec       q    Type
REMARK                         _______ _______ _______ _____ _____    ______ ____
ROOT
ATOM      1  C   UNL     1       0.606  -0.653  -4.127  0.00  0.00    +0.154 A 
ATOM      2  N   UNL     1       0.725  -1.805  -4.730  0.00  0.00    -0.132 NA
ATOM      3  N   UNL     1       1.415  -1.661  -5.806  0.00  0.00    -0.134 NA
ATOM      4  C   UNL     1       1.766  -0.412  -5.936  0.00  0.00    +0.135 A 
ATOM      5  N   UNL     1       1.285   0.259  -4.865  0.00  0.00    -0.312 N 
ATOM      6  C   UNL     1       1.469   1.671  -4.531  0.00  0.00    +0.144 C 
ATOM      7  C   UNL     1       1.651   2.493  -5.810  0.00  0.00    +0.129 C 
ATOM      8  N   UNL     1       3.057   2.411  -6.236  0.00  0.00    -0.295 N 
ATOM      9  C   UNL     1       3.639   1.098  -6.520  0.00  0.00    +0.116 C 
ATOM     10  C   UNL     1       2.539   0.191  -7.080  0.00  0.00    +0.095 C 
ATOM     11  C   UNL     1       3.799   3.529  -6.362  0.00  0.00    +0.247 C 
ATOM     12  O   UNL     1       3.280   4.620  -6.230  0.00  0.00    -0.270 OA
ENDROOT
BRANCH  11  13
ATOM     13  C   UNL     1       5.243   3.428  -6.661  0.00  0.00    +0.037 A 
ATOM     14  C   UNL     1       5.977   2.331  -6.208  0.00  0.00    +0.013 A 
ATOM     15  C   UNL     1       7.324   2.240  -6.494  0.00  0.00    +0.005 A 
ATOM     16  C   UNL     1       7.949   3.240  -7.219  0.00  0.00    -0.042 A 
ATOM     17  C   UNL     1       7.227   4.332  -7.667  0.00  0.00    +0.005 A 
ATOM     18  C   UNL     1       5.879   4.433  -7.392  0.00  0.00    +0.013 A 
BRANCH  16  19
ATOM     19  C   UNL     1       9.421   3.137  -7.523  0.00  0.00    -0.013 C 
ATOM     20  C   UNL     1      10.151   4.338  -6.917  0.00  0.00    +0.015 C 
ATOM     21  C   UNL     1       9.977   1.845  -6.921  0.00  0.00    +0.015 C 
ATOM     22  C   UNL     1       9.630   3.125  -9.039  0.00  0.00    +0.015 C 
ENDBRANCH  16  19
ENDBRANCH  11  13
BRANCH   1  23
ATOM     23  C   UNL     1      -0.142  -0.388  -2.846  0.00  0.00    +0.141 C 
BRANCH  23  24
ATOM     24  N   UNL     1      -1.446  -1.055  -2.895  0.00  0.00    -0.307 N 
ATOM     25  C   UNL     1      -2.469  -0.590  -2.151  0.00  0.00    +0.197 C 
ATOM     26  O   UNL     1      -2.311   0.381  -1.442  0.00  0.00    -0.278 OA
ATOM     27  H   UNL     1      -1.572  -1.832  -3.462  0.00  0.00    +0.149 HD
BRANCH  25  28
ATOM     28  C   UNL     1      -3.809  -1.277  -2.200  0.00  0.00    +0.018 C 
BRANCH  28  31
ATOM     29  C   UNL     1      -6.119  -1.072  -1.505  0.00  0.00    -0.096 C 
ATOM     30  C   UNL     1      -4.337  -0.720   0.096  0.00  0.00    -0.096 C 
ATOM     31  N   UNL     1      -4.747  -0.556  -1.314  0.00  0.00    +0.382 N 
ATOM     32  H   UNL     1      -4.730   0.443  -1.552  0.00  0.00    -0.082 HD
ENDBRANCH  28  31
ENDBRANCH  25  28
ENDBRANCH  23  24
BRANCH  23  33
ATOM     33  C   UNL     1       0.664  -0.928  -1.664  0.00  0.00    +0.033 C 
BRANCH  33  35
ATOM     34  C   UNL     1      -0.021   0.972  -0.192  0.00  0.00    +0.007 C 
ATOM     35  C   UNL     1      -0.033  -0.550  -0.355  0.00  0.00    -0.015 C 
ATOM     36  C   UNL     1       0.704  -1.195   0.820  0.00  0.00    +0.007 C 
ENDBRANCH  33  35
ENDBRANCH  23  33
ENDBRANCH   1  23
TORSDOF 8
