REMARK  Name = ZINC12543822
REMARK  7 active torsions:
REMARK  status: ('A' for Active; 'I' for Inactive)
REMARK    1  A    between atoms: C_1  and  C_2
REMARK    2  A    between atoms: C_2  and  C_3
REMARK    3  A    between atoms: C_6  and  N_9
REMARK    4  A    between atoms: C_10  and  C_21
REMARK    5  A    between atoms: C_24  and  O_27
REMARK    6  A    between atoms: O_27  and  C_28
REMARK    7  A    between atoms: C_28  and  C_29
REMARK                            x       y       z     vdW  Elec       q    Type
REMARK                         _______ _______ _______ _____ _____    ______ ____
ROOT
ATOM      1  N   UNL     1      -2.667   2.915   4.675  0.00  0.00    -0.244 N 
ATOM      2  C   UNL     1      -2.210   4.141   5.328  0.00  0.00    +0.198 C 
ATOM      3  N   UNL     1      -3.343   4.848   5.938  0.00  0.00    -0.321 N 
ATOM      4  C   UNL     1      -4.290   4.112   6.641  0.00  0.00    +0.041 A 
ATOM      5  C   UNL     1      -5.010   4.662   7.688  0.00  0.00    +0.024 A 
ATOM      6  C   UNL     1      -5.948   3.894   8.351  0.00  0.00    +0.002 A 
ATOM      7  C   UNL     1      -6.176   2.580   7.974  0.00  0.00    +0.001 A 
ATOM      8  C   UNL     1      -5.465   2.015   6.936  0.00  0.00    +0.015 A 
ATOM      9  C   UNL     1      -4.511   2.776   6.262  0.00  0.00    +0.058 A 
ATOM     10  C   UNL     1      -3.712   2.215   5.160  0.00  0.00    +0.254 C 
ATOM     11  O   UNL     1      -3.990   1.126   4.694  0.00  0.00    -0.270 OA
ATOM     12  H   UNL     1      -3.429   5.810   5.851  0.00  0.00    +0.148 HD
ENDROOT
BRANCH   1  16
ATOM     13  C   UNL     1      -0.718   1.573   1.248  0.00  0.00    -0.048 A 
ATOM     14  C   UNL     1      -1.275   2.838   1.274  0.00  0.00    +0.005 A 
ATOM     15  C   UNL     1      -1.927   3.284   2.406  0.00  0.00    +0.024 A 
ATOM     16  C   UNL     1      -2.013   2.464   3.524  0.00  0.00    +0.039 A 
ATOM     17  C   UNL     1      -1.448   1.196   3.497  0.00  0.00    +0.024 A 
ATOM     18  C   UNL     1      -0.802   0.754   2.359  0.00  0.00    +0.005 A 
BRANCH  13  20
ATOM     19  C   UNL     1      -1.016   0.380  -0.906  0.00  0.00    +0.009 C 
ATOM     20  C   UNL     1      -0.012   1.087   0.008  0.00  0.00    +0.032 C 
ENDBRANCH  13  20
ENDBRANCH   1  16
BRANCH   2  21
ATOM     21  C   UNL     1      -1.206   3.793   6.397  0.00  0.00    -0.009 A 
ATOM     22  C   UNL     1      -0.409   2.672   6.256  0.00  0.00    +0.010 A 
ATOM     23  C   UNL     1       0.515   2.353   7.232  0.00  0.00    +0.046 A 
ATOM     24  C   UNL     1       0.636   3.152   8.360  0.00  0.00    +0.121 A 
ATOM     25  C   UNL     1      -0.169   4.274   8.501  0.00  0.00    +0.046 A 
ATOM     26  C   UNL     1      -1.088   4.591   7.520  0.00  0.00    +0.010 A 
BRANCH  24  27
ATOM     27  O   UNL     1       1.540   2.838   9.324  0.00  0.00    -0.483 OA
BRANCH  27  28
ATOM     28  C   UNL     1       2.335   1.669   9.111  0.00  0.00    +0.324 C 
BRANCH  28  29
ATOM     29  C   UNL     1       3.272   1.481  10.276  0.00  0.00    +0.248 C 
ATOM     30  O   UNL     1       3.261   2.270  11.197  0.00  0.00    -0.272 OA
ATOM     31  N   UNL     1       4.124   0.436  10.294  0.00  0.00    -0.327 N 
ATOM     32  H   UNL     1       4.133  -0.195   9.557  0.00  0.00    +0.145 HD
ATOM     33  H   UNL     1       4.727   0.315  11.043  0.00  0.00    +0.145 HD
ENDBRANCH  28  29
ENDBRANCH  27  28
ENDBRANCH  24  27
ENDBRANCH   2  21
TORSDOF 6
