REMARK  Name = ZINC13985404
REMARK  7 active torsions:
REMARK  status: ('A' for Active; 'I' for Inactive)
REMARK    1  A    between atoms: C_5  and  C_7
REMARK    2  A    between atoms: N_9  and  C_10
REMARK    3  A    between atoms: C_10  and  N_12
REMARK    4  A    between atoms: N_12  and  N_13
REMARK    5  A    between atoms: C_14  and  C_16
REMARK    6  A    between atoms: C_16  and  N_17
REMARK    7  A    between atoms: C_18  and  C_20
REMARK                            x       y       z     vdW  Elec       q    Type
REMARK                         _______ _______ _______ _____ _____    ______ ____
ROOT
ATOM      1  N   UNL     1       2.323   0.998  -0.015  0.00  0.00    -0.245 N 
ATOM      2  H   UNL     1       3.156   1.494  -0.020  0.00  0.00    +0.172 HD
ENDROOT
BRANCH   1   3
ATOM      3  N   UNL     1       2.342  -0.403  -0.022  0.00  0.00    -0.234 N 
ATOM      4  C   UNL     1       3.518  -1.061  -0.037  0.00  0.00    +0.246 C 
ATOM      5  O   UNL     1       4.560  -0.441  -0.044  0.00  0.00    -0.273 OA
ATOM      6  H   UNL     1       1.509  -0.900  -0.017  0.00  0.00    +0.173 HD
BRANCH   4   7
ATOM      7  C   UNL     1       3.539  -2.568  -0.045  0.00  0.00    +0.201 C 
BRANCH   7   8
ATOM      8  N   UNL     1       4.926  -3.038  -0.061  0.00  0.00    -0.306 N 
ATOM      9  C   UNL     1       5.191  -4.359  -0.071  0.00  0.00    +0.217 C 
ATOM     10  O   UNL     1       4.279  -5.160  -0.067  0.00  0.00    -0.276 OA
ATOM     11  H   UNL     1       5.655  -2.397  -0.065  0.00  0.00    +0.149 HD
BRANCH   9  12
ATOM     12  C   UNL     1       6.618  -4.842  -0.087  0.00  0.00    +0.075 C 
ATOM     13  C   UNL     1       7.320  -4.316  -1.340  0.00  0.00    +0.013 C 
ATOM     14  C   UNL     1       8.769  -4.806  -1.357  0.00  0.00    +0.001 C 
ATOM     15  C   UNL     1       8.790  -6.336  -1.365  0.00  0.00    +0.000 C 
ATOM     16  C   UNL     1       8.088  -6.862  -0.112  0.00  0.00    +0.001 C 
ATOM     17  C   UNL     1       6.639  -6.372  -0.096  0.00  0.00    +0.013 C 
ENDBRANCH   9  12
ENDBRANCH   7   8
ENDBRANCH   4   7
ENDBRANCH   1   3
BRANCH   1  18
ATOM     18  C   UNL     1       1.147   1.655   0.000  0.00  0.00    +0.153 C 
ATOM     19  S   UNL     1       1.124   3.367   0.009  0.00  0.00    -0.017 S 
BRANCH  18  22
ATOM     20  C   UNL     1      -1.187   1.624   0.017  0.00  0.00    +0.251 C 
ATOM     21  O   UNL     1      -1.204   2.839   0.023  0.00  0.00    -0.270 OA
ATOM     22  N   UNL     1      -0.011   0.966   0.007  0.00  0.00    -0.263 N 
ATOM     23  H   UNL     1       0.002  -0.004   0.002  0.00  0.00    +0.157 HD
BRANCH  20  28
ATOM     24  C   UNL     1      -3.630  -1.228   0.012  0.00  0.00    +0.001 A 
ATOM     25  C   UNL     1      -4.836  -0.550   0.022  0.00  0.00    +0.001 A 
ATOM     26  C   UNL     1      -4.859   0.833   0.030  0.00  0.00    +0.015 A 
ATOM     27  C   UNL     1      -3.677   1.546   0.028  0.00  0.00    +0.025 A 
ATOM     28  C   UNL     1      -2.457   0.868   0.018  0.00  0.00    +0.050 A 
ATOM     29  C   UNL     1      -2.441  -0.528   0.005  0.00  0.00    +0.014 A 
ATOM     30  I   UNL     1      -3.714   3.641   0.039  0.00  0.00    -0.043 I 
ENDBRANCH  20  28
ENDBRANCH  18  22
ENDBRANCH   1  18
TORSDOF 7
