REMARK  Name = ZINC67430317
REMARK  4 active torsions:
REMARK  status: ('A' for Active; 'I' for Inactive)
REMARK    1  A    between atoms: C_4  and  N_10
REMARK    2  A    between atoms: C_6  and  N_7
REMARK    3  A    between atoms: C_11  and  C_13
REMARK    4  A    between atoms: N_15  and  C_16
REMARK                            x       y       z     vdW  Elec       q    Type
REMARK                         _______ _______ _______ _____ _____    ______ ____
ROOT
ATOM      1  N   UNL     1       3.620  -0.654  -0.036  0.00  0.00    -0.275 N 
ATOM      2  C   UNL     1       3.642  -1.998   0.058  0.00  0.00    +0.303 C 
ATOM      3  O   UNL     1       2.602  -2.623   0.065  0.00  0.00    -0.265 OA
ATOM      4  H   UNL     1       4.451  -0.161  -0.123  0.00  0.00    +0.155 HD
ENDROOT
BRANCH   1   8
ATOM      5  C   UNL     1      -0.015   1.380   0.043  0.00  0.00    +0.035 A 
ATOM      6  C   UNL     1       1.083   1.955  -0.572  0.00  0.00    +0.042 A 
ATOM      7  C   UNL     1       2.291   1.284  -0.600  0.00  0.00    +0.145 A 
ATOM      8  C   UNL     1       2.401   0.029  -0.009  0.00  0.00    +0.072 A 
ATOM      9  C   UNL     1       1.296  -0.544   0.606  0.00  0.00    +0.059 A 
ATOM     10  C   UNL     1       0.092   0.133   0.631  0.00  0.00    +0.128 A 
ATOM     11  F   UNL     1       3.363   1.845  -1.201  0.00  0.00    -0.204 F 
BRANCH  10  12
ATOM     12  N   UNL     1      -1.086  -0.477   1.287  0.00  0.00    +0.056 N 
ATOM     13  O   UNL     1      -2.140   0.114   1.309  0.00  0.00    -0.126 OA
ATOM     14  O   UNL     1      -0.994  -1.568   1.801  0.00  0.00    -0.126 OA
ENDBRANCH  10  12
ENDBRANCH   1   8
BRANCH   2  15
ATOM     15  C   UNL     1       4.947  -2.719   0.154  0.00  0.00    +0.300 C 
ATOM     16  O   UNL     1       5.987  -2.094   0.147  0.00  0.00    -0.265 OA
ATOM     17  N   UNL     1       4.969  -4.063   0.248  0.00  0.00    -0.301 N 
ATOM     18  H   UNL     1       4.137  -4.563   0.254  0.00  0.00    +0.150 HD
BRANCH  17  19
ATOM     19  C   UNL     1       6.248  -4.770   0.342  0.00  0.00    +0.104 C 
ATOM     20  C   UNL     1       6.092  -6.227  -0.144  0.00  0.00    +0.032 C 
ATOM     21  C   UNL     1       5.783  -6.982   1.166  0.00  0.00    +0.037 C 
ATOM     22  C   UNL     1       6.416  -6.151   2.261  0.00  0.00    -0.041 A 
ATOM     23  C   UNL     1       6.684  -4.877   1.788  0.00  0.00    -0.024 A 
ATOM     24  C   UNL     1       7.268  -3.938   2.620  0.00  0.00    +0.007 A 
ATOM     25  C   UNL     1       7.585  -4.265   3.924  0.00  0.00    +0.020 A 
ATOM     26  C   UNL     1       7.318  -5.536   4.401  0.00  0.00    +0.041 A 
ATOM     27  C   UNL     1       6.733  -6.481   3.568  0.00  0.00    +0.024 A 
ATOM     28 CL   UNL     1       7.715  -5.951   6.039  0.00  0.00    -0.084 Cl
ENDBRANCH  17  19
ENDBRANCH   2  15
TORSDOF 4
