REMARK  Name = ZINC09099346
REMARK  9 active torsions:
REMARK  status: ('A' for Active; 'I' for Inactive)
REMARK    1  A    between atoms: C_1  and  C_2
REMARK    2  A    between atoms: C_2  and  C_4
REMARK    3  A    between atoms: C_2  and  S_17
REMARK    4  A    between atoms: N_6  and  C_7
REMARK    5  A    between atoms: C_10  and  S_13
REMARK    6  A    between atoms: S_13  and  N_16
REMARK    7  A    between atoms: S_17  and  C_18
REMARK    8  A    between atoms: C_21  and  C_29
REMARK    9  A    between atoms: C_22  and  C_24
REMARK                            x       y       z     vdW  Elec       q    Type
REMARK                         _______ _______ _______ _____ _____    ______ ____
ROOT
ATOM      1  C   UNL     1      -3.880  -0.467   3.166  0.00  0.00    +0.029 C 
ATOM      2  C   UNL     1      -4.878  -0.480   2.006  0.00  0.00    +0.137 C 
ENDROOT
BRANCH   2   3
ATOM      3  C   UNL     1      -6.280  -0.378   2.549  0.00  0.00    +0.230 C 
ATOM      4  O   UNL     1      -6.931  -1.383   2.739  0.00  0.00    -0.274 OA
ATOM      5  N   UNL     1      -6.811   0.830   2.823  0.00  0.00    -0.285 N 
ATOM      6  H   UNL     1      -6.268   1.629   2.735  0.00  0.00    +0.155 HD
BRANCH   5   7
ATOM      7  C   UNL     1      -8.144   0.932   3.234  0.00  0.00    +0.034 A 
ATOM      8  C   UNL     1      -8.910   2.024   2.849  0.00  0.00    +0.025 A 
ATOM      9  C   UNL     1     -10.228   2.118   3.251  0.00  0.00    +0.030 A 
ATOM     10  C   UNL     1     -10.781   1.132   4.048  0.00  0.00    +0.105 A 
ATOM     11  C   UNL     1     -10.019   0.047   4.439  0.00  0.00    +0.030 A 
ATOM     12  C   UNL     1      -8.703  -0.057   4.034  0.00  0.00    +0.025 A 
BRANCH  10  13
ATOM     13  S   UNL     1     -12.460   1.260   4.565  0.00  0.00    +0.056 S 
ATOM     14  O   UNL     1     -13.116   2.092   3.618  0.00  0.00    -0.153 OA
ATOM     15  O   UNL     1     -12.899  -0.061   4.851  0.00  0.00    -0.153 OA
BRANCH  13  16
ATOM     16  N   UNL     1     -12.469   2.083   6.002  0.00  0.00    -0.204 NA
ATOM     17  H   UNL     1     -11.634   2.389   6.391  0.00  0.00    +0.144 HD
ATOM     18  H   UNL     1     -13.308   2.258   6.456  0.00  0.00    +0.144 HD
ENDBRANCH  13  16
ENDBRANCH  10  13
ENDBRANCH   5   7
ENDBRANCH   2   3
BRANCH   2  19
ATOM     19  S   UNL     1      -4.702  -2.022   1.075  0.00  0.00    -0.075 S 
BRANCH  19  20
ATOM     20  C   UNL     1      -3.069  -1.815   0.446  0.00  0.00    +0.168 A 
ATOM     21  N   UNL     1      -2.410  -2.707  -0.346  0.00  0.00    -0.332 N 
ATOM     22  H   UNL     1      -2.762  -3.585  -0.670  0.00  0.00    +0.168 HD
ATOM     23  C   UNL     1      -1.163  -2.170  -0.618  0.00  0.00    +0.082 A 
ATOM     24  C   UNL     1      -1.117  -0.948   0.035  0.00  0.00    +0.105 A 
ATOM     25  N   UNL     1      -2.295  -0.780   0.671  0.00  0.00    -0.221 NA
BRANCH  24  26
ATOM     26  C   UNL     1       0.017  -0.005   0.040  0.00  0.00    +0.040 A 
ATOM     27  C   UNL     1       0.001   1.366   0.053  0.00  0.00    +0.018 A 
ATOM     28  C   UNL     1       1.202   2.042   0.055  0.00  0.00    +0.008 A 
ATOM     29  C   UNL     1       2.360   1.333   0.044  0.00  0.00    +0.046 A 
ATOM     30  S   UNL     1       1.769  -0.351   0.030  0.00  0.00    -0.095 S 
ENDBRANCH  24  26
BRANCH  23  31
ATOM     31  C   UNL     1      -0.102  -2.773  -1.434  0.00  0.00    +0.038 A 
ATOM     32  C   UNL     1       0.370  -4.074  -1.428  0.00  0.00    +0.017 A 
ATOM     33  C   UNL     1       1.383  -4.406  -2.300  0.00  0.00    +0.008 A 
ATOM     34  C   UNL     1       1.890  -3.453  -3.124  0.00  0.00    +0.046 A 
ATOM     35  S   UNL     1       0.921  -2.019  -2.688  0.00  0.00    -0.095 S 
ENDBRANCH  23  31
ENDBRANCH  19  20
ENDBRANCH   2  19
TORSDOF 8
