REMARK  Name = ZINC15099688
REMARK  15 active torsions:
REMARK  status: ('A' for Active; 'I' for Inactive)
REMARK    1  A    between atoms: C_1  and  C_2
REMARK    2  A    between atoms: C_2  and  C_3
REMARK    3  A    between atoms: C_3  and  C_4
REMARK    4  A    between atoms: C_4  and  N_5
REMARK    5  A    between atoms: C_6  and  N_34
REMARK    6  A    between atoms: C_7  and  N_14
REMARK    7  A    between atoms: N_14  and  C_15
REMARK    8  A    between atoms: C_20  and  C_22
REMARK    9  A    between atoms: C_22  and  N_71
REMARK   10  A    between atoms: C_23  and  N_71
REMARK   11  A    between atoms: C_24  and  C_25
REMARK   12  A    between atoms: C_24  and  N_71
REMARK   13  A    between atoms: C_25  and  O_26
REMARK   14  A    between atoms: O_26  and  C_27
REMARK   15  A    between atoms: C_32  and  C_33
REMARK                            x       y       z     vdW  Elec       q    Type
REMARK                         _______ _______ _______ _____ _____    ______ ____
ROOT
ATOM      1  N   UNL     1      -6.690   3.439   2.544  0.00  0.00    -0.263 N 
ATOM      2  C   UNL     1      -5.389   3.118   2.382  0.00  0.00    +0.204 C 
ATOM      3  O   UNL     1      -4.756   3.597   1.466  0.00  0.00    -0.277 OA
ENDROOT
BRANCH   1   6
ATOM      4  N   UNL     1      -7.776   2.843   6.003  0.00  0.00    -0.280 N 
ATOM      5  C   UNL     1      -7.061   3.336   4.937  0.00  0.00    +0.127 A 
ATOM      6  C   UNL     1      -7.405   2.950   3.658  0.00  0.00    +0.140 A 
ATOM      7  C   UNL     1      -8.484   2.064   3.483  0.00  0.00    +0.277 A 
ATOM      8  O   UNL     1      -8.812   1.709   2.363  0.00  0.00    -0.266 OA
ATOM      9  N   UNL     1      -9.149   1.605   4.561  0.00  0.00    -0.273 N 
ATOM     10  H   UNL     1      -9.911   0.970   4.439  0.00  0.00    +0.173 HD
ATOM     11  C   UNL     1      -8.800   1.993   5.801  0.00  0.00    +0.331 A 
ATOM     12  O   UNL     1      -9.420   1.568   6.756  0.00  0.00    -0.246 OA
BRANCH   5  13
ATOM     13  N   UNL     1      -6.016   4.205   5.144  0.00  0.00    -0.343 N 
ATOM     14  H   UNL     1      -5.567   4.612   4.386  0.00  0.00    +0.144 HD
ATOM     15  H   UNL     1      -5.727   4.410   6.046  0.00  0.00    +0.144 HD
ENDBRANCH   5  13
BRANCH   4  16
ATOM     16  C   UNL     1      -7.422   3.244   7.367  0.00  0.00    +0.128 C 
BRANCH  16  17
ATOM     17  C   UNL     1      -8.207   4.501   7.748  0.00  0.00    +0.021 C 
BRANCH  17  19
ATOM     18  C   UNL     1      -8.621   6.177   9.554  0.00  0.00    +0.004 C 
ATOM     19  C   UNL     1      -7.836   4.920   9.172  0.00  0.00    -0.002 C 
ENDBRANCH  17  19
ENDBRANCH  16  17
ENDBRANCH   4  16
ENDBRANCH   1   6
BRANCH   1  20
ATOM     20  C   UNL     1      -7.361   4.295   1.562  0.00  0.00    +0.082 C 
ATOM     21  C   UNL     1      -7.340   3.624   0.173  0.00  0.00    +0.023 C 
ATOM     22  C   UNL     1      -7.134   4.801  -0.814  0.00  0.00    +0.002 C 
ATOM     23  C   UNL     1      -6.146   5.718  -0.051  0.00  0.00    +0.002 C 
ATOM     24  C   UNL     1      -6.602   5.627   1.419  0.00  0.00    +0.023 C 
ENDBRANCH   1  20
BRANCH   2  25
ATOM     25  C   UNL     1      -4.724   2.164   3.341  0.00  0.00    +0.019 C 
BRANCH  25  27
ATOM     26  C   UNL     1      -3.388   1.131   1.606  0.00  0.00    -0.095 C 
ATOM     27  N   UNL     1      -3.349   1.897   2.870  0.00  0.00    +0.386 N 
ATOM     28  H   UNL     1      -2.874   2.792   2.703  0.00  0.00    -0.081 HD
BRANCH  27  29
ATOM     29  C   UNL     1      -2.602   1.140   3.896  0.00  0.00    -0.037 C 
BRANCH  29  30
ATOM     30  C   UNL     1      -1.130   1.072   3.485  0.00  0.00    +0.210 C 
BRANCH  30  31
ATOM     31  O   UNL     1      -0.577   2.389   3.474  0.00  0.00    -0.494 OA
BRANCH  31  32
ATOM     32  C   UNL     1       0.732   2.506   3.127  0.00  0.00    +0.123 A 
ATOM     33  C   UNL     1       1.471   1.375   2.809  0.00  0.00    +0.046 A 
ATOM     34  C   UNL     1       2.802   1.496   2.463  0.00  0.00    +0.004 A 
ATOM     35  C   UNL     1       3.399   2.743   2.432  0.00  0.00    +0.000 A 
ATOM     36  C   UNL     1       2.666   3.871   2.748  0.00  0.00    +0.007 A 
ATOM     37  C   UNL     1       1.333   3.756   3.095  0.00  0.00    -0.009 A 
ATOM     38  C   UNL     1       0.534   4.986   3.440  0.00  0.00    +0.047 C 
ENDBRANCH  31  32
ENDBRANCH  30  31
ENDBRANCH  29  30
ENDBRANCH  27  29
ENDBRANCH  25  27
ENDBRANCH   2  25
TORSDOF 12
