REMARK  Name = ZINC13895795
REMARK  12 active torsions:
REMARK  status: ('A' for Active; 'I' for Inactive)
REMARK    1  A    between atoms: C_1  and  C_2
REMARK    2  A    between atoms: C_2  and  O_3
REMARK    3  A    between atoms: O_3  and  C_4
REMARK    4  A    between atoms: C_6  and  C_15
REMARK    5  A    between atoms: C_9  and  O_10
REMARK    6  A    between atoms: O_10  and  C_11
REMARK    7  A    between atoms: C_11  and  C_12
REMARK    8  A    between atoms: N_19  and  C_33
REMARK    9  A    between atoms: N_21  and  C_22
REMARK   10  A    between atoms: C_25  and  C_28
REMARK   11  A    between atoms: C_28  and  O_30
REMARK   12  A    between atoms: O_30  and  C_31
REMARK                            x       y       z     vdW  Elec       q    Type
REMARK                         _______ _______ _______ _____ _____    ______ ____
ROOT
ATOM      1  C   UNL     1       0.612  -4.949  -0.019  0.00  0.00    +0.028 C 
ATOM      2  C   UNL     1       0.449  -6.294   0.078  0.00  0.00    +0.078 C 
ATOM      3  C   UNL     1      -0.794  -7.087   0.095  0.00  0.00    +0.259 C 
ATOM      4  O   UNL     1      -1.888  -6.559   0.017  0.00  0.00    -0.269 OA
ATOM      5  N   UNL     1      -0.666  -8.399   0.200  0.00  0.00    -0.249 N 
ATOM      6  C   UNL     1       0.579  -8.979   0.287  0.00  0.00    +0.168 C 
ATOM      7  N   UNL     1       0.881 -10.256   0.395  0.00  0.00    -0.226 NA
ATOM      8  S   UNL     1       1.684  -7.579   0.210  0.00  0.00    -0.049 S 
ATOM      9  C   UNL     1      -1.863  -9.245   0.223  0.00  0.00    +0.140 C 
ENDROOT
BRANCH   1  12
ATOM     10  C   UNL     1      -1.738  -2.102  -0.677  0.00  0.00    +0.162 A 
ATOM     11  C   UNL     1      -0.639  -2.933  -0.761  0.00  0.00    +0.057 A 
ATOM     12  C   UNL     1      -0.554  -4.061   0.065  0.00  0.00    -0.020 A 
ATOM     13  C   UNL     1      -1.585  -4.338   0.971  0.00  0.00    +0.012 A 
ATOM     14  C   UNL     1      -2.678  -3.503   1.047  0.00  0.00    +0.050 A 
ATOM     15  C   UNL     1      -2.758  -2.382   0.232  0.00  0.00    +0.163 A 
BRANCH  10  16
ATOM     16  O   UNL     1      -1.824  -1.006  -1.478  0.00  0.00    -0.489 OA
BRANCH  16  18
ATOM     17  C   UNL     1      -1.016   0.490  -3.196  0.00  0.00    +0.048 C 
ATOM     18  C   UNL     1      -0.744  -0.779  -2.386  0.00  0.00    +0.226 C 
ENDBRANCH  16  18
ENDBRANCH  10  16
BRANCH  15  19
ATOM     19  O   UNL     1      -3.835  -1.559   0.316  0.00  0.00    -0.479 OA
BRANCH  19  20
ATOM     20  C   UNL     1      -4.843  -1.905   1.268  0.00  0.00    +0.324 C 
BRANCH  20  21
ATOM     21  C   UNL     1      -5.951  -0.885   1.219  0.00  0.00    +0.248 C 
ATOM     22  O   UNL     1      -5.885   0.046   0.445  0.00  0.00    -0.272 OA
ATOM     23  N   UNL     1      -7.016  -1.008   2.036  0.00  0.00    -0.327 N 
ATOM     24  H   UNL     1      -7.070  -1.753   2.655  0.00  0.00    +0.145 HD
ATOM     25  H   UNL     1      -7.730  -0.351   2.004  0.00  0.00    +0.145 HD
ENDBRANCH  20  21
ENDBRANCH  19  20
ENDBRANCH  15  19
ENDBRANCH   1  12
BRANCH   7  26
ATOM     26  C   UNL     1       2.185 -10.643   0.469  0.00  0.00    +0.067 A 
ATOM     27  C   UNL     1       3.133 -10.083  -0.397  0.00  0.00    +0.028 A 
ATOM     28  C   UNL     1       4.439 -10.470  -0.321  0.00  0.00    +0.017 A 
ATOM     29  C   UNL     1       4.832 -11.428   0.621  0.00  0.00    +0.059 A 
ATOM     30  C   UNL     1       3.884 -11.988   1.487  0.00  0.00    +0.017 A 
ATOM     31  C   UNL     1       2.580 -11.597   1.416  0.00  0.00    +0.028 A 
BRANCH  29  32
ATOM     32  C   UNL     1       6.240 -11.846   0.702  0.00  0.00    +0.339 C 
ATOM     33  O   UNL     1       7.063 -11.361  -0.050  0.00  0.00    -0.245 OA
BRANCH  32  34
ATOM     34  O   UNL     1       6.619 -12.768   1.609  0.00  0.00    -0.464 OA
ATOM     35  C   UNL     1       8.002 -13.127   1.632  0.00  0.00    +0.280 C 
ENDBRANCH  32  34
ENDBRANCH  29  32
ENDBRANCH   7  26
TORSDOF 9
