REMARK  Name = ZINC67261597
REMARK  8 active torsions:
REMARK  status: ('A' for Active; 'I' for Inactive)
REMARK    1  A    between atoms: C_1  and  C_2
REMARK    2  A    between atoms: C_2  and  C_4
REMARK    3  A    between atoms: C_2  and  N_14
REMARK    4  A    between atoms: C_7  and  O_12
REMARK    5  A    between atoms: C_8  and  O_10
REMARK    6  A    between atoms: O_10  and  C_11
REMARK    7  A    between atoms: O_12  and  C_13
REMARK    8  A    between atoms: N_24  and  C_27
REMARK                            x       y       z     vdW  Elec       q    Type
REMARK                         _______ _______ _______ _____ _____    ______ ____
ROOT
ATOM      1  N   UNL     1      -1.319  -1.036  -0.031  0.00  0.00    -0.307 N 
ATOM      2  C   UNL     1      -1.986  -1.222   1.161  0.00  0.00    +0.218 A 
ATOM      3  N   UNL     1      -1.283  -1.601   2.224  0.00  0.00    -0.222 NA
ATOM      4  C   UNL     1      -1.844  -1.802   3.402  0.00  0.00    +0.131 A 
ATOM      5  C   UNL     1      -3.226  -1.604   3.518  0.00  0.00    +0.102 A 
ATOM      6  C   UNL     1      -3.971  -1.185   2.322  0.00  0.00    +0.175 A 
ATOM      7  N   UNL     1      -3.292  -1.009   1.188  0.00  0.00    -0.194 NA
ATOM      8  N   UNL     1      -5.288  -0.994   2.423  0.00  0.00    -0.173 NA
ATOM      9  C   UNL     1      -5.906  -1.180   3.582  0.00  0.00    +0.358 A 
ATOM     10  O   UNL     1      -7.111  -0.995   3.634  0.00  0.00    -0.244 OA
ATOM     11  N   UNL     1      -5.271  -1.562   4.701  0.00  0.00    -0.227 N 
ATOM     12  C   UNL     1      -3.934  -1.785   4.715  0.00  0.00    +0.272 A 
ATOM     13  O   UNL     1      -3.306  -2.168   5.841  0.00  0.00    -0.266 OA
ATOM     14  H   UNL     1      -1.806  -0.755  -0.821  0.00  0.00    +0.149 HD
ENDROOT
BRANCH  11  15
ATOM     15  C   UNL     1      -6.007  -1.734   5.882  0.00  0.00    +0.058 A 
ATOM     16  C   UNL     1      -6.184  -0.666   6.751  0.00  0.00    +0.030 A 
ATOM     17  C   UNL     1      -6.909  -0.834   7.915  0.00  0.00    +0.051 A 
ATOM     18  C   UNL     1      -7.461  -2.068   8.219  0.00  0.00    +0.166 A 
ATOM     19  C   UNL     1      -7.284  -3.141   7.348  0.00  0.00    +0.168 A 
ATOM     20  C   UNL     1      -6.563  -2.970   6.179  0.00  0.00    +0.076 A 
ATOM     21  O   UNL     1      -7.918  -4.233   7.868  0.00  0.00    -0.453 OA
ATOM     22  C   UNL     1      -8.136  -3.926   9.258  0.00  0.00    +0.466 C 
ATOM     23  O   UNL     1      -8.205  -2.488   9.284  0.00  0.00    -0.453 OA
ENDBRANCH  11  15
BRANCH   1  25
ATOM     24  C   UNL     1       0.863   0.006   0.338  0.00  0.00    +0.033 C 
ATOM     25  C   UNL     1       0.127  -1.261  -0.103  0.00  0.00    +0.100 C 
BRANCH  25  26
ATOM     26  C   UNL     1       0.512  -1.597  -1.521  0.00  0.00    -0.024 A 
ATOM     27  C   UNL     1      -0.076  -0.922  -2.574  0.00  0.00    +0.009 A 
ATOM     28  C   UNL     1       0.274  -1.228  -3.876  0.00  0.00    +0.050 A 
ATOM     29  C   UNL     1       1.217  -2.212  -4.128  0.00  0.00    +0.162 A 
ATOM     30  C   UNL     1       1.810  -2.891  -3.067  0.00  0.00    +0.162 A 
ATOM     31  C   UNL     1       1.458  -2.577  -1.764  0.00  0.00    +0.054 A 
BRANCH  30  32
ATOM     32  O   UNL     1       2.735  -3.857  -3.309  0.00  0.00    -0.491 OA
ATOM     33  C   UNL     1       3.301  -4.512  -2.172  0.00  0.00    +0.277 C 
ENDBRANCH  30  32
BRANCH  29  34
ATOM     34  O   UNL     1       1.562  -2.513  -5.408  0.00  0.00    -0.491 OA
ATOM     35  C   UNL     1       0.913  -1.776  -6.446  0.00  0.00    +0.277 C 
ENDBRANCH  29  34
ENDBRANCH  25  26
ENDBRANCH   1  25
TORSDOF 5
