REMARK  Name = ZINC08868606
REMARK  12 active torsions:
REMARK  status: ('A' for Active; 'I' for Inactive)
REMARK    1  A    between atoms: C_1  and  C_2
REMARK    2  A    between atoms: C_2  and  O_3
REMARK    3  A    between atoms: O_3  and  C_4
REMARK    4  A    between atoms: C_7  and  N_13
REMARK    5  A    between atoms: C_9  and  O_10
REMARK    6  A    between atoms: O_10  and  C_11
REMARK    7  A    between atoms: C_11  and  C_12
REMARK    8  A    between atoms: C_15  and  C_20
REMARK    9  A    between atoms: C_20  and  N_21
REMARK   10  A    between atoms: N_24  and  C_25
REMARK   11  A    between atoms: C_28  and  C_32
REMARK   12  A    between atoms: C_29  and  C_31
REMARK                            x       y       z     vdW  Elec       q    Type
REMARK                         _______ _______ _______ _____ _____    ______ ____
ROOT
ATOM      1  N   UNL     1      -4.563   7.833   1.824  0.00  0.00    -0.234 N 
ATOM      2  C   UNL     1      -3.951   7.545   0.517  0.00  0.00    +0.163 C 
ATOM      3  C   UNL     1      -3.898   6.006   0.468  0.00  0.00    +0.213 C 
ATOM      4  O   UNL     1      -4.480   5.589   1.737  0.00  0.00    -0.444 OA
ATOM      5  C   UNL     1      -4.827   6.675   2.443  0.00  0.00    +0.408 C 
ATOM      6  O   UNL     1      -5.337   6.613   3.545  0.00  0.00    -0.226 OA
ENDROOT
BRANCH   1  10
ATOM      7  C   UNL     1      -5.346  11.640   3.345  0.00  0.00    +0.162 A 
ATOM      8  C   UNL     1      -4.764  11.498   2.096  0.00  0.00    +0.051 A 
ATOM      9  C   UNL     1      -4.505  10.237   1.592  0.00  0.00    +0.027 A 
ATOM     10  C   UNL     1      -4.827   9.111   2.336  0.00  0.00    +0.043 A 
ATOM     11  C   UNL     1      -5.415   9.249   3.586  0.00  0.00    +0.073 A 
ATOM     12  C   UNL     1      -5.670  10.512   4.094  0.00  0.00    +0.164 A 
BRANCH   7  13
ATOM     13  O   UNL     1      -5.602  12.881   3.840  0.00  0.00    -0.489 OA
BRANCH  13  15
ATOM     14  C   UNL     1      -5.604  15.296   3.736  0.00  0.00    +0.048 C 
ATOM     15  C   UNL     1      -5.244  13.993   3.017  0.00  0.00    +0.226 C 
ENDBRANCH  13  15
ENDBRANCH   7  13
BRANCH  12  16
ATOM     16  O   UNL     1      -6.242  10.650   5.320  0.00  0.00    -0.489 OA
BRANCH  16  17
ATOM     17  C   UNL     1      -6.547   9.450   6.032  0.00  0.00    +0.226 C 
ATOM     18  C   UNL     1      -7.179   9.803   7.380  0.00  0.00    +0.048 C 
ENDBRANCH  16  17
ENDBRANCH  12  16
ENDBRANCH   1  10
BRANCH   3  19
ATOM     19  C   UNL     1      -2.450   5.523   0.357  0.00  0.00    +0.152 C 
BRANCH  19  20
ATOM     20  N   UNL     1      -2.430   4.063   0.239  0.00  0.00    -0.296 N 
ATOM     21  C   UNL     1      -1.256   3.412   0.128  0.00  0.00    +0.304 C 
ATOM     22  O   UNL     1      -0.212   4.036   0.127  0.00  0.00    -0.253 OA
ATOM     23  N   UNL     1      -1.237   2.069   0.019  0.00  0.00    -0.269 N 
ATOM     24  H   UNL     1      -3.263   3.565   0.240  0.00  0.00    +0.150 HD
ATOM     25  H   UNL     1      -2.070   1.576  -0.047  0.00  0.00    +0.156 HD
BRANCH  23  26
ATOM     26  C   UNL     1      -0.017   1.385   0.002  0.00  0.00    +0.035 A 
ATOM     27  C   UNL     1       1.091   1.953  -0.615  0.00  0.00    +0.023 A 
ATOM     28  C   UNL     1       2.292   1.273  -0.635  0.00  0.00    +0.005 A 
ATOM     29  C   UNL     1       2.394   0.028  -0.042  0.00  0.00    -0.047 A 
ATOM     30  C   UNL     1       1.294  -0.541   0.573  0.00  0.00    -0.046 A 
ATOM     31  C   UNL     1       0.089   0.135   0.596  0.00  0.00    +0.027 A 
ATOM     32  C   UNL     1       1.409  -1.898   1.218  0.00  0.00    +0.044 C 
ATOM     33  C   UNL     1       3.707  -0.712  -0.066  0.00  0.00    +0.044 C 
ENDBRANCH  23  26
ENDBRANCH  19  20
ENDBRANCH   3  19
TORSDOF 8
