REMARK  Name = ZINC11503979
REMARK  8 active torsions:
REMARK  status: ('A' for Active; 'I' for Inactive)
REMARK    1  A    between atoms: C_4  and  O_27
REMARK    2  A    between atoms: C_5  and  C_7
REMARK    3  A    between atoms: C_7  and  O_9
REMARK    4  A    between atoms: O_9  and  C_10
REMARK    5  A    between atoms: C_10  and  C_11
REMARK    6  A    between atoms: C_15  and  C_24
REMARK    7  A    between atoms: O_27  and  C_28
REMARK    8  A    between atoms: C_28  and  C_29
REMARK                            x       y       z     vdW  Elec       q    Type
REMARK                         _______ _______ _______ _____ _____    ______ ____
ROOT
ATOM      1  O   UNL     1      -4.643  -0.191   3.562  0.00  0.00    -0.452 OA
ENDROOT
BRANCH   1   2
ATOM      2  C   UNL     1      -5.928  -0.578   3.679  0.00  0.00    +0.343 C 
ATOM      3  O   UNL     1      -6.649  -0.594   2.701  0.00  0.00    -0.245 OA
BRANCH   2   8
ATOM      4  C   UNL     1      -6.137  -1.341   7.347  0.00  0.00    +0.001 A 
ATOM      5  C   UNL     1      -7.458  -1.739   7.468  0.00  0.00    +0.004 A 
ATOM      6  C   UNL     1      -8.286  -1.760   6.363  0.00  0.00    +0.046 A 
ATOM      7  C   UNL     1      -7.798  -1.379   5.122  0.00  0.00    +0.135 A 
ATOM      8  C   UNL     1      -6.460  -0.981   4.994  0.00  0.00    +0.101 A 
ATOM      9  C   UNL     1      -5.634  -0.964   6.121  0.00  0.00    +0.018 A 
BRANCH   7  10
ATOM     10  O   UNL     1      -8.611  -1.394   4.036  0.00  0.00    -0.487 OA
BRANCH  10  11
ATOM     11  C   UNL     1      -9.962  -1.811   4.243  0.00  0.00    +0.264 C 
BRANCH  11  12
ATOM     12  C   UNL     1     -10.708  -1.765   2.934  0.00  0.00    -0.010 A 
ATOM     13  C   UNL     1     -11.370  -0.612   2.557  0.00  0.00    +0.008 A 
ATOM     14  C   UNL     1     -12.050  -0.567   1.355  0.00  0.00    +0.020 A 
ATOM     15  C   UNL     1     -12.077  -1.680   0.533  0.00  0.00    +0.041 A 
ATOM     16  C   UNL     1     -11.418  -2.835   0.914  0.00  0.00    +0.020 A 
ATOM     17  C   UNL     1     -10.734  -2.877   2.114  0.00  0.00    +0.008 A 
ATOM     18 CL   UNL     1     -12.936  -1.626  -0.974  0.00  0.00    -0.084 Cl
ENDBRANCH  11  12
ENDBRANCH  10  11
ENDBRANCH   7  10
ENDBRANCH   2   8
ENDBRANCH   1   2
BRANCH   1  19
ATOM     19  C   UNL     1      -4.188   0.193   2.237  0.00  0.00    +0.328 C 
BRANCH  19  20
ATOM     20  C   UNL     1      -2.736   0.592   2.301  0.00  0.00    +0.258 C 
ATOM     21  O   UNL     1      -2.119   0.472   3.338  0.00  0.00    -0.272 OA
ATOM     22  N   UNL     1      -2.124   1.083   1.205  0.00  0.00    -0.261 N 
ATOM     23  C   UNL     1      -2.825   1.155  -0.092  0.00  0.00    +0.168 C 
ATOM     24  C   UNL     1      -2.474   2.507  -0.730  0.00  0.00    +0.276 C 
ATOM     25  O   UNL     1      -1.054   2.596  -0.875  0.00  0.00    -0.476 OA
ATOM     26  C   UNL     1      -0.287   2.302   0.207  0.00  0.00    +0.143 A 
ATOM     27  C   UNL     1      -0.798   1.545   1.259  0.00  0.00    +0.078 A 
ATOM     28  C   UNL     1      -0.003   1.249   2.354  0.00  0.00    +0.027 A 
ATOM     29  C   UNL     1       1.301   1.709   2.404  0.00  0.00    +0.002 A 
ATOM     30  C   UNL     1       1.809   2.462   1.363  0.00  0.00    +0.004 A 
ATOM     31  C   UNL     1       1.021   2.760   0.267  0.00  0.00    +0.047 A 
BRANCH  24  32
ATOM     32  C   UNL     1      -3.127   2.611  -2.083  0.00  0.00    +0.253 C 
ATOM     33  O   UNL     1      -2.444   2.663  -3.084  0.00  0.00    -0.272 OA
ATOM     34  N   UNL     1      -4.471   2.648  -2.182  0.00  0.00    -0.326 N 
ATOM     35  H   UNL     1      -5.017   2.607  -1.381  0.00  0.00    +0.145 HD
ATOM     36  H   UNL     1      -4.892   2.715  -3.053  0.00  0.00    +0.145 HD
ENDBRANCH  24  32
ENDBRANCH  19  20
ENDBRANCH   1  19
TORSDOF 8
