REMARK  Name = ZINC54090124
REMARK  8 active torsions:
REMARK  status: ('A' for Active; 'I' for Inactive)
REMARK    1  A    between atoms: C_1  and  C_2
REMARK    2  A    between atoms: C_6  and  C_8
REMARK    3  A    between atoms: C_8  and  N_9
REMARK    4  A    between atoms: N_17  and  C_18
REMARK    5  A    between atoms: C_18  and  C_20
REMARK    6  A    between atoms: C_18  and  C_21
REMARK    7  A    between atoms: C_25  and  S_27
REMARK    8  A    between atoms: S_27  and  N_30
REMARK                            x       y       z     vdW  Elec       q    Type
REMARK                         _______ _______ _______ _____ _____    ______ ____
ROOT
ATOM      1  N   UNL     1       1.442  -3.076   2.907  0.00  0.00    -0.295 NA
ATOM      2  C   UNL     1       2.108  -1.808   3.229  0.00  0.00    +0.104 C 
ATOM      3  C   UNL     1       3.598  -2.065   3.478  0.00  0.00    +0.124 C 
ATOM      4  N   UNL     1       3.725  -3.112   4.503  0.00  0.00    -0.283 N 
ATOM      5  C   UNL     1       2.975  -4.364   4.317  0.00  0.00    +0.124 C 
ATOM      6  C   UNL     1       1.510  -4.015   4.034  0.00  0.00    +0.104 C 
ATOM      7  C   UNL     1       4.509  -2.930   5.585  0.00  0.00    +0.303 C 
ATOM      8  O   UNL     1       4.530  -3.765   6.468  0.00  0.00    -0.253 OA
ATOM      9  N   UNL     1       5.270  -1.823   5.686  0.00  0.00    -0.293 N 
ATOM     10  H   UNL     1       5.200  -1.123   5.018  0.00  0.00    +0.151 HD
ENDROOT
BRANCH   9  11
ATOM     11  C   UNL     1       6.203  -1.675   6.806  0.00  0.00    +0.102 C 
ATOM     12  C   UNL     1       5.462  -1.099   8.014  0.00  0.00    +0.033 C 
BRANCH  11  13
ATOM     13  C   UNL     1       7.320  -0.743   6.410  0.00  0.00    -0.026 A 
ATOM     14  C   UNL     1       7.044   0.388   5.665  0.00  0.00    +0.005 A 
ATOM     15  C   UNL     1       8.068   1.243   5.302  0.00  0.00    +0.002 A 
ATOM     16  C   UNL     1       9.368   0.966   5.685  0.00  0.00    +0.028 A 
ATOM     17  C   UNL     1       9.643  -0.165   6.431  0.00  0.00    +0.105 A 
ATOM     18  C   UNL     1       8.618  -1.017   6.797  0.00  0.00    +0.034 A 
BRANCH  17  19
ATOM     19  S   UNL     1      11.299  -0.517   6.918  0.00  0.00    +0.056 S 
ATOM     20  O   UNL     1      11.366  -1.919   7.143  0.00  0.00    -0.153 OA
ATOM     21  O   UNL     1      12.146   0.146   5.989  0.00  0.00    -0.153 OA
BRANCH  19  22
ATOM     22  N   UNL     1      11.543   0.210   8.385  0.00  0.00    -0.204 NA
ATOM     23  H   UNL     1      10.827   0.714   8.802  0.00  0.00    +0.144 HD
ATOM     24  H   UNL     1      12.403   0.133   8.828  0.00  0.00    +0.144 HD
ENDBRANCH  19  22
ENDBRANCH  17  19
ENDBRANCH  11  13
ENDBRANCH   9  11
BRANCH   1  25
ATOM     25  C   UNL     1       0.051  -2.851   2.493  0.00  0.00    +0.119 C 
BRANCH  25  31
ATOM     26  C   UNL     1      -0.038   1.503   0.026  0.00  0.00    +0.044 C 
ATOM     27  C   UNL     1      -0.013  -0.004   0.014  0.00  0.00    -0.050 A 
ATOM     28  C   UNL     1      -0.008  -0.686  -1.189  0.00  0.00    +0.003 A 
ATOM     29  C   UNL     1       0.015  -2.068  -1.200  0.00  0.00    +0.001 A 
ATOM     30  C   UNL     1       0.034  -2.768  -0.009  0.00  0.00    +0.005 A 
ATOM     31  C   UNL     1       0.030  -2.087   1.194  0.00  0.00    -0.033 A 
ATOM     32  C   UNL     1       0.012  -0.705   1.205  0.00  0.00    +0.008 A 
ENDBRANCH  25  31
ENDBRANCH   1  25
TORSDOF 6
