REMARK  Name = ZINC02759724
REMARK  4 active torsions:
REMARK  status: ('A' for Active; 'I' for Inactive)
REMARK    1  A    between atoms: C_1  and  C_2
REMARK    2  A    between atoms: C_2  and  C_7
REMARK    3  A    between atoms: N_9  and  C_10
REMARK    4  A    between atoms: C_11  and  C_20
REMARK                            x       y       z     vdW  Elec       q    Type
REMARK                         _______ _______ _______ _____ _____    ______ ____
ROOT
ATOM      1  C   UNL     1       0.786   5.064   2.912  0.00  0.00    +0.084 A 
ATOM      2  C   UNL     1       0.541   5.167   1.552  0.00  0.00    +0.068 A 
ATOM      3  C   UNL     1       0.011   3.995   0.867  0.00  0.00    -0.023 A 
ATOM      4  C   UNL     1      -0.192   2.919   1.657  0.00  0.00    -0.004 A 
ATOM      5  S   UNL     1       0.317   3.436   3.273  0.00  0.00    -0.077 S 
ATOM      6  C   UNL     1      -0.740   1.585   1.264  0.00  0.00    +0.043 C 
ATOM      7  C   UNL     1      -0.013   1.086   0.008  0.00  0.00    +0.005 C 
ATOM      8  C   UNL     1      -0.759   1.595  -1.221  0.00  0.00    +0.001 C 
ATOM      9  C   UNL     1      -1.376   2.962  -0.932  0.00  0.00    +0.005 C 
ATOM     10  C   UNL     1      -0.287   3.985  -0.627  0.00  0.00    +0.037 C 
ENDROOT
BRANCH   2  11
ATOM     11  C   UNL     1       0.806   6.413   0.826  0.00  0.00    +0.244 C 
ATOM     12  O   UNL     1      -0.066   7.257   0.727  0.00  0.00    -0.270 OA
ATOM     13  N   UNL     1       2.015   6.625   0.270  0.00  0.00    -0.325 N 
ATOM     14  H   UNL     1       2.710   5.953   0.349  0.00  0.00    +0.145 HD
ATOM     15  H   UNL     1       2.190   7.450  -0.210  0.00  0.00    +0.145 HD
ENDBRANCH   2  11
BRANCH   1  18
ATOM     16  C   UNL     1       1.460   5.741   5.079  0.00  0.00    +0.226 C 
ATOM     17  O   UNL     1       1.179   4.639   5.500  0.00  0.00    -0.275 OA
ATOM     18  N   UNL     1       1.286   6.028   3.773  0.00  0.00    -0.279 N 
ATOM     19  H   UNL     1       1.511   6.910   3.437  0.00  0.00    +0.155 HD
BRANCH  16  21
ATOM     20  C   UNL     1       1.582   8.229   5.710  0.00  0.00    +0.023 C 
ATOM     21  C   UNL     1       2.003   6.790   6.015  0.00  0.00    +0.071 C 
ATOM     22  C   UNL     1       3.405   6.569   6.585  0.00  0.00    +0.048 C 
ATOM     23  C   UNL     1       2.178   6.402   7.485  0.00  0.00    +0.096 C 
ATOM     24 BR   UNL     1       1.847   7.790   8.836  0.00  0.00    -0.071 Br
ATOM     25 BR   UNL     1       1.678   4.574   8.007  0.00  0.00    -0.071 Br
ENDBRANCH  16  21
ENDBRANCH   1  18
TORSDOF 3
