REMARK  Name = ZINC20394281
REMARK  7 active torsions:
REMARK  status: ('A' for Active; 'I' for Inactive)
REMARK    1  A    between atoms: C_1  and  C_2
REMARK    2  A    between atoms: C_5  and  N_8
REMARK    3  A    between atoms: C_17  and  C_21
REMARK    4  A    between atoms: C_17  and  N_25
REMARK    5  A    between atoms: C_26  and  C_28
REMARK    6  A    between atoms: C_28  and  C_29
REMARK    7  A    between atoms: C_29  and  C_30
REMARK                            x       y       z     vdW  Elec       q    Type
REMARK                         _______ _______ _______ _____ _____    ______ ____
ROOT
ATOM      1  N   UNL     1      -2.458   3.824   0.046  0.00  0.00    -0.249 N 
ATOM      2  C   UNL     1      -3.640   3.118  -0.051  0.00  0.00    +0.125 A 
ATOM      3  C   UNL     1      -4.813   3.814  -0.033  0.00  0.00    +0.097 A 
ATOM      4  C   UNL     1      -4.802   5.210   0.082  0.00  0.00    +0.262 A 
ATOM      5  O   UNL     1      -5.849   5.834   0.099  0.00  0.00    -0.267 OA
ATOM      6  N   UNL     1      -3.621   5.856   0.174  0.00  0.00    -0.274 N 
ATOM      7  H   UNL     1      -3.600   6.953   0.261  0.00  0.00    +0.173 HD
ATOM      8  C   UNL     1      -2.468   5.163   0.161  0.00  0.00    +0.335 A 
ATOM      9  O   UNL     1      -1.413   5.761   0.249  0.00  0.00    -0.246 OA
ATOM     10  C   UNL     1      -5.922   2.795  -0.153  0.00  0.00    +0.240 C 
ATOM     11  C   UNL     1      -5.182   1.475  -0.237  0.00  0.00    +0.256 C 
ATOM     12  O   UNL     1      -5.675   0.372  -0.344  0.00  0.00    -0.272 OA
ATOM     13  N   UNL     1      -3.872   1.769  -0.169  0.00  0.00    -0.269 N 
ATOM     14  H   UNL     1      -3.026   1.066  -0.199  0.00  0.00    +0.156 HD
ENDROOT
BRANCH   1  19
ATOM     15  C   UNL     1       2.490   1.044  -0.016  0.00  0.00    +0.044 C 
ATOM     16  C   UNL     1       1.176   1.783   0.000  0.00  0.00    -0.050 A 
ATOM     17  C   UNL     1       0.534   2.023   1.202  0.00  0.00    +0.005 A 
ATOM     18  C   UNL     1      -0.673   2.694   1.220  0.00  0.00    +0.026 A 
ATOM     19  C   UNL     1      -1.236   3.138   0.031  0.00  0.00    +0.053 A 
ATOM     20  C   UNL     1      -0.590   2.895  -1.174  0.00  0.00    +0.026 A 
ATOM     21  C   UNL     1       0.614   2.219  -1.186  0.00  0.00    +0.005 A 
ENDBRANCH   1  19
BRANCH  10  22
ATOM     22  C   UNL     1      -6.742   3.034  -1.422  0.00  0.00    +0.424 C 
ATOM     23  F   UNL     1      -7.696   2.020  -1.559  0.00  0.00    -0.167 F 
ATOM     24  F   UNL     1      -7.388   4.273  -1.333  0.00  0.00    -0.167 F 
ATOM     25  F   UNL     1      -5.893   3.030  -2.534  0.00  0.00    -0.167 F 
ENDBRANCH  10  22
BRANCH  10  26
ATOM     26  N   UNL     1      -6.784   2.829   1.031  0.00  0.00    -0.291 N 
ATOM     27  C   UNL     1      -7.783   1.934   1.163  0.00  0.00    +0.214 C 
ATOM     28  O   UNL     1      -7.968   1.101   0.302  0.00  0.00    -0.276 OA
ATOM     29  H   UNL     1      -6.616   3.585   1.812  0.00  0.00    +0.150 HD
BRANCH  27  30
ATOM     30  C   UNL     1      -8.670   1.969   2.381  0.00  0.00    +0.096 C 
BRANCH  30  31
ATOM     31  C   UNL     1      -9.715   0.856   2.283  0.00  0.00    +0.013 C 
BRANCH  31  32
ATOM     32  C   UNL     1     -10.615   0.891   3.519  0.00  0.00    -0.011 C 
ATOM     33  C   UNL     1      -9.787   0.561   4.763  0.00  0.00    +0.003 C 
ATOM     34  C   UNL     1     -10.688   0.597   6.000  0.00  0.00    +0.000 C 
ATOM     35  C   UNL     1     -11.808  -0.433   5.844  0.00  0.00    +0.000 C 
ATOM     36  C   UNL     1     -12.636  -0.104   4.601  0.00  0.00    +0.000 C 
ATOM     37  C   UNL     1     -11.735  -0.139   3.364  0.00  0.00    +0.003 C 
ENDBRANCH  31  32
ENDBRANCH  30  31
ENDBRANCH  27  30
ENDBRANCH  10  26
TORSDOF 6
