REMARK  Name = ZINC11859501
REMARK  7 active torsions:
REMARK  status: ('A' for Active; 'I' for Inactive)
REMARK    1  A    between atoms: C_1  and  C_2
REMARK    2  A    between atoms: C_2  and  C_3
REMARK    3  A    between atoms: C_3  and  C_4
REMARK    4  A    between atoms: C_13  and  N_22
REMARK    5  A    between atoms: C_15  and  C_17
REMARK    6  A    between atoms: C_23  and  C_25
REMARK    7  A    between atoms: C_25  and  N_26
REMARK                            x       y       z     vdW  Elec       q    Type
REMARK                         _______ _______ _______ _____ _____    ______ ____
ROOT
ATOM      1  C   UNL     1       3.533  -3.233  -0.047  0.00  0.00    +0.050 A 
ATOM      2  C   UNL     1       2.666  -4.287  -0.044  0.00  0.00    +0.093 A 
ATOM      3  C   UNL     1       1.283  -4.028  -0.030  0.00  0.00    +0.253 A 
ATOM      4  O   UNL     1       0.478  -4.945  -0.027  0.00  0.00    -0.268 OA
ATOM      5  N   UNL     1       0.863  -2.744  -0.015  0.00  0.00    -0.291 N 
ATOM      6  H   UNL     1      -0.085  -2.543  -0.001  0.00  0.00    +0.172 HD
ATOM      7  C   UNL     1       1.775  -1.736  -0.024  0.00  0.00    +0.234 A 
ATOM      8  N   UNL     1       3.067  -1.985  -0.037  0.00  0.00    -0.217 NA
ATOM      9  N   UNL     1       1.338  -0.426  -0.013  0.00  0.00    -0.184 N 
ATOM     10  C   UNL     1       2.131   0.686  -0.015  0.00  0.00    +0.132 A 
ATOM     11  C   UNL     1       1.319   1.772  -0.001  0.00  0.00    +0.077 A 
ATOM     12  C   UNL     1      -0.016   1.313   0.009  0.00  0.00    +0.130 A 
ATOM     13  N   UNL     1       0.002  -0.004   0.002  0.00  0.00    -0.159 NA
ENDROOT
BRANCH  12  14
ATOM     14  C   UNL     1      -1.225   2.164   0.020  0.00  0.00    +0.155 A 
ATOM     15  C   UNL     1      -2.510   1.722   0.019  0.00  0.00    +0.051 A 
ATOM     16  C   UNL     1      -3.333   2.867   0.034  0.00  0.00    +0.042 A 
ATOM     17  C   UNL     1      -2.517   3.939   0.035  0.00  0.00    +0.196 A 
ATOM     18  O   UNL     1      -1.244   3.510   0.026  0.00  0.00    -0.461 OA
ENDBRANCH  12  14
BRANCH  10  19
ATOM     19  N   UNL     1       3.524   0.702  -0.027  0.00  0.00    -0.269 N 
ATOM     20  C   UNL     1       4.185   1.876  -0.028  0.00  0.00    +0.238 C 
ATOM     21  O   UNL     1       3.567   2.920  -0.016  0.00  0.00    -0.273 OA
ATOM     22  H   UNL     1       4.019  -0.133  -0.036  0.00  0.00    +0.156 HD
BRANCH  20  23
ATOM     23  C   UNL     1       5.692   1.893  -0.041  0.00  0.00    +0.219 C 
BRANCH  23  24
ATOM     24  N   UNL     1       6.165   3.280  -0.038  0.00  0.00    -0.321 N 
ATOM     25  C   UNL     1       6.511   4.016  -1.129  0.00  0.00    +0.200 A 
ATOM     26  N   UNL     1       6.883   5.208  -0.764  0.00  0.00    -0.236 NA
ATOM     27  C   UNL     1       6.809   5.316   0.587  0.00  0.00    +0.089 A 
ATOM     28  C   UNL     1       6.348   4.080   1.072  0.00  0.00    +0.069 A 
ATOM     29  C   UNL     1       6.173   3.894   2.436  0.00  0.00    +0.028 A 
ATOM     30  C   UNL     1       6.455   4.926   3.307  0.00  0.00    +0.002 A 
ATOM     31  C   UNL     1       6.911   6.145   2.828  0.00  0.00    +0.002 A 
ATOM     32  C   UNL     1       7.088   6.346   1.488  0.00  0.00    +0.030 A 
ENDBRANCH  23  24
ENDBRANCH  20  23
ENDBRANCH  10  19
BRANCH   1  33
ATOM     33  C   UNL     1       5.019  -3.481  -0.062  0.00  0.00    +0.055 C 
BRANCH  33  35
ATOM     34  C   UNL     1       7.039  -3.686  -1.518  0.00  0.00    +0.004 C 
ATOM     35  C   UNL     1       5.530  -3.434  -1.503  0.00  0.00    +0.003 C 
ENDBRANCH  33  35
ENDBRANCH   1  33
TORSDOF 6
