REMARK  Name = ZINC18196673
REMARK  6 active torsions:
REMARK  status: ('A' for Active; 'I' for Inactive)
REMARK    1  A    between atoms: C_1  and  C_2
REMARK    2  A    between atoms: C_5  and  N_8
REMARK    3  A    between atoms: C_11  and  C_13
REMARK    4  A    between atoms: C_14  and  C_26
REMARK    5  A    between atoms: C_20  and  C_24
REMARK    6  A    between atoms: C_20  and  C_25
REMARK                            x       y       z     vdW  Elec       q    Type
REMARK                         _______ _______ _______ _____ _____    ______ ____
ROOT
ATOM      1  N   UNL     1      -2.458   3.824   0.045  0.00  0.00    -0.218 N 
ATOM      2  C   UNL     1      -3.594   3.442  -0.576  0.00  0.00    +0.131 A 
ATOM      3  C   UNL     1      -4.550   4.387  -0.311  0.00  0.00    +0.027 A 
ATOM      4  C   UNL     1      -3.972   5.367   0.485  0.00  0.00    +0.066 A 
ATOM      5  N   UNL     1      -2.720   5.037   0.703  0.00  0.00    -0.170 NA
ATOM      6  C   UNL     1      -4.664   6.599   1.009  0.00  0.00    +0.068 C 
ATOM      7  C   UNL     1      -5.950   4.286  -0.847  0.00  0.00    +0.089 C 
ATOM      8  C   UNL     1      -6.194   2.890  -1.377  0.00  0.00    +0.024 C 
ATOM      9  C   UNL     1      -5.190   2.015  -1.602  0.00  0.00    +0.017 C 
ATOM     10  N   UNL     1      -3.877   2.320  -1.344  0.00  0.00    -0.302 N 
ATOM     11  C   UNL     1      -5.474   0.636  -2.152  0.00  0.00    +0.058 C 
ATOM     12  C   UNL     1      -6.847   0.162  -1.674  0.00  0.00    -0.023 C 
ATOM     13  C   UNL     1      -7.897   1.172  -2.148  0.00  0.00    +0.086 C 
ATOM     14  C   UNL     1      -7.531   2.534  -1.629  0.00  0.00    +0.162 C 
ATOM     15  O   UNL     1      -8.410   3.347  -1.422  0.00  0.00    -0.292 OA
ATOM     16  C   UNL     1      -6.861   0.082  -0.146  0.00  0.00    +0.011 C 
ATOM     17  C   UNL     1      -7.152  -1.216  -2.266  0.00  0.00    +0.011 C 
ATOM     18  H   UNL     1      -3.161   1.767  -1.695  0.00  0.00    +0.153 HD
ENDROOT
BRANCH   7  19
ATOM     19  C   UNL     1      -6.134   5.285  -1.961  0.00  0.00    -0.032 A 
ATOM     20  C   UNL     1      -5.333   5.218  -3.086  0.00  0.00    +0.008 A 
ATOM     21  C   UNL     1      -5.500   6.128  -4.113  0.00  0.00    +0.050 A 
ATOM     22  C   UNL     1      -6.465   7.117  -4.012  0.00  0.00    +0.166 A 
ATOM     23  C   UNL     1      -7.269   7.188  -2.876  0.00  0.00    +0.167 A 
ATOM     24  C   UNL     1      -7.098   6.269  -1.853  0.00  0.00    +0.054 A 
ATOM     25  O   UNL     1      -8.130   8.237  -3.016  0.00  0.00    -0.453 OA
ATOM     26  C   UNL     1      -8.124   8.555  -4.420  0.00  0.00    +0.466 C 
ATOM     27  O   UNL     1      -6.824   8.122  -4.863  0.00  0.00    -0.453 OA
ENDBRANCH   7  19
BRANCH   1  32
ATOM     28  C   UNL     1       2.490   1.045  -0.016  0.00  0.00    +0.044 C 
ATOM     29  C   UNL     1       1.176   1.783   0.000  0.00  0.00    -0.050 A 
ATOM     30  C   UNL     1      -0.013   1.076   0.008  0.00  0.00    +0.005 A 
ATOM     31  C   UNL     1      -1.218   1.749   0.017  0.00  0.00    +0.028 A 
ATOM     32  C   UNL     1      -1.236   3.138   0.030  0.00  0.00    +0.067 A 
ATOM     33  C   UNL     1      -0.041   3.845   0.023  0.00  0.00    +0.028 A 
ATOM     34  C   UNL     1       1.161   3.166   0.008  0.00  0.00    +0.005 A 
ENDBRANCH   1  32
TORSDOF 2
