REMARK  Name = ZINC65074707
REMARK  4 active torsions:
REMARK  status: ('A' for Active; 'I' for Inactive)
REMARK    1  A    between atoms: C_6  and  C_7
REMARK    2  A    between atoms: C_7  and  N_8
REMARK    3  A    between atoms: N_17  and  S_20
REMARK    4  A    between atoms: S_20  and  C_23
REMARK                            x       y       z     vdW  Elec       q    Type
REMARK                         _______ _______ _______ _____ _____    ______ ____
ROOT
ATOM      1  N   UNL     1      -1.726  -1.017  -1.368  0.00  0.00    -0.329 N 
ATOM      2  C   UNL     1      -2.886  -1.704  -1.611  0.00  0.00    +0.089 C 
ATOM      3  N   UNL     1      -3.567  -2.115  -0.609  0.00  0.00    -0.374 N 
ATOM      4  C   UNL     1      -4.812  -2.866  -0.728  0.00  0.00    +0.129 C 
ATOM      5  C   UNL     1      -5.382  -2.719  -2.140  0.00  0.00    +0.102 C 
ATOM      6  N   UNL     1      -4.306  -2.994  -3.108  0.00  0.00    -0.303 NA
ATOM      7  C   UNL     1      -3.292  -1.930  -3.040  0.00  0.00    +0.075 C 
ATOM      8  C   UNL     1      -3.872  -0.636  -3.618  0.00  0.00    +0.047 C 
ATOM      9  C   UNL     1      -4.320  -0.882  -5.061  0.00  0.00    +0.111 C 
ATOM     10  N   UNL     1      -3.187  -1.425  -5.822  0.00  0.00    -0.176 NA
ATOM     11  C   UNL     1      -2.496  -2.615  -5.307  0.00  0.00    +0.111 C 
ATOM     12  C   UNL     1      -2.069  -2.350  -3.860  0.00  0.00    +0.047 C 
ATOM     13  H   UNL     1      -1.191  -0.691  -2.109  0.00  0.00    +0.147 HD
ATOM     14  H   UNL     1      -3.896  -3.901  -2.944  0.00  0.00    +0.123 HD
ATOM     15  H   UNL     1      -3.236  -1.915   0.281  0.00  0.00    +0.161 HD
ENDROOT
BRANCH  10  16
ATOM     16  S   UNL     1      -2.698  -0.711  -7.234  0.00  0.00    +0.061 S 
ATOM     17  O   UNL     1      -2.024  -1.713  -7.984  0.00  0.00    -0.153 OA
ATOM     18  O   UNL     1      -3.821  -0.005  -7.743  0.00  0.00    -0.153 OA
BRANCH  16  19
ATOM     19  C   UNL     1      -1.490   0.501  -6.814  0.00  0.00    +0.106 A 
ATOM     20  C   UNL     1      -1.881   1.796  -6.527  0.00  0.00    +0.030 A 
ATOM     21  C   UNL     1      -0.934   2.747  -6.197  0.00  0.00    +0.022 A 
ATOM     22  C   UNL     1       0.406   2.403  -6.154  0.00  0.00    +0.041 A 
ATOM     23  C   UNL     1       0.796   1.107  -6.441  0.00  0.00    +0.022 A 
ATOM     24  C   UNL     1      -0.152   0.155  -6.765  0.00  0.00    +0.030 A 
ATOM     25 CL   UNL     1       1.596   3.597  -5.740  0.00  0.00    -0.084 Cl
ENDBRANCH  16  19
ENDBRANCH  10  16
BRANCH   1  26
ATOM     26  C   UNL     1      -1.293  -0.775   0.010  0.00  0.00    +0.138 C 
BRANCH  26  32
ATOM     27  C   UNL     1      -0.017   1.378   0.010  0.00  0.00    +0.008 A 
ATOM     28  C   UNL     1       1.170   2.086   0.002  0.00  0.00    +0.038 A 
ATOM     29  C   UNL     1       2.379   1.410  -0.013  0.00  0.00    +0.123 A 
ATOM     30  C   UNL     1       2.396   0.026  -0.021  0.00  0.00    +0.038 A 
ATOM     31  C   UNL     1       1.208  -0.680  -0.013  0.00  0.00    +0.008 A 
ATOM     32  C   UNL     1       0.002  -0.004   0.002  0.00  0.00    -0.030 A 
ATOM     33  F   UNL     1       3.540   2.101  -0.021  0.00  0.00    -0.205 F 
ENDBRANCH  26  32
ENDBRANCH   1  26
TORSDOF 4
