REMARK  Name = ZINC07159362
REMARK  10 active torsions:
REMARK  status: ('A' for Active; 'I' for Inactive)
REMARK    1  A    between atoms: C_1  and  C_2
REMARK    2  A    between atoms: C_4  and  O_9
REMARK    3  A    between atoms: O_9  and  C_10
REMARK    4  A    between atoms: C_10  and  C_11
REMARK    5  A    between atoms: C_11  and  O_13
REMARK    6  A    between atoms: O_13  and  C_14
REMARK    7  A    between atoms: C_14  and  C_15
REMARK    8  A    between atoms: N_17  and  C_18
REMARK    9  A    between atoms: C_21  and  N_26
REMARK   10  A    between atoms: C_23  and  C_24
REMARK                            x       y       z     vdW  Elec       q    Type
REMARK                         _______ _______ _______ _____ _____    ______ ____
ROOT
ATOM      1  C   UNL     1       0.002  -0.004  -0.001  0.00  0.00    +0.255 C 
ATOM      2  O   UNL     1       1.060  -0.596  -0.007  0.00  0.00    -0.272 OA
ATOM      3  N   UNL     1      -1.156  -0.694   0.009  0.00  0.00    -0.282 N 
ATOM      4  H   UNL     1      -2.000  -0.224   0.095  0.00  0.00    +0.155 HD
ENDROOT
BRANCH   3   5
ATOM      5  C   UNL     1      -1.140  -2.083  -0.103  0.00  0.00    +0.051 A 
ATOM      6  C   UNL     1      -0.074  -2.721  -0.722  0.00  0.00    +0.027 A 
ATOM      7  C   UNL     1      -0.060  -4.097  -0.832  0.00  0.00    +0.034 A 
ATOM      8  C   UNL     1      -1.107  -4.851  -0.328  0.00  0.00    +0.128 A 
ATOM      9  C   UNL     1      -2.174  -4.236   0.290  0.00  0.00    +0.053 A 
ATOM     10  C   UNL     1      -2.200  -2.844   0.413  0.00  0.00    +0.075 A 
BRANCH   8  11
ATOM     11  N   UNL     1      -1.078  -6.326  -0.452  0.00  0.00    +0.056 N 
ATOM     12  O   UNL     1      -0.136  -6.873  -0.996  0.00  0.00    -0.126 OA
ATOM     13  O   UNL     1      -1.997  -6.992  -0.009  0.00  0.00    -0.126 OA
ENDBRANCH   8  11
BRANCH  10  14
ATOM     14  C   UNL     1      -3.302  -2.199   1.059  0.00  0.00    +0.101 C 
ATOM     15  N   UNL     1      -4.177  -1.686   1.572  0.00  0.00    -0.191 NA
ENDBRANCH  10  14
ENDBRANCH   3   5
BRANCH   1  16
ATOM     16  C   UNL     1      -0.019   1.503  -0.005  0.00  0.00    +0.328 C 
BRANCH  16  17
ATOM     17  O   UNL     1       1.343   2.006  -0.016  0.00  0.00    -0.453 OA
BRANCH  17  18
ATOM     18  C   UNL     1       1.501   3.339  -0.021  0.00  0.00    +0.346 C 
ATOM     19  O   UNL     1       0.532   4.062  -0.015  0.00  0.00    -0.247 OA
BRANCH  18  20
ATOM     20  C   UNL     1       2.885   3.934  -0.033  0.00  0.00    +0.349 C 
BRANCH  20  21
ATOM     21  O   UNL     1       2.791   5.360  -0.035  0.00  0.00    -0.481 OA
BRANCH  21  25
ATOM     22  C   UNL     1       5.109   9.655  -0.064  0.00  0.00    +0.045 C 
ATOM     23  C   UNL     1       5.128   8.148  -0.060  0.00  0.00    -0.029 A 
ATOM     24  C   UNL     1       3.940   7.443  -0.049  0.00  0.00    +0.050 A 
ATOM     25  C   UNL     1       3.958   6.056  -0.046  0.00  0.00    +0.122 A 
ATOM     26  C   UNL     1       5.170   5.380  -0.048  0.00  0.00    +0.047 A 
ATOM     27  C   UNL     1       6.355   6.088  -0.063  0.00  0.00    +0.024 A 
ATOM     28  C   UNL     1       6.335   7.472  -0.067  0.00  0.00    +0.044 A 
ATOM     29 CL   UNL     1       7.826   8.361  -0.080  0.00  0.00    -0.083 Cl
ENDBRANCH  21  25
ENDBRANCH  20  21
ENDBRANCH  18  20
ENDBRANCH  17  18
ENDBRANCH  16  17
ENDBRANCH   1  16
TORSDOF 9
