REMARK  Name = ZINC02182383
REMARK  10 active torsions:
REMARK  status: ('A' for Active; 'I' for Inactive)
REMARK    1  A    between atoms: C_1  and  C_2
REMARK    2  A    between atoms: C_2  and  C_3
REMARK    3  A    between atoms: C_2  and  C_4
REMARK    4  A    between atoms: C_2  and  C_5
REMARK    5  A    between atoms: C_12  and  N_20
REMARK    6  A    between atoms: C_13  and  C_14
REMARK    7  A    between atoms: N_16  and  C_17
REMARK    8  A    between atoms: C_17  and  C_18
REMARK    9  A    between atoms: C_18  and  O_19
REMARK   10  A    between atoms: C_21  and  C_23
REMARK                            x       y       z     vdW  Elec       q    Type
REMARK                         _______ _______ _______ _____ _____    ______ ____
ROOT
ATOM      1  C   UNL     1      -0.735   2.019   1.269  0.00  0.00    -0.000 C 
ATOM      2  C   UNL     1      -0.751   3.550   1.284  0.00  0.00    +0.009 C 
ATOM      3  C   UNL     1      -1.668   4.051   2.400  0.00  0.00    +0.037 C 
ATOM      4  C   UNL     1      -1.266   3.377   3.707  0.00  0.00    -0.023 A 
ATOM      5  C   UNL     1      -0.519   2.252   3.708  0.00  0.00    -0.004 A 
ATOM      6  S   UNL     1      -0.310   1.850   5.420  0.00  0.00    -0.077 S 
ATOM      7  C   UNL     1      -1.202   3.156   6.125  0.00  0.00    +0.085 A 
ATOM      8  C   UNL     1      -1.641   3.873   5.020  0.00  0.00    +0.069 A 
ATOM      9  C   UNL     1       0.010   1.518   2.515  0.00  0.00    +0.046 C 
ENDROOT
BRANCH   1  11
ATOM     10  C   UNL     1       0.002  -0.004   0.002  0.00  0.00    +0.011 C 
ATOM     11  C   UNL     1      -0.019   1.526   0.010  0.00  0.00    -0.035 C 
ATOM     12  C   UNL     1       1.417   2.055  -0.000  0.00  0.00    +0.011 C 
ATOM     13  C   UNL     1      -0.759   2.033  -1.229  0.00  0.00    +0.011 C 
ENDBRANCH   1  11
BRANCH   8  14
ATOM     14  C   UNL     1      -2.452   5.085   5.173  0.00  0.00    +0.247 C 
ATOM     15  O   UNL     1      -1.911   6.171   5.266  0.00  0.00    -0.270 OA
ATOM     16  N   UNL     1      -3.796   4.995   5.210  0.00  0.00    -0.309 N 
ATOM     17  H   UNL     1      -4.227   4.129   5.136  0.00  0.00    +0.149 HD
BRANCH  16  18
ATOM     18  C   UNL     1      -4.607   6.206   5.362  0.00  0.00    +0.132 C 
BRANCH  18  19
ATOM     19  C   UNL     1      -6.090   5.829   5.375  0.00  0.00    +0.174 C 
BRANCH  19  20
ATOM     20  O   UNL     1      -6.370   5.038   6.531  0.00  0.00    -0.393 OA
ATOM     21  H   UNL     1      -7.294   4.762   6.604  0.00  0.00    +0.209 HD
ENDBRANCH  19  20
ENDBRANCH  18  19
ENDBRANCH  16  18
ENDBRANCH   8  14
BRANCH   7  22
ATOM     22  N   UNL     1      -1.424   3.422   7.467  0.00  0.00    -0.273 N 
ATOM     23  C   UNL     1      -0.913   2.604   8.409  0.00  0.00    +0.284 C 
ATOM     24  O   UNL     1      -0.257   1.633   8.081  0.00  0.00    -0.266 OA
ATOM     25  H   UNL     1      -1.947   4.196   7.728  0.00  0.00    +0.156 HD
BRANCH  23  26
ATOM     26  C   UNL     1      -1.148   2.885   9.828  0.00  0.00    +0.189 A 
ATOM     27  C   UNL     1      -0.695   2.140  10.879  0.00  0.00    +0.054 A 
ATOM     28  C   UNL     1      -1.148   2.773  12.047  0.00  0.00    +0.042 A 
ATOM     29  C   UNL     1      -1.856   3.857  11.663  0.00  0.00    +0.196 A 
ATOM     30  O   UNL     1      -1.854   3.922  10.325  0.00  0.00    -0.458 OA
ENDBRANCH  23  26
ENDBRANCH   7  22
TORSDOF 7
