REMARK  Name = ZINC11855617
REMARK  9 active torsions:
REMARK  status: ('A' for Active; 'I' for Inactive)
REMARK    1  A    between atoms: C_1  and  C_2
REMARK    2  A    between atoms: C_7  and  O_8
REMARK    3  A    between atoms: O_8  and  C_9
REMARK    4  A    between atoms: C_9  and  C_10
REMARK    5  A    between atoms: N_12  and  C_13
REMARK    6  A    between atoms: C_15  and  C_29
REMARK    7  A    between atoms: C_24  and  C_26
REMARK    8  A    between atoms: C_26  and  C_27
REMARK    9  A    between atoms: C_26  and  C_28
REMARK                            x       y       z     vdW  Elec       q    Type
REMARK                         _______ _______ _______ _____ _____    ______ ____
ROOT
ATOM      1  C   UNL     1      -3.890  -4.612   0.008  0.00  0.00    +0.132 A 
ATOM      2  C   UNL     1      -5.056  -3.927   0.119  0.00  0.00    +0.074 A 
ATOM      3  C   UNL     1      -6.111  -4.864   0.091  0.00  0.00    +0.102 A 
ATOM      4  N   UNL     1      -5.590  -6.067  -0.034  0.00  0.00    -0.162 NA
ATOM      5  N   UNL     1      -4.197  -5.939  -0.093  0.00  0.00    -0.185 N 
ATOM      6  C   UNL     1      -3.291  -6.974  -0.228  0.00  0.00    +0.234 A 
ATOM      7  N   UNL     1      -3.748  -8.240  -0.420  0.00  0.00    -0.291 N 
ATOM      8  H   UNL     1      -4.702  -8.412  -0.461  0.00  0.00    +0.172 HD
ATOM      9  C   UNL     1      -2.870  -9.256  -0.558  0.00  0.00    +0.253 A 
ATOM     10  O   UNL     1      -3.262 -10.398  -0.735  0.00  0.00    -0.268 OA
ATOM     11  C   UNL     1      -1.493  -8.973  -0.487  0.00  0.00    +0.093 A 
ATOM     12  C   UNL     1      -1.095  -7.684  -0.288  0.00  0.00    +0.053 A 
ATOM     13  N   UNL     1      -2.003  -6.717  -0.163  0.00  0.00    -0.217 NA
ENDROOT
BRANCH   3  14
ATOM     14  C   UNL     1      -7.553  -4.548   0.184  0.00  0.00    +0.039 A 
ATOM     15  C   UNL     1      -8.625  -5.400   0.163  0.00  0.00    +0.018 A 
ATOM     16  C   UNL     1      -9.893  -4.870   0.267  0.00  0.00    +0.008 A 
ATOM     17  C   UNL     1     -10.040  -3.526   0.386  0.00  0.00    +0.046 A 
ATOM     18  S   UNL     1      -8.348  -2.960   0.361  0.00  0.00    -0.095 S 
ENDBRANCH   3  14
BRANCH   1  21
ATOM     19  C   UNL     1      -2.454  -2.722  -0.033  0.00  0.00    +0.256 C 
ATOM     20  O   UNL     1      -3.427  -1.998  -0.044  0.00  0.00    -0.272 OA
ATOM     21  N   UNL     1      -2.611  -4.060  -0.006  0.00  0.00    -0.267 N 
ATOM     22  H   UNL     1      -1.833  -4.639   0.003  0.00  0.00    +0.156 HD
BRANCH  19  23
ATOM     23  C   UNL     1      -1.071  -2.125  -0.048  0.00  0.00    +0.324 C 
BRANCH  23  24
ATOM     24  O   UNL     1      -1.167  -0.700  -0.076  0.00  0.00    -0.483 OA
BRANCH  24  31
ATOM     25  C   UNL     1      -1.335   2.119  -0.137  0.00  0.00    +0.047 C 
ATOM     26  C   UNL     1      -0.020   1.384  -0.120  0.00  0.00    -0.009 A 
ATOM     27  C   UNL     1       1.167   2.090  -0.138  0.00  0.00    +0.007 A 
ATOM     28  C   UNL     1       2.374   1.416  -0.128  0.00  0.00    +0.000 A 
ATOM     29  C   UNL     1       2.396   0.034  -0.101  0.00  0.00    +0.004 A 
ATOM     30  C   UNL     1       1.212  -0.677  -0.084  0.00  0.00    +0.046 A 
ATOM     31  C   UNL     1      -0.001  -0.003  -0.093  0.00  0.00    +0.124 A 
ENDBRANCH  24  31
ENDBRANCH  23  24
ENDBRANCH  19  23
ENDBRANCH   1  21
BRANCH  12  32
ATOM     32  C   UNL     1       0.373  -7.353  -0.209  0.00  0.00    +0.032 C 
ATOM     33  C   UNL     1       0.733  -6.362  -1.318  0.00  0.00    +0.014 C 
ATOM     34  C   UNL     1       0.682  -6.729   1.153  0.00  0.00    +0.014 C 
ENDBRANCH  12  32
TORSDOF 6
