REMARK  Name = ZINC00754961
REMARK  7 active torsions:
REMARK  status: ('A' for Active; 'I' for Inactive)
REMARK    1  A    between atoms: N_9  and  C_12
REMARK    2  A    between atoms: C_12  and  C_14
REMARK    3  A    between atoms: C_12  and  C_24
REMARK    4  A    between atoms: C_14  and  C_15
REMARK    5  A    between atoms: C_18  and  N_21
REMARK    6  A    between atoms: N_26  and  C_27
REMARK    7  A    between atoms: C_31  and  O_33
REMARK                            x       y       z     vdW  Elec       q    Type
REMARK                         _______ _______ _______ _____ _____    ______ ____
ROOT
ATOM      1  C   UNL     1       1.070   7.433   0.242  0.00  0.00    +0.175 C 
ENDROOT
BRANCH   1  10
ATOM      2  C   UNL     1       5.993   9.627   3.064  0.00  0.00    +0.001 A 
ATOM      3  C   UNL     1       6.663   9.069   1.992  0.00  0.00    +0.001 A 
ATOM      4  C   UNL     1       5.964   8.407   0.994  0.00  0.00    +0.014 A 
ATOM      5  C   UNL     1       4.584   8.304   1.074  0.00  0.00    +0.049 A 
ATOM      6  C   UNL     1       3.901   8.873   2.168  0.00  0.00    +0.049 A 
ATOM      7  C   UNL     1       4.613   9.532   3.158  0.00  0.00    +0.014 A 
ATOM      8  C   UNL     1       2.469   8.587   1.944  0.00  0.00    +0.255 C 
ATOM      9  O   UNL     1       1.557   8.918   2.675  0.00  0.00    -0.270 OA
ATOM     10  N   UNL     1       2.344   7.897   0.796  0.00  0.00    -0.222 N 
ATOM     11  C   UNL     1       3.544   7.686   0.225  0.00  0.00    +0.255 C 
ATOM     12  O   UNL     1       3.740   7.090  -0.814  0.00  0.00    -0.270 OA
ENDBRANCH   1  10
BRANCH   1  13
ATOM     13  C   UNL     1       1.092   5.931   0.122  0.00  0.00    +0.239 C 
ATOM     14  O   UNL     1       2.151   5.339   0.109  0.00  0.00    -0.273 OA
ATOM     15  N   UNL     1      -0.064   5.245   0.028  0.00  0.00    -0.284 N 
ATOM     16  H   UNL     1      -0.907   5.721  -0.039  0.00  0.00    +0.155 HD
BRANCH  15  17
ATOM     17  C   UNL     1      -0.050   3.846   0.028  0.00  0.00    +0.037 A 
ATOM     18  C   UNL     1      -0.992   3.141  -0.711  0.00  0.00    +0.023 A 
ATOM     19  C   UNL     1      -0.977   1.760  -0.712  0.00  0.00    +0.005 A 
ATOM     20  C   UNL     1      -0.028   1.076   0.023  0.00  0.00    +0.045 A 
ATOM     21  C   UNL     1       0.912   1.775   0.767  0.00  0.00    +0.119 A 
ATOM     22  C   UNL     1       0.905   3.161   0.765  0.00  0.00    +0.068 A 
BRANCH  21  23
ATOM     23  O   UNL     1       1.842   1.101   1.494  0.00  0.00    -0.507 OA
ATOM     24  H   UNL     1       2.658   0.911   1.010  0.00  0.00    +0.292 HD
ENDBRANCH  21  23
ENDBRANCH  15  17
ENDBRANCH   1  13
BRANCH   1  25
ATOM     25  C   UNL     1       0.859   8.052  -1.141  0.00  0.00    +0.067 C 
BRANCH  25  26
ATOM     26  C   UNL     1       0.714   9.546  -1.006  0.00  0.00    -0.045 A 
ATOM     27  C   UNL     1      -0.538  10.105  -0.825  0.00  0.00    +0.006 A 
ATOM     28  C   UNL     1      -0.670  11.475  -0.697  0.00  0.00    +0.033 A 
ATOM     29  C   UNL     1       0.447  12.287  -0.758  0.00  0.00    +0.126 A 
ATOM     30  C   UNL     1       1.698  11.728  -0.944  0.00  0.00    +0.033 A 
ATOM     31  C   UNL     1       1.831  10.358  -1.068  0.00  0.00    +0.006 A 
BRANCH  29  32
ATOM     32  N   UNL     1       0.305  13.754  -0.624  0.00  0.00    +0.056 N 
ATOM     33  O   UNL     1       1.289  14.469  -0.677  0.00  0.00    -0.126 OA
ATOM     34  O   UNL     1      -0.797  14.246  -0.460  0.00  0.00    -0.126 OA
ENDBRANCH  29  32
ENDBRANCH  25  26
ENDBRANCH   1  25
TORSDOF 7
