REMARK  Name = ZINC10912848
REMARK  6 active torsions:
REMARK  status: ('A' for Active; 'I' for Inactive)
REMARK    1  A    between atoms: C_4  and  C_7
REMARK    2  A    between atoms: C_7  and  C_9
REMARK    3  A    between atoms: C_7  and  N_20
REMARK    4  A    between atoms: C_18  and  O_19
REMARK    5  A    between atoms: C_21  and  C_23
REMARK    6  A    between atoms: C_23  and  N_24
REMARK                            x       y       z     vdW  Elec       q    Type
REMARK                         _______ _______ _______ _____ _____    ______ ____
ROOT
ATOM      1  C   UNL     1      -1.322   6.069   0.045  0.00  0.00    +0.138 C 
ENDROOT
BRANCH   1   2
ATOM      2  C   UNL     1      -0.089   5.207   0.129  0.00  0.00    +0.026 A 
ATOM      3  C   UNL     1      -0.203   3.807   0.103  0.00  0.00    -0.009 A 
ATOM      4  C   UNL     1      -1.457   3.180   0.000  0.00  0.00    +0.009 A 
ATOM      5  C   UNL     1      -1.530   1.821  -0.027  0.00  0.00    +0.001 A 
ATOM      6  C   UNL     1      -0.380   1.039   0.055  0.00  0.00    +0.001 A 
ATOM      7  C   UNL     1       0.851   1.611   0.156  0.00  0.00    +0.008 A 
ATOM      8  C   UNL     1       0.967   3.011   0.182  0.00  0.00    -0.017 A 
ATOM      9  C   UNL     1       2.222   3.637   0.284  0.00  0.00    +0.012 A 
ATOM     10  C   UNL     1       2.299   4.994   0.306  0.00  0.00    +0.046 A 
ATOM     11  C   UNL     1       1.146   5.781   0.229  0.00  0.00    +0.123 A 
BRANCH  11  12
ATOM     12  O   UNL     1       1.255   7.136   0.254  0.00  0.00    -0.506 OA
ATOM     13  H   UNL     1       1.307   7.510   1.144  0.00  0.00    +0.292 HD
ENDBRANCH  11  12
ENDBRANCH   1   2
BRANCH   1  17
ATOM     14  C   UNL     1      -2.136   7.762   3.882  0.00  0.00    +0.000 A 
ATOM     15  C   UNL     1      -2.707   6.555   3.524  0.00  0.00    +0.000 A 
ATOM     16  C   UNL     1      -2.443   6.007   2.282  0.00  0.00    +0.006 A 
ATOM     17  C   UNL     1      -1.609   6.667   1.399  0.00  0.00    -0.023 A 
ATOM     18  C   UNL     1      -1.035   7.871   1.759  0.00  0.00    +0.006 A 
ATOM     19  C   UNL     1      -1.302   8.421   2.999  0.00  0.00    +0.000 A 
ENDBRANCH   1  17
BRANCH   1  20
ATOM     20  N   UNL     1      -1.101   7.144  -0.926  0.00  0.00    -0.303 N 
ATOM     21  C   UNL     1      -2.151   7.718  -1.545  0.00  0.00    +0.234 C 
ATOM     22  O   UNL     1      -3.279   7.345  -1.299  0.00  0.00    -0.274 OA
ATOM     23  H   UNL     1      -0.200   7.442  -1.123  0.00  0.00    +0.150 HD
BRANCH  21  24
ATOM     24  C   UNL     1      -1.925   8.823  -2.544  0.00  0.00    +0.222 C 
BRANCH  24  25
ATOM     25  N   UNL     1      -3.214   9.276  -3.073  0.00  0.00    -0.292 N 
ATOM     26  C   UNL     1      -3.732   8.686  -4.193  0.00  0.00    +0.096 A 
ATOM     27  C   UNL     1      -4.923   9.100  -4.677  0.00  0.00    +0.088 A 
ATOM     28  C   UNL     1      -5.607  10.149  -4.018  0.00  0.00    +0.254 A 
ATOM     29  O   UNL     1      -6.680  10.543  -4.438  0.00  0.00    -0.268 OA
ATOM     30  N   UNL     1      -5.060  10.709  -2.920  0.00  0.00    -0.275 N 
ATOM     31  H   UNL     1      -5.537  11.451  -2.449  0.00  0.00    +0.173 HD
ATOM     32  C   UNL     1      -3.874  10.273  -2.455  0.00  0.00    +0.330 A 
ATOM     33  O   UNL     1      -3.393  10.786  -1.464  0.00  0.00    -0.246 OA
ENDBRANCH  24  25
ENDBRANCH  21  24
ENDBRANCH   1  20
TORSDOF 6
