REMARK  Name = ZINC38339199
REMARK  17 active torsions:
REMARK  status: ('A' for Active; 'I' for Inactive)
REMARK    1  A    between atoms: C_1  and  C_2
REMARK    2  A    between atoms: C_2  and  C_39
REMARK    3  A    between atoms: C_5  and  C_8
REMARK    4  A    between atoms: C_8  and  C_10
REMARK    5  A    between atoms: C_8  and  C_15
REMARK    6  A    between atoms: C_10  and  C_11
REMARK    7  A    between atoms: C_11  and  O_13
REMARK    8  A    between atoms: O_13  and  C_14
REMARK    9  A    between atoms: C_18  and  O_21
REMARK   10  A    between atoms: O_21  and  C_22
REMARK   11  A    between atoms: C_22  and  C_23
REMARK   12  A    between atoms: C_23  and  C_25
REMARK   13  A    between atoms: C_23  and  O_38
REMARK   14  A    between atoms: C_25  and  N_26
REMARK   15  A    between atoms: N_26  and  C_27
REMARK   16  A    between atoms: C_27  and  C_28
REMARK   17  A    between atoms: C_28  and  N_29
REMARK                            x       y       z     vdW  Elec       q    Type
REMARK                         _______ _______ _______ _____ _____    ______ ____
ROOT
ATOM      1  O   UNL     1       3.444   0.900   6.414  0.00  0.00    -0.489 OA
ENDROOT
BRANCH   1   5
ATOM      2  C   UNL     1       2.959  -1.067   2.821  0.00  0.00    -0.041 A 
ATOM      3  C   UNL     1       1.852  -0.625   3.521  0.00  0.00    +0.007 A 
ATOM      4  C   UNL     1       2.011   0.034   4.724  0.00  0.00    +0.046 A 
ATOM      5  C   UNL     1       3.284   0.252   5.231  0.00  0.00    +0.121 A 
ATOM      6  C   UNL     1       4.394  -0.193   4.527  0.00  0.00    +0.046 A 
ATOM      7  C   UNL     1       4.229  -0.856   3.326  0.00  0.00    +0.007 A 
BRANCH   2   8
ATOM      8  C   UNL     1       2.782  -1.785   1.508  0.00  0.00    +0.061 C 
BRANCH   8  13
ATOM      9  C   UNL     1       0.548  -0.079  -2.110  0.00  0.00    +0.074 C 
ATOM     10  C   UNL     1       2.008  -0.261  -1.688  0.00  0.00    +0.165 C 
ATOM     11  O   UNL     1       2.451   0.901  -0.974  0.00  0.00    -0.347 OA
ATOM     12  C   UNL     1       2.830   0.472   0.349  0.00  0.00    +0.195 C 
ATOM     13  C   UNL     1       2.066  -0.866   0.516  0.00  0.00    +0.155 C 
ATOM     14  O   UNL     1       2.123  -1.406  -0.826  0.00  0.00    -0.343 OA
ATOM     15  C   UNL     1       2.880  -0.462  -2.929  0.00  0.00    +0.074 C 
ENDBRANCH   8  13
BRANCH   8  16
ATOM     16  C   UNL     1       1.948  -3.049   1.726  0.00  0.00    +0.131 C 
BRANCH  16  17
ATOM     17  C   UNL     1       2.722  -4.021   2.578  0.00  0.00    +0.307 C 
ATOM     18  O   UNL     1       3.794  -3.704   3.035  0.00  0.00    -0.251 OA
BRANCH  17  19
ATOM     19  O   UNL     1       2.220  -5.241   2.829  0.00  0.00    -0.468 OA
ATOM     20  C   UNL     1       3.008  -6.111   3.643  0.00  0.00    +0.280 C 
ENDBRANCH  17  19
ENDBRANCH  16  17
ENDBRANCH   8  16
ENDBRANCH   2   8
ENDBRANCH   1   5
BRANCH   1  21
ATOM     21  C   UNL     1       4.784   1.089   6.875  0.00  0.00    +0.258 C 
BRANCH  21  22
ATOM     22  C   UNL     1       4.763   1.832   8.213  0.00  0.00    +0.135 C 
BRANCH  22  23
ATOM     23  O   UNL     1       4.135   1.014   9.202  0.00  0.00    -0.390 OA
ATOM     24  H   UNL     1       4.579   0.168   9.352  0.00  0.00    +0.210 HD
ENDBRANCH  22  23
BRANCH  22  25
ATOM     25  C   UNL     1       6.197   2.144   8.644  0.00  0.00    -0.047 C 
BRANCH  25  26
ATOM     26  N   UNL     1       6.178   2.857   9.929  0.00  0.00    +0.382 N 
ATOM     27  H   UNL     1       5.662   3.718   9.827  0.00  0.00    -0.086 HD
ATOM     28  H   UNL     1       5.734   2.280  10.627  0.00  0.00    -0.086 HD
BRANCH  26  29
ATOM     29  C   UNL     1       7.554   3.157  10.343  0.00  0.00    -0.063 C 
BRANCH  29  30
ATOM     30  C   UNL     1       7.534   3.900  11.681  0.00  0.00    +0.087 C 
BRANCH  30  31
ATOM     31  N   UNL     1       8.907   4.199  12.095  0.00  0.00    -0.301 N 
ATOM     32  C   UNL     1       9.135   4.853  13.251  0.00  0.00    +0.302 C 
ATOM     33  O   UNL     1       8.201   5.274  13.905  0.00  0.00    -0.253 OA
ATOM     34  N   UNL     1      10.399   5.041  13.681  0.00  0.00    -0.281 N 
ATOM     35  C   UNL     1      11.548   4.647  12.850  0.00  0.00    +0.137 C 
ATOM     36  C   UNL     1      12.512   5.836  12.764  0.00  0.00    +0.179 C 
ATOM     37  O   UNL     1      12.810   6.297  14.083  0.00  0.00    -0.377 OA
ATOM     38  C   UNL     1      11.676   6.786  14.803  0.00  0.00    +0.179 C 
ATOM     39  C   UNL     1      10.670   5.651  14.992  0.00  0.00    +0.137 C 
ATOM     40  H   UNL     1       9.652   3.926  11.536  0.00  0.00    +0.150 HD
ENDBRANCH  30  31
ENDBRANCH  29  30
ENDBRANCH  26  29
ENDBRANCH  25  26
ENDBRANCH  22  25
ENDBRANCH  21  22
ENDBRANCH   1  21
TORSDOF 14
