REMARK  Name = ZINC20155082
REMARK  12 active torsions:
REMARK  status: ('A' for Active; 'I' for Inactive)
REMARK    1  A    between atoms: C_1  and  C_2
REMARK    2  A    between atoms: C_2  and  O_3
REMARK    3  A    between atoms: O_3  and  C_4
REMARK    4  A    between atoms: C_4  and  C_6
REMARK    5  A    between atoms: C_9  and  N_12
REMARK    6  A    between atoms: C_13  and  C_15
REMARK    7  A    between atoms: C_17  and  N_33
REMARK    8  A    between atoms: C_20  and  N_21
REMARK    9  A    between atoms: C_22  and  C_24
REMARK   10  A    between atoms: C_24  and  N_25
REMARK   11  A    between atoms: N_25  and  C_26
REMARK   12  A    between atoms: C_26  and  C_27
REMARK                            x       y       z     vdW  Elec       q    Type
REMARK                         _______ _______ _______ _____ _____    ______ ____
ROOT
ATOM      1  C   UNL     1      -2.596   3.808   0.361  0.00  0.00    +0.060 A 
ATOM      2  C   UNL     1      -1.279   3.389   0.162  0.00  0.00    +0.047 A 
ATOM      3  C   UNL     1      -0.996   2.045   0.042  0.00  0.00    +0.127 A 
ATOM      4  C   UNL     1      -2.011   1.106   0.127  0.00  0.00    +0.034 A 
ATOM      5  C   UNL     1      -3.317   1.505   0.329  0.00  0.00    +0.026 A 
ATOM      6  C   UNL     1      -3.622   2.855   0.448  0.00  0.00    +0.046 A 
ENDROOT
BRANCH   1   8
ATOM      7  N   UNL     1      -1.939   6.162   0.289  0.00  0.00    -0.281 N 
ATOM      8  C   UNL     1      -2.906   5.245   0.486  0.00  0.00    +0.250 C 
ATOM      9  O   UNL     1      -4.035   5.601   0.766  0.00  0.00    -0.270 OA
ATOM     10  H   UNL     1      -0.901   5.840   0.119  0.00  0.00    +0.155 HD
BRANCH   7  14
ATOM     11  C   UNL     1      -2.881  10.219   0.321  0.00  0.00    +0.059 A 
ATOM     12  C   UNL     1      -1.641   9.784   0.798  0.00  0.00    +0.017 A 
ATOM     13  C   UNL     1      -1.333   8.442   0.786  0.00  0.00    +0.024 A 
ATOM     14  C   UNL     1      -2.254   7.520   0.299  0.00  0.00    +0.034 A 
ATOM     15  C   UNL     1      -3.487   7.950  -0.182  0.00  0.00    +0.024 A 
ATOM     16  C   UNL     1      -3.804   9.289  -0.168  0.00  0.00    +0.017 A 
BRANCH  11  17
ATOM     17  C   UNL     1      -3.215  11.655   0.333  0.00  0.00    +0.339 C 
ATOM     18  O   UNL     1      -2.412  12.462   0.758  0.00  0.00    -0.245 OA
BRANCH  17  19
ATOM     19  O   UNL     1      -4.410  12.073  -0.129  0.00  0.00    -0.461 OA
BRANCH  19  21
ATOM     20  C   UNL     1      -6.066  13.782  -0.647  0.00  0.00    +0.048 C 
ATOM     21  C   UNL     1      -4.670  13.501  -0.086  0.00  0.00    +0.229 C 
ENDBRANCH  19  21
ENDBRANCH  17  19
ENDBRANCH  11  17
ENDBRANCH   7  14
ENDBRANCH   1   8
BRANCH   6  22
ATOM     22  N   UNL     1      -4.939   3.260   0.652  0.00  0.00    -0.286 N 
ATOM     23  C   UNL     1      -5.810   2.434   1.265  0.00  0.00    +0.200 C 
ATOM     24  O   UNL     1      -5.426   1.380   1.724  0.00  0.00    -0.278 OA
ATOM     25  H   UNL     1      -5.267   4.253   0.312  0.00  0.00    +0.155 HD
BRANCH  23  26
ATOM     26  C   UNL     1      -7.261   2.822   1.381  0.00  0.00    +0.015 C 
BRANCH  26  27
ATOM     27  N   UNL     1      -7.997   1.763   2.085  0.00  0.00    +0.386 N 
ATOM     28  H   UNL     1      -7.913   0.822   1.522  0.00  0.00    -0.085 HD
ATOM     29  H   UNL     1      -7.572   1.628   3.091  0.00  0.00    -0.085 HD
BRANCH  27  30
ATOM     30  C   UNL     1      -9.419   2.108   2.216  0.00  0.00    -0.050 C 
BRANCH  30  31
ATOM     31  C   UNL     1     -10.150   0.984   2.953  0.00  0.00    +0.101 C 
ATOM     32  C   UNL     1     -11.668   1.266   2.993  0.00  0.00    +0.032 C 
ATOM     33  C   UNL     1     -12.107   0.763   4.387  0.00  0.00    +0.030 C 
ATOM     34  C   UNL     1     -10.801   0.237   5.024  0.00  0.00    +0.160 C 
ATOM     35  O   UNL     1      -9.745   0.944   4.339  0.00  0.00    -0.378 OA
ENDBRANCH  30  31
ENDBRANCH  27  30
ENDBRANCH  26  27
ENDBRANCH  23  26
ENDBRANCH   6  22
BRANCH   3  36
ATOM     36  N   UNL     1       0.400   1.603  -0.175  0.00  0.00    +0.056 N 
ATOM     37  O   UNL     1       0.654   0.416  -0.277  0.00  0.00    -0.126 OA
ATOM     38  O   UNL     1       1.294   2.426  -0.256  0.00  0.00    -0.126 OA
ENDBRANCH   3  36
TORSDOF 11
