REMARK  Name = ZINC36494707
REMARK  14 active torsions:
REMARK  status: ('A' for Active; 'I' for Inactive)
REMARK    1  A    between atoms: C_1  and  C_2
REMARK    2  A    between atoms: C_5  and  S_8
REMARK    3  A    between atoms: S_8  and  C_11
REMARK    4  A    between atoms: C_11  and  N_12
REMARK    5  A    between atoms: C_13  and  C_15
REMARK    6  A    between atoms: C_15  and  C_17
REMARK    7  A    between atoms: C_15  and  N_24
REMARK    8  A    between atoms: C_22  and  O_23
REMARK    9  A    between atoms: N_24  and  C_25
REMARK   10  A    between atoms: C_25  and  C_26
REMARK   11  A    between atoms: C_31  and  C_33
REMARK   12  A    between atoms: C_33  and  C_34
REMARK   13  A    between atoms: C_34  and  C_35
REMARK   14  A    between atoms: C_34  and  C_36
REMARK                            x       y       z     vdW  Elec       q    Type
REMARK                         _______ _______ _______ _____ _____    ______ ____
ROOT
ATOM      1  C   UNL     1       3.582  -4.826   3.543  0.00  0.00    +0.196 C 
ENDROOT
BRANCH   1   2
ATOM      2  C   UNL     1       3.111  -3.600   4.281  0.00  0.00    +0.023 A 
ATOM      3  C   UNL     1       1.823  -3.134   4.096  0.00  0.00    +0.009 A 
ATOM      4  C   UNL     1       1.390  -2.009   4.773  0.00  0.00    +0.001 A 
ATOM      5  C   UNL     1       2.243  -1.348   5.637  0.00  0.00    +0.004 A 
ATOM      6  C   UNL     1       3.531  -1.811   5.827  0.00  0.00    +0.046 A 
ATOM      7  C   UNL     1       3.966  -2.943   5.152  0.00  0.00    +0.122 A 
BRANCH   7   8
ATOM      8  O   UNL     1       5.231  -3.403   5.341  0.00  0.00    -0.506 OA
ATOM      9  H   UNL     1       5.894  -2.972   4.784  0.00  0.00    +0.292 HD
ENDBRANCH   7   8
ENDBRANCH   1   2
BRANCH   1  11
ATOM     10  N   UNL     1       2.744  -4.466   1.243  0.00  0.00    -0.294 N 
ATOM     11  C   UNL     1       2.632  -5.128   2.412  0.00  0.00    +0.239 C 
ATOM     12  O   UNL     1       1.768  -5.966   2.554  0.00  0.00    -0.273 OA
ATOM     13  H   UNL     1       3.392  -3.750   1.151  0.00  0.00    +0.150 HD
BRANCH  10  14
ATOM     14  C   UNL     1       1.887  -4.829   0.112  0.00  0.00    +0.278 C 
BRANCH  14  15
ATOM     15  S   UNL     1       0.430  -3.749   0.086  0.00  0.00    +0.013 S 
ATOM     16  O   UNL     1      -0.140  -3.666   1.385  0.00  0.00    -0.168 OA
ATOM     17  O   UNL     1      -0.380  -4.046  -1.043  0.00  0.00    -0.168 OA
BRANCH  15  22
ATOM     18  C   UNL     1       2.607   1.774  -0.994  0.00  0.00    +0.044 C 
ATOM     19  C   UNL     1       2.063   0.394  -0.724  0.00  0.00    -0.050 A 
ATOM     20  C   UNL     1       1.699  -0.423  -1.778  0.00  0.00    +0.005 A 
ATOM     21  C   UNL     1       1.200  -1.688  -1.530  0.00  0.00    +0.027 A 
ATOM     22  C   UNL     1       1.067  -2.137  -0.229  0.00  0.00    +0.090 A 
ATOM     23  C   UNL     1       1.432  -1.319   0.824  0.00  0.00    +0.027 A 
ATOM     24  C   UNL     1       1.935  -0.056   0.577  0.00  0.00    +0.005 A 
ENDBRANCH  15  22
ENDBRANCH  14  15
ENDBRANCH  10  14
ENDBRANCH   1  11
BRANCH   1  25
ATOM     25  N   UNL     1       3.623  -5.965   4.463  0.00  0.00    -0.278 N 
ATOM     26  C   UNL     1       4.129  -7.145   4.053  0.00  0.00    +0.217 C 
ATOM     27  O   UNL     1       4.080  -8.113   4.782  0.00  0.00    -0.276 OA
BRANCH  25  28
ATOM     28  C   UNL     1       3.115  -5.822   5.829  0.00  0.00    +0.183 C 
BRANCH  28  29
ATOM     29  C   UNL     1       1.650  -6.174   5.859  0.00  0.00    +0.122 A 
ATOM     30  C   UNL     1       1.139  -7.397   6.084  0.00  0.00    +0.046 A 
ATOM     31  C   UNL     1      -0.268  -7.272   6.023  0.00  0.00    +0.041 A 
ATOM     32  C   UNL     1      -0.533  -5.979   5.764  0.00  0.00    +0.195 A 
ATOM     33  O   UNL     1       0.632  -5.317   5.672  0.00  0.00    -0.466 OA
ENDBRANCH  28  29
ENDBRANCH  25  28
BRANCH  26  34
ATOM     34  C   UNL     1       4.755  -7.263   2.687  0.00  0.00    +0.099 C 
BRANCH  34  35
ATOM     35  C   UNL     1       5.297  -8.681   2.494  0.00  0.00    -0.008 C 
ATOM     36  C   UNL     1       5.821  -8.837   1.065  0.00  0.00    +0.008 C 
ATOM     37  C   UNL     1       6.436  -8.930   3.485  0.00  0.00    +0.008 C 
ENDBRANCH  34  35
ENDBRANCH  26  34
ENDBRANCH   1  25
TORSDOF 11
