REMARK  Name = ZINC66558173
REMARK  9 active torsions:
REMARK  status: ('A' for Active; 'I' for Inactive)
REMARK    1  A    between atoms: C_1  and  C_2
REMARK    2  A    between atoms: C_2  and  C_3
REMARK    3  A    between atoms: C_3  and  C_23
REMARK    4  A    between atoms: N_6  and  C_10
REMARK    5  A    between atoms: C_10  and  C_11
REMARK    6  A    between atoms: N_13  and  N_14
REMARK    7  A    between atoms: C_15  and  C_17
REMARK    8  A    between atoms: C_18  and  C_22
REMARK    9  A    between atoms: C_23  and  C_24
REMARK                            x       y       z     vdW  Elec       q    Type
REMARK                         _______ _______ _______ _____ _____    ______ ____
ROOT
ATOM      1  C   UNL     1       4.250   0.572  -3.732  0.00  0.00    +0.247 C 
ATOM      2  O   UNL     1       3.851  -0.544  -3.988  0.00  0.00    -0.273 OA
ATOM      3  N   UNL     1       5.416   1.006  -4.250  0.00  0.00    -0.233 N 
ATOM      4  H   UNL     1       5.735   1.899  -4.045  0.00  0.00    +0.173 HD
ENDROOT
BRANCH   3   5
ATOM      5  N   UNL     1       6.167   0.168  -5.085  0.00  0.00    -0.230 N 
ATOM      6  C   UNL     1       7.333   0.602  -5.603  0.00  0.00    +0.267 C 
ATOM      7  O   UNL     1       7.734   1.722  -5.346  0.00  0.00    -0.268 OA
ATOM      8  H   UNL     1       5.848  -0.725  -5.289  0.00  0.00    +0.173 HD
BRANCH   6   9
ATOM      9  C   UNL     1       8.119  -0.275  -6.476  0.00  0.00    +0.078 A 
ATOM     10  C   UNL     1       9.332  -0.028  -7.099  0.00  0.00    -0.031 A 
ATOM     11  C   UNL     1       9.830  -1.054  -7.865  0.00  0.00    +0.011 A 
ATOM     12  C   UNL     1       9.124  -2.208  -7.960  0.00  0.00    +0.046 A 
ATOM     13  S   UNL     1       7.768  -1.940  -7.006  0.00  0.00    -0.092 S 
ATOM     14  C   UNL     1      10.059   1.284  -6.947  0.00  0.00    +0.045 C 
ENDBRANCH   6   9
ENDBRANCH   3   5
BRANCH   1  15
ATOM     15  C   UNL     1       3.442   1.474  -2.834  0.00  0.00    +0.215 C 
BRANCH  15  19
ATOM     16  C   UNL     1       0.718  -0.497  -1.257  0.00  0.00    +0.112 C 
ATOM     17  C   UNL     1       2.144   0.016  -1.295  0.00  0.00    +0.247 C 
ATOM     18  O   UNL     1       3.025  -0.210  -0.494  0.00  0.00    -0.273 OA
ATOM     19  N   UNL     1       2.228   0.775  -2.405  0.00  0.00    -0.215 N 
ATOM     20  C   UNL     1       1.066   0.812  -3.067  0.00  0.00    +0.310 C 
ATOM     21  O   UNL     1       0.895   1.432  -4.099  0.00  0.00    -0.252 OA
ATOM     22  N   UNL     1       0.107   0.087  -2.463  0.00  0.00    -0.285 N 
ATOM     23  H   UNL     1      -0.807  -0.029  -2.764  0.00  0.00    +0.151 HD
BRANCH  16  25
ATOM     24  C   UNL     1      -0.019   1.526   0.010  0.00  0.00    +0.006 C 
ATOM     25  C   UNL     1       0.002  -0.004   0.002  0.00  0.00    +0.032 C 
ENDBRANCH  16  25
BRANCH  16  26
ATOM     26  C   UNL     1       0.691  -2.026  -1.326  0.00  0.00    +0.032 C 
ATOM     27  C   UNL     1       1.412  -2.492  -2.592  0.00  0.00    +0.006 C 
ENDBRANCH  16  26
ENDBRANCH  15  19
ENDBRANCH   1  15
TORSDOF 6
