REMARK  Name = ZINC05959523
REMARK  8 active torsions:
REMARK  status: ('A' for Active; 'I' for Inactive)
REMARK    1  A    between atoms: C_1  and  C_2
REMARK    2  A    between atoms: C_2  and  O_3
REMARK    3  A    between atoms: O_3  and  C_4
REMARK    4  A    between atoms: C_7  and  C_10
REMARK    5  A    between atoms: N_16  and  N_17
REMARK    6  A    between atoms: C_18  and  C_19
REMARK    7  A    between atoms: C_22  and  O_26
REMARK    8  A    between atoms: C_24  and  O_25
REMARK                            x       y       z     vdW  Elec       q    Type
REMARK                         _______ _______ _______ _____ _____    ______ ____
ROOT
ATOM      1  C   UNL     1      -2.502   1.004   0.019  0.00  0.00    +0.184 A 
ATOM      2  N   UNL     1      -2.635  -0.266   0.287  0.00  0.00    -0.152 NA
ATOM      3  N   UNL     1      -3.994  -0.592   0.181  0.00  0.00    -0.253 N 
ATOM      4  H   UNL     1      -4.387  -1.467   0.326  0.00  0.00    +0.191 HD
ATOM      5  C   UNL     1      -4.657   0.533  -0.159  0.00  0.00    +0.197 A 
ATOM      6  S   UNL     1      -6.344   0.675  -0.412  0.00  0.00    -0.010 S 
ATOM      7  N   UNL     1      -3.751   1.527  -0.257  0.00  0.00    -0.188 N 
ENDROOT
BRANCH   1  11
ATOM      8  C   UNL     1       1.153   3.171   0.008  0.00  0.00    +0.121 A 
ATOM      9  C   UNL     1       1.171   1.782   0.000  0.00  0.00    +0.046 A 
ATOM     10  C   UNL     1      -0.013   1.076   0.008  0.00  0.00    +0.015 A 
ATOM     11  C   UNL     1      -1.230   1.758   0.017  0.00  0.00    +0.021 A 
ATOM     12  C   UNL     1      -1.244   3.154   0.031  0.00  0.00    +0.015 A 
ATOM     13  C   UNL     1      -0.056   3.853   0.023  0.00  0.00    +0.046 A 
BRANCH   8  14
ATOM     14  O   UNL     1       2.322   3.863   0.000  0.00  0.00    -0.492 OA
BRANCH  14  16
ATOM     15  C   UNL     1       3.638   5.890  -0.002  0.00  0.00    +0.048 C 
ATOM     16  C   UNL     1       2.231   5.289   0.009  0.00  0.00    +0.225 C 
ENDBRANCH  14  16
ENDBRANCH   8  14
ENDBRANCH   1  11
BRANCH   7  17
ATOM     17  N   UNL     1      -4.028   2.860  -0.586  0.00  0.00    -0.170 NA
ATOM     18  C   UNL     1      -4.016   3.239  -1.828  0.00  0.00    +0.145 C 
BRANCH  18  19
ATOM     19  C   UNL     1      -4.307   4.640  -2.174  0.00  0.00    +0.036 A 
ATOM     20  C   UNL     1      -4.294   5.051  -3.510  0.00  0.00    +0.016 A 
ATOM     21  C   UNL     1      -4.567   6.363  -3.828  0.00  0.00    +0.046 A 
ATOM     22  C   UNL     1      -4.855   7.281  -2.825  0.00  0.00    +0.120 A 
ATOM     23  C   UNL     1      -4.871   6.884  -1.496  0.00  0.00    +0.091 A 
ATOM     24  C   UNL     1      -4.604   5.567  -1.164  0.00  0.00    +0.129 A 
BRANCH  24  25
ATOM     25  O   UNL     1      -4.623   5.176   0.136  0.00  0.00    -0.506 OA
ATOM     26  H   UNL     1      -3.771   5.259   0.585  0.00  0.00    +0.292 HD
ENDBRANCH  24  25
BRANCH  22  27
ATOM     27  O   UNL     1      -5.123   8.573  -3.148  0.00  0.00    -0.507 OA
ATOM     28  H   UNL     1      -6.060   8.752  -3.310  0.00  0.00    +0.292 HD
ENDBRANCH  22  27
ENDBRANCH  18  19
ENDBRANCH   7  17
TORSDOF 7
