REMARK  Name = ZINC49030441
REMARK  6 active torsions:
REMARK  status: ('A' for Active; 'I' for Inactive)
REMARK    1  A    between atoms: C_1  and  C_2
REMARK    2  A    between atoms: C_2  and  C_3
REMARK    3  A    between atoms: C_3  and  N_4
REMARK    4  A    between atoms: C_5  and  C_7
REMARK    5  A    between atoms: C_7  and  N_8
REMARK    6  A    between atoms: N_11  and  C_12
REMARK                            x       y       z     vdW  Elec       q    Type
REMARK                         _______ _______ _______ _____ _____    ______ ____
ROOT
ATOM      1  N   UNL     1      -3.925  -4.703   0.029  0.00  0.00    -0.291 N 
ATOM      2  C   UNL     1      -4.153  -6.031   0.014  0.00  0.00    +0.304 C 
ATOM      3  O   UNL     1      -3.219  -6.809  -0.003  0.00  0.00    -0.252 OA
ATOM      4  N   UNL     1      -5.418  -6.497   0.019  0.00  0.00    -0.268 N 
ATOM      5  H   UNL     1      -4.670  -4.082   0.043  0.00  0.00    +0.151 HD
ATOM      6  H   UNL     1      -6.162  -5.880   0.099  0.00  0.00    +0.156 HD
ENDROOT
BRANCH   4   7
ATOM      7  C   UNL     1      -5.658  -7.871  -0.092  0.00  0.00    +0.049 A 
ATOM      8  C   UNL     1      -4.780  -8.779   0.486  0.00  0.00    +0.039 A 
ATOM      9  C   UNL     1      -5.020 -10.136   0.375  0.00  0.00    +0.020 A 
ATOM     10  C   UNL     1      -6.133 -10.589  -0.311  0.00  0.00    +0.016 A 
ATOM     11  C   UNL     1      -7.008  -9.688  -0.888  0.00  0.00    +0.017 A 
ATOM     12  C   UNL     1      -6.777  -8.330  -0.775  0.00  0.00    +0.035 A 
ATOM     13  I   UNL     1      -8.108  -6.964  -1.642  0.00  0.00    -0.042 I 
ATOM     14 BR   UNL     1      -3.826 -11.373   1.162  0.00  0.00    -0.050 Br
ENDBRANCH   4   7
BRANCH   1  15
ATOM     15  C   UNL     1      -2.550  -4.196   0.024  0.00  0.00    +0.201 C 
BRANCH  15  17
ATOM     16  N   UNL     1      -1.412  -2.000   0.043  0.00  0.00    -0.314 N 
ATOM     17  C   UNL     1      -2.570  -2.689   0.043  0.00  0.00    +0.230 C 
ATOM     18  O   UNL     1      -3.628  -2.097   0.059  0.00  0.00    -0.274 OA
ATOM     19  H   UNL     1      -0.565  -2.474   0.030  0.00  0.00    +0.149 HD
BRANCH  16  20
ATOM     20  C   UNL     1      -1.431  -0.535   0.061  0.00  0.00    +0.104 C 
BRANCH  20  22
ATOM     21  C   UNL     1      -0.016   1.524   0.075  0.00  0.00    +0.005 C 
ATOM     22  C   UNL     1       0.005  -0.006   0.056  0.00  0.00    +0.015 C 
ENDBRANCH  20  22
ENDBRANCH  16  20
ENDBRANCH  15  17
ENDBRANCH   1  15
TORSDOF 5
