REMARK  Name = ZINC15033937
REMARK  11 active torsions:
REMARK  status: ('A' for Active; 'I' for Inactive)
REMARK    1  A    between atoms: C_1  and  C_2
REMARK    2  A    between atoms: C_2  and  C_3
REMARK    3  A    between atoms: C_3  and  C_4
REMARK    4  A    between atoms: C_4  and  N_5
REMARK    5  A    between atoms: C_6  and  N_36
REMARK    6  A    between atoms: C_7  and  N_14
REMARK    7  A    between atoms: N_14  and  C_15
REMARK    8  A    between atoms: C_15  and  C_16
REMARK    9  A    between atoms: C_17  and  C_19
REMARK   10  A    between atoms: C_19  and  N_20
REMARK   11  A    between atoms: C_28  and  C_30
REMARK                            x       y       z     vdW  Elec       q    Type
REMARK                         _______ _______ _______ _____ _____    ______ ____
ROOT
ATOM      1  N   UNL     1      -5.322  -3.614   2.434  0.00  0.00    -0.263 N 
ATOM      2  C   UNL     1      -4.714  -3.314   3.601  0.00  0.00    +0.234 C 
ATOM      3  O   UNL     1      -3.580  -2.883   3.601  0.00  0.00    -0.274 OA
ENDROOT
BRANCH   1   6
ATOM      4  N   UNL     1      -4.548  -2.117  -0.831  0.00  0.00    -0.280 N 
ATOM      5  C   UNL     1      -5.196  -2.375   0.355  0.00  0.00    +0.127 A 
ATOM      6  C   UNL     1      -4.681  -3.327   1.211  0.00  0.00    +0.140 A 
ATOM      7  C   UNL     1      -3.505  -4.007   0.842  0.00  0.00    +0.277 A 
ATOM      8  O   UNL     1      -3.029  -4.854   1.579  0.00  0.00    -0.266 OA
ATOM      9  N   UNL     1      -2.910  -3.717  -0.331  0.00  0.00    -0.273 N 
ATOM     10  H   UNL     1      -2.099  -4.186  -0.586  0.00  0.00    +0.173 HD
ATOM     11  C   UNL     1      -3.429  -2.790  -1.155  0.00  0.00    +0.331 A 
ATOM     12  O   UNL     1      -2.874  -2.551  -2.210  0.00  0.00    -0.246 OA
BRANCH   5  13
ATOM     13  N   UNL     1      -6.342  -1.692   0.684  0.00  0.00    -0.343 N 
ATOM     14  H   UNL     1      -6.662  -0.977   0.111  0.00  0.00    +0.144 HD
ATOM     15  H   UNL     1      -6.831  -1.924   1.488  0.00  0.00    +0.144 HD
ENDBRANCH   5  13
BRANCH   4  16
ATOM     16  C   UNL     1      -5.083  -1.109  -1.749  0.00  0.00    +0.128 C 
BRANCH  16  17
ATOM     17  C   UNL     1      -6.066  -1.771  -2.717  0.00  0.00    +0.021 C 
BRANCH  17  19
ATOM     18  C   UNL     1      -7.608  -1.380  -4.643  0.00  0.00    +0.004 C 
ATOM     19  C   UNL     1      -6.625  -0.718  -3.675  0.00  0.00    -0.002 C 
ENDBRANCH  17  19
ENDBRANCH  16  17
ENDBRANCH   4  16
ENDBRANCH   1   6
BRANCH   1  20
ATOM     20  C   UNL     1      -6.648  -4.237   2.438  0.00  0.00    +0.110 C 
ATOM     21  C   UNL     1      -6.498  -5.754   2.575  0.00  0.00    +0.025 C 
ENDBRANCH   1  20
BRANCH   2  22
ATOM     22  C   UNL     1      -5.444  -3.515   4.904  0.00  0.00    +0.181 C 
BRANCH  22  23
ATOM     23  N   UNL     1      -4.573  -3.118   6.019  0.00  0.00    -0.283 NA
ATOM     24  C   UNL     1      -3.396  -3.995   6.106  0.00  0.00    +0.091 C 
ATOM     25  C   UNL     1      -2.335  -3.314   6.987  0.00  0.00    +0.058 C 
ATOM     26  C   UNL     1      -3.020  -2.808   8.215  0.00  0.00    -0.004 A 
ATOM     27  C   UNL     1      -4.364  -2.681   8.402  0.00  0.00    -0.016 A 
ATOM     28  C   UNL     1      -4.775  -2.187   9.638  0.00  0.00    +0.013 A 
ATOM     29  C   UNL     1      -3.856  -1.858  10.576  0.00  0.00    +0.046 A 
ATOM     30  S   UNL     1      -2.324  -2.241   9.740  0.00  0.00    -0.101 S 
ATOM     31  C   UNL     1      -5.322  -3.074   7.282  0.00  0.00    +0.118 C 
BRANCH  31  32
ATOM     32  C   UNL     1      -6.426  -2.053   7.179  0.00  0.00    -0.026 A 
ATOM     33  C   UNL     1      -6.200  -0.853   6.532  0.00  0.00    +0.005 A 
ATOM     34  C   UNL     1      -7.213   0.083   6.437  0.00  0.00    +0.000 A 
ATOM     35  C   UNL     1      -8.452  -0.182   6.990  0.00  0.00    +0.000 A 
ATOM     36  C   UNL     1      -8.678  -1.382   7.637  0.00  0.00    +0.000 A 
ATOM     37  C   UNL     1      -7.667  -2.320   7.727  0.00  0.00    +0.005 A 
ENDBRANCH  31  32
ENDBRANCH  22  23
ENDBRANCH   2  22
TORSDOF 9
