REMARK  Name = ZINC38870019
REMARK  7 active torsions:
REMARK  status: ('A' for Active; 'I' for Inactive)
REMARK    1  A    between atoms: C_4  and  N_17
REMARK    2  A    between atoms: C_5  and  C_7
REMARK    3  A    between atoms: N_9  and  C_10
REMARK    4  A    between atoms: C_10  and  C_11
REMARK    5  A    between atoms: C_18  and  C_20
REMARK    6  A    between atoms: N_25  and  C_27
REMARK    7  A    between atoms: C_27  and  C_28
REMARK                            x       y       z     vdW  Elec       q    Type
REMARK                         _______ _______ _______ _____ _____    ______ ____
ROOT
ATOM      1  N   UNL     1       3.497  -0.527  -0.058  0.00  0.00    -0.285 N 
ATOM      2  C   UNL     1       4.607   0.223  -0.207  0.00  0.00    +0.219 C 
ATOM      3  O   UNL     1       4.524   1.432  -0.225  0.00  0.00    -0.275 OA
ATOM      4  H   UNL     1       3.571  -1.489   0.038  0.00  0.00    +0.155 HD
ENDROOT
BRANCH   2   5
ATOM      5  C   UNL     1       5.952  -0.443  -0.353  0.00  0.00    +0.059 C 
ATOM      6  C   UNL     1       5.946  -1.342  -1.593  0.00  0.00    +0.009 C 
ATOM      7  C   UNL     1       7.338  -1.952  -1.776  0.00  0.00    -0.018 C 
ATOM      8  C   UNL     1       8.371  -0.827  -1.880  0.00  0.00    -0.078 C 
ATOM      9  N   UNL     1       8.347  -0.020  -0.655  0.00  0.00    +0.383 N 
ATOM     10  C   UNL     1       7.036   0.626  -0.509  0.00  0.00    -0.066 C 
ATOM     11  H   UNL     1       8.517  -0.614   0.142  0.00  0.00    -0.081 HD
BRANCH   9  12
ATOM     12  C   UNL     1       9.392   1.010  -0.727  0.00  0.00    -0.039 C 
BRANCH  12  13
ATOM     13  C   UNL     1      10.747   0.349  -0.743  0.00  0.00    -0.010 A 
ATOM     14  C   UNL     1      11.403   0.087   0.448  0.00  0.00    +0.126 A 
ATOM     15  C   UNL     1      12.648  -0.519   0.432  0.00  0.00    +0.038 A 
ATOM     16  C   UNL     1      13.234  -0.863  -0.772  0.00  0.00    +0.004 A 
ATOM     17  C   UNL     1      12.578  -0.602  -1.960  0.00  0.00    +0.020 A 
ATOM     18  C   UNL     1      11.332  -0.001  -1.946  0.00  0.00    +0.045 A 
ATOM     19 CL   UNL     1      10.506   0.320  -3.439  0.00  0.00    -0.083 Cl
ATOM     20  F   UNL     1      10.831   0.424   1.624  0.00  0.00    -0.205 F 
ENDBRANCH  12  13
ENDBRANCH   9  12
ENDBRANCH   2   5
BRANCH   1  24
ATOM     21  C   UNL     1      -0.255   1.292  -0.007  0.00  0.00    +0.001 A 
ATOM     22  C   UNL     1       0.809   1.903  -0.652  0.00  0.00    +0.002 A 
ATOM     23  C   UNL     1       2.052   1.303  -0.670  0.00  0.00    +0.024 A 
ATOM     24  C   UNL     1       2.244   0.080  -0.040  0.00  0.00    +0.046 A 
ATOM     25  C   UNL     1       1.169  -0.540   0.614  0.00  0.00    +0.058 A 
ATOM     26  C   UNL     1      -0.083   0.079   0.624  0.00  0.00    +0.015 A 
BRANCH  25  27
ATOM     27  C   UNL     1       1.360  -1.839   1.287  0.00  0.00    +0.246 C 
ATOM     28  O   UNL     1       2.470  -2.329   1.359  0.00  0.00    -0.270 OA
ATOM     29  N   UNL     1       0.303  -2.482   1.822  0.00  0.00    -0.309 N 
ATOM     30  H   UNL     1      -0.582  -2.091   1.764  0.00  0.00    +0.149 HD
BRANCH  29  31
ATOM     31  C   UNL     1       0.493  -3.772   2.490  0.00  0.00    +0.136 C 
BRANCH  31  32
ATOM     32  C   UNL     1      -0.855  -4.283   3.003  0.00  0.00    +0.135 C 
ATOM     33  C   UNL     1      -0.671  -5.631   3.745  0.00  0.00    +0.035 C 
ATOM     34  C   UNL     1      -1.909  -5.623   4.683  0.00  0.00    +0.031 C 
ATOM     35  C   UNL     1      -2.058  -4.122   5.015  0.00  0.00    +0.160 C 
ATOM     36  O   UNL     1      -1.388  -3.382   3.986  0.00  0.00    -0.375 OA
ENDBRANCH  31  32
ENDBRANCH  29  31
ENDBRANCH  25  27
ENDBRANCH   1  24
TORSDOF 7
