REMARK  Name = ZINC35363921
REMARK  9 active torsions:
REMARK  status: ('A' for Active; 'I' for Inactive)
REMARK    1  A    between atoms: C_1  and  C_2
REMARK    2  A    between atoms: C_2  and  C_3
REMARK    3  A    between atoms: C_3  and  C_5
REMARK    4  A    between atoms: C_3  and  C_6
REMARK    5  A    between atoms: C_6  and  C_8
REMARK    6  A    between atoms: C_6  and  N_18
REMARK    7  A    between atoms: N_10  and  C_11
REMARK    8  A    between atoms: C_11  and  C_12
REMARK    9  A    between atoms: C_19  and  C_21
REMARK                            x       y       z     vdW  Elec       q    Type
REMARK                         _______ _______ _______ _____ _____    ______ ____
ROOT
ATOM      1  C   UNL     1       2.892   3.582  -0.197  0.00  0.00    +0.167 C 
ATOM      2  C   UNL     1       4.259   3.818  -0.855  0.00  0.00    +0.069 C 
ATOM      3  C   UNL     1       5.363   3.634   0.154  0.00  0.00    -0.015 A 
ATOM      4  C   UNL     1       6.778   3.451  -0.115  0.00  0.00    +0.003 A 
ATOM      5  C   UNL     1       7.511   3.381  -1.303  0.00  0.00    +0.010 A 
ATOM      6  C   UNL     1       8.867   3.200  -1.185  0.00  0.00    +0.001 A 
ATOM      7  C   UNL     1       9.490   3.090   0.047  0.00  0.00    +0.002 A 
ATOM      8  C   UNL     1       8.789   3.155   1.238  0.00  0.00    +0.026 A 
ATOM      9  C   UNL     1       7.410   3.338   1.149  0.00  0.00    +0.047 A 
ATOM     10  N   UNL     1       6.437   3.441   2.100  0.00  0.00    -0.356 N 
ATOM     11  H   UNL     1       6.586   3.403   3.058  0.00  0.00    +0.166 HD
ATOM     12  C   UNL     1       5.219   3.608   1.498  0.00  0.00    +0.046 A 
ATOM     13  C   UNL     1       3.880   3.728   2.184  0.00  0.00    +0.155 C 
ATOM     14  N   UNL     1       2.927   4.179   1.142  0.00  0.00    -0.273 N 
ATOM     15  C   UNL     1       2.199   5.188   1.639  0.00  0.00    +0.248 C 
ATOM     16  O   UNL     1       1.185   5.634   1.139  0.00  0.00    -0.270 OA
ATOM     17  C   UNL     1       2.815   5.672   2.879  0.00  0.00    +0.042 A 
ATOM     18  C   UNL     1       3.872   4.776   3.244  0.00  0.00    -0.009 A 
ATOM     19  C   UNL     1       4.649   4.962   4.366  0.00  0.00    +0.006 A 
ATOM     20  C   UNL     1       4.353   6.063   5.165  0.00  0.00    +0.000 A 
ATOM     21  C   UNL     1       3.327   6.933   4.855  0.00  0.00    +0.001 A 
ATOM     22  C   UNL     1       2.511   6.776   3.678  0.00  0.00    +0.013 A 
ENDROOT
BRANCH   1  24
ATOM     23  N   UNL     1       2.569   1.345  -1.202  0.00  0.00    -0.302 N 
ATOM     24  C   UNL     1       2.627   2.102  -0.089  0.00  0.00    +0.235 C 
ATOM     25  O   UNL     1       2.467   1.593   1.000  0.00  0.00    -0.274 OA
ATOM     26  H   UNL     1       2.771   1.736  -2.066  0.00  0.00    +0.150 HD
BRANCH  23  27
ATOM     27  C   UNL     1       2.199  -0.070  -1.107  0.00  0.00    +0.162 C 
BRANCH  27  28
ATOM     28  C   UNL     1       2.917  -0.849  -2.178  0.00  0.00    +0.234 C 
ATOM     29  O   UNL     1       3.672  -0.281  -2.939  0.00  0.00    -0.274 OA
ATOM     30  N   UNL     1       2.720  -2.178  -2.291  0.00  0.00    -0.311 N 
ATOM     31  H   UNL     1       2.063  -2.620  -1.732  0.00  0.00    +0.149 HD
BRANCH  30  32
ATOM     32  C   UNL     1       3.500  -2.954  -3.258  0.00  0.00    +0.135 C 
BRANCH  32  33
ATOM     33  C   UNL     1       3.085  -4.425  -3.185  0.00  0.00    +0.135 C 
ATOM     34  C   UNL     1       3.923  -5.271  -4.176  0.00  0.00    +0.035 C 
ATOM     35  C   UNL     1       3.839  -6.672  -3.513  0.00  0.00    +0.031 C 
ATOM     36  C   UNL     1       3.820  -6.322  -2.009  0.00  0.00    +0.160 C 
ATOM     37  O   UNL     1       3.382  -4.963  -1.886  0.00  0.00    -0.375 OA
ENDBRANCH  32  33
ENDBRANCH  30  32
ENDBRANCH  27  28
BRANCH  27  38
ATOM     38  C   UNL     1       0.688  -0.215  -1.297  0.00  0.00    +0.015 C 
ATOM     39  C   UNL     1      -0.040   0.435  -0.118  0.00  0.00    +0.010 C 
BRANCH  38  41
ATOM     40  C   UNL     1       0.827  -0.305  -3.790  0.00  0.00    +0.004 C 
ATOM     41  C   UNL     1       0.268   0.473  -2.598  0.00  0.00    +0.002 C 
ENDBRANCH  38  41
ENDBRANCH  27  38
ENDBRANCH  23  27
ENDBRANCH   1  24
TORSDOF 7
