REMARK  Name = ZINC18143635
REMARK  10 active torsions:
REMARK  status: ('A' for Active; 'I' for Inactive)
REMARK    1  A    between atoms: C_1  and  C_2
REMARK    2  A    between atoms: C_2  and  O_3
REMARK    3  A    between atoms: O_3  and  C_4
REMARK    4  A    between atoms: C_8  and  N_10
REMARK    5  A    between atoms: C_14  and  N_51
REMARK    6  A    between atoms: C_18  and  C_19
REMARK    7  A    between atoms: C_18  and  N_51
REMARK    8  A    between atoms: C_19  and  C_20
REMARK    9  A    between atoms: C_23  and  S_26
REMARK   10  A    between atoms: S_26  and  N_29
REMARK                            x       y       z     vdW  Elec       q    Type
REMARK                         _______ _______ _______ _____ _____    ______ ____
ROOT
ATOM      1  N   UNL     1      -0.066   1.126   2.443  0.00  0.00    +0.387 N 
ATOM      2  H   UNL     1      -0.034   0.100   2.412  0.00  0.00    -0.085 HD
ATOM      3  H   UNL     1       0.890   1.500   2.404  0.00  0.00    -0.085 HD
ENDROOT
BRANCH   1   8
ATOM      4  N   UNL     1       0.427   2.784   5.319  0.00  0.00    -0.212 N 
ATOM      5  C   UNL     1       0.424   1.542   5.819  0.00  0.00    +0.225 C 
ATOM      6  O   UNL     1       0.915   1.210   6.876  0.00  0.00    -0.275 OA
ATOM      7  C   UNL     1      -0.295   0.618   4.856  0.00  0.00    +0.090 C 
ATOM      8  C   UNL     1      -0.706   1.554   3.701  0.00  0.00    +0.026 C 
ATOM      9  C   UNL     1      -0.181   2.906   4.132  0.00  0.00    +0.213 C 
ATOM     10  O   UNL     1      -0.293   3.936   3.503  0.00  0.00    -0.277 OA
BRANCH   4  15
ATOM     11  C   UNL     1       2.728   5.548   6.112  0.00  0.00    +0.122 A 
ATOM     12  C   UNL     1       2.181   6.009   7.301  0.00  0.00    +0.046 A 
ATOM     13  C   UNL     1       1.058   5.402   7.829  0.00  0.00    +0.005 A 
ATOM     14  C   UNL     1       0.476   4.333   7.174  0.00  0.00    +0.024 A 
ATOM     15  C   UNL     1       1.018   3.868   5.984  0.00  0.00    +0.047 A 
ATOM     16  C   UNL     1       2.149   4.473   5.455  0.00  0.00    +0.069 A 
BRANCH  11  17
ATOM     17  O   UNL     1       3.833   6.147   5.594  0.00  0.00    -0.492 OA
BRANCH  17  19
ATOM     18  C   UNL     1       5.609   7.785   5.595  0.00  0.00    +0.048 C 
ATOM     19  C   UNL     1       4.379   7.245   6.327  0.00  0.00    +0.225 C 
ENDBRANCH  17  19
ENDBRANCH  11  17
ENDBRANCH   4  15
ENDBRANCH   1   8
BRANCH   1  20
ATOM     20  C   UNL     1      -0.830   1.624   1.284  0.00  0.00    -0.077 C 
BRANCH  20  21
ATOM     21  C   UNL     1      -0.144   1.165  -0.004  0.00  0.00    +0.016 C 
BRANCH  21  22
ATOM     22  C   UNL     1      -0.919   1.670  -1.194  0.00  0.00    -0.049 A 
ATOM     23  C   UNL     1      -1.930   0.900  -1.738  0.00  0.00    +0.005 A 
ATOM     24  C   UNL     1      -2.644   1.365  -2.826  0.00  0.00    +0.029 A 
ATOM     25  C   UNL     1      -2.341   2.597  -3.376  0.00  0.00    +0.105 A 
ATOM     26  C   UNL     1      -1.327   3.365  -2.835  0.00  0.00    +0.029 A 
ATOM     27  C   UNL     1      -0.616   2.901  -1.744  0.00  0.00    +0.005 A 
BRANCH  25  28
ATOM     28  S   UNL     1      -3.248   3.188  -4.766  0.00  0.00    +0.056 S 
ATOM     29  O   UNL     1      -4.505   2.525  -4.743  0.00  0.00    -0.153 OA
ATOM     30  O   UNL     1      -3.135   4.605  -4.753  0.00  0.00    -0.153 OA
BRANCH  28  31
ATOM     31  N   UNL     1      -2.460   2.663  -6.125  0.00  0.00    -0.204 NA
ATOM     32  H   UNL     1      -1.653   2.132  -6.042  0.00  0.00    +0.144 HD
ATOM     33  H   UNL     1      -2.806   2.887  -7.003  0.00  0.00    +0.144 HD
ENDBRANCH  28  31
ENDBRANCH  25  28
ENDBRANCH  21  22
ENDBRANCH  20  21
ENDBRANCH   1  20
TORSDOF 9
