REMARK  Name = ZINC04163794
REMARK  5 active torsions:
REMARK  status: ('A' for Active; 'I' for Inactive)
REMARK    1  A    between atoms: C_4  and  C_7
REMARK    2  A    between atoms: C_7  and  C_9
REMARK    3  A    between atoms: C_11  and  C_23
REMARK    4  A    between atoms: C_17  and  C_18
REMARK    5  A    between atoms: C_17  and  O_22
REMARK                            x       y       z     vdW  Elec       q    Type
REMARK                         _______ _______ _______ _____ _____    ______ ____
ROOT
ATOM      1  C   UNL     1       3.076   3.878  -1.401  0.00  0.00    +0.144 C 
ATOM      2  C   UNL     1       1.585   4.207  -1.268  0.00  0.00    +0.120 C 
ATOM      3  N   UNL     1       1.008   3.398  -0.194  0.00  0.00    -0.292 N 
ATOM      4  C   UNL     1       1.748   2.992   0.849  0.00  0.00    +0.302 C 
ATOM      5  O   UNL     1       1.217   2.331   1.720  0.00  0.00    -0.253 OA
ATOM      6  N   UNL     1       3.051   3.288   0.969  0.00  0.00    -0.264 N 
ATOM      7  C   UNL     1       3.745   4.091  -0.039  0.00  0.00    +0.243 C 
ATOM      8  H   UNL     1       0.071   3.149  -0.237  0.00  0.00    +0.151 HD
ATOM      9  H   UNL     1       3.543   2.963   1.739  0.00  0.00    +0.153 HD
ENDROOT
BRANCH   2  10
ATOM     10  C   UNL     1       0.884   3.896  -2.566  0.00  0.00    -0.023 A 
ATOM     11  C   UNL     1       0.706   4.891  -3.509  0.00  0.00    +0.009 A 
ATOM     12  C   UNL     1       0.063   4.611  -4.700  0.00  0.00    +0.050 A 
ATOM     13  C   UNL     1      -0.409   3.333  -4.950  0.00  0.00    +0.166 A 
ATOM     14  C   UNL     1      -0.226   2.329  -4.001  0.00  0.00    +0.167 A 
ATOM     15  C   UNL     1       0.420   2.617  -2.810  0.00  0.00    +0.055 A 
ATOM     16  O   UNL     1      -0.769   1.172  -4.480  0.00  0.00    -0.453 OA
ATOM     17  C   UNL     1      -0.918   1.375  -5.897  0.00  0.00    +0.466 C 
ATOM     18  O   UNL     1      -1.060   2.802  -6.026  0.00  0.00    -0.453 OA
ENDBRANCH   2  10
BRANCH   7  19
ATOM     19  C   UNL     1       3.667   5.570   0.344  0.00  0.00    +0.436 C 
ATOM     20  F   UNL     1       2.326   5.963   0.417  0.00  0.00    -0.166 F 
ATOM     21  F   UNL     1       4.278   5.764   1.587  0.00  0.00    -0.166 F 
ATOM     22  F   UNL     1       4.325   6.338  -0.624  0.00  0.00    -0.166 F 
ENDBRANCH   7  19
BRANCH   1  23
ATOM     23  C   UNL     1       3.241   2.442  -1.826  0.00  0.00    +0.173 C 
ATOM     24  O   UNL     1       3.252   1.560  -0.994  0.00  0.00    -0.292 OA
BRANCH  23  28
ATOM     25  C   UNL     1       3.666   1.483  -5.936  0.00  0.00    +0.000 A 
ATOM     26  C   UNL     1       3.680   0.474  -4.989  0.00  0.00    +0.001 A 
ATOM     27  C   UNL     1       3.543   0.777  -3.651  0.00  0.00    +0.011 A 
ATOM     28  C   UNL     1       3.389   2.109  -3.252  0.00  0.00    +0.018 A 
ATOM     29  C   UNL     1       3.371   3.122  -4.216  0.00  0.00    +0.011 A 
ATOM     30  C   UNL     1       3.514   2.803  -5.550  0.00  0.00    +0.001 A 
ENDBRANCH  23  28
ENDBRANCH   1  23
BRANCH   7  31
ATOM     31  O   UNL     1       5.115   3.689  -0.111  0.00  0.00    -0.364 OA
ATOM     32  H   UNL     1       5.601   3.796   0.718  0.00  0.00    +0.212 HD
ENDBRANCH   7  31
TORSDOF 5
