REMARK  Name = ZINC38256130
REMARK  7 active torsions:
REMARK  status: ('A' for Active; 'I' for Inactive)
REMARK    1  A    between atoms: C_1  and  C_2
REMARK    2  A    between atoms: C_7  and  C_12
REMARK    3  A    between atoms: C_12  and  C_13
REMARK    4  A    between atoms: C_14  and  C_27
REMARK    5  A    between atoms: N_16  and  C_21
REMARK    6  A    between atoms: C_21  and  C_22
REMARK    7  A    between atoms: C_30  and  N_33
REMARK                            x       y       z     vdW  Elec       q    Type
REMARK                         _______ _______ _______ _____ _____    ______ ____
ROOT
ATOM      1  C   UNL     1       7.408  -1.423  -0.405  0.00  0.00    +0.076 C 
ATOM      2  C   UNL     1       7.299  -1.264   1.094  0.00  0.00    +0.145 C 
ATOM      3  N   UNL     1       8.675  -1.194   1.599  0.00  0.00    -0.276 N 
ATOM      4  C   UNL     1       9.508  -1.296   0.546  0.00  0.00    +0.288 C 
ATOM      5  O   UNL     1      10.721  -1.275   0.612  0.00  0.00    -0.266 OA
ATOM      6  C   UNL     1       8.728  -1.445  -0.701  0.00  0.00    +0.249 C 
ATOM      7  O   UNL     1       9.252  -1.579  -1.941  0.00  0.00    -0.282 OA
ENDROOT
BRANCH   2   8
ATOM      8  C   UNL     1       6.588  -2.452   1.690  0.00  0.00    -0.022 A 
ATOM      9  C   UNL     1       7.215  -3.683   1.732  0.00  0.00    +0.008 A 
ATOM     10  C   UNL     1       6.563  -4.772   2.279  0.00  0.00    +0.033 A 
ATOM     11  C   UNL     1       5.285  -4.630   2.785  0.00  0.00    +0.126 A 
ATOM     12  C   UNL     1       4.658  -3.399   2.744  0.00  0.00    +0.033 A 
ATOM     13  C   UNL     1       5.312  -2.308   2.201  0.00  0.00    +0.008 A 
BRANCH  11  14
ATOM     14  N   UNL     1       4.586  -5.797   3.370  0.00  0.00    +0.056 N 
ATOM     15  O   UNL     1       5.134  -6.874   3.406  0.00  0.00    -0.126 OA
ATOM     16  O   UNL     1       3.468  -5.672   3.813  0.00  0.00    -0.126 OA
ENDBRANCH  11  14
ENDBRANCH   2   8
BRANCH   1  17
ATOM     17  C   UNL     1       6.297  -1.538  -1.355  0.00  0.00    +0.195 C 
ATOM     18  O   UNL     1       6.122  -2.577  -1.964  0.00  0.00    -0.287 OA
BRANCH  17  24
ATOM     19  C   UNL     1       2.980   3.035  -4.722  0.00  0.00    +0.052 C 
ATOM     20  C   UNL     1       2.189   2.350  -3.606  0.00  0.00    +0.175 C 
ATOM     21  C   UNL     1       2.368   0.815  -3.669  0.00  0.00    +0.083 C 
ATOM     22  C   UNL     1       3.535   0.597  -2.725  0.00  0.00    -0.002 A 
ATOM     23  C   UNL     1       4.372  -0.472  -2.529  0.00  0.00    +0.019 A 
ATOM     24  C   UNL     1       5.391  -0.393  -1.573  0.00  0.00    +0.023 A 
ATOM     25  C   UNL     1       5.544   0.779  -0.826  0.00  0.00    +0.015 A 
ATOM     26  C   UNL     1       4.698   1.843  -1.028  0.00  0.00    +0.046 A 
ATOM     27  C   UNL     1       3.678   1.765  -1.979  0.00  0.00    +0.124 A 
ATOM     28  O   UNL     1       2.731   2.686  -2.318  0.00  0.00    -0.488 OA
ENDBRANCH  17  24
ENDBRANCH   1  17
BRANCH   3  29
ATOM     29  C   UNL     1       9.072  -1.040   3.000  0.00  0.00    +0.183 C 
BRANCH  29  30
ATOM     30  C   UNL     1       9.226  -2.399   3.632  0.00  0.00    +0.122 A 
ATOM     31  C   UNL     1      10.357  -3.126   3.671  0.00  0.00    +0.046 A 
ATOM     32  C   UNL     1      10.050  -4.325   4.353  0.00  0.00    +0.041 A 
ATOM     33  C   UNL     1       8.750  -4.260   4.691  0.00  0.00    +0.195 A 
ATOM     34  O   UNL     1       8.257  -3.089   4.256  0.00  0.00    -0.466 OA
ENDBRANCH  29  30
ENDBRANCH   3  29
TORSDOF 6
