REMARK  Name = ZINC29941595
REMARK  6 active torsions:
REMARK  status: ('A' for Active; 'I' for Inactive)
REMARK    1  A    between atoms: C_1  and  C_2
REMARK    2  A    between atoms: C_5  and  N_9
REMARK    3  A    between atoms: C_6  and  C_8
REMARK    4  A    between atoms: N_9  and  C_10
REMARK    5  A    between atoms: C_10  and  C_11
REMARK    6  A    between atoms: N_16  and  C_17
REMARK                            x       y       z     vdW  Elec       q    Type
REMARK                         _______ _______ _______ _____ _____    ______ ____
ROOT
ATOM      1  C   UNL     1       4.832  -4.006   0.226  0.00  0.00    +0.237 C 
ATOM      2  O   UNL     1       3.790  -4.627   0.235  0.00  0.00    -0.274 OA
ATOM      3  N   UNL     1       4.814  -2.662   0.133  0.00  0.00    -0.239 N 
ATOM      4  C   UNL     1       3.639  -2.008   0.049  0.00  0.00    +0.310 C 
ATOM      5  O   UNL     1       2.595  -2.630   0.058  0.00  0.00    -0.252 OA
ATOM      6  N   UNL     1       3.622  -0.663  -0.045  0.00  0.00    -0.269 N 
ATOM      7  H   UNL     1       5.759  -2.099   0.124  0.00  0.00    +0.159 HD
ATOM      8  H   UNL     1       4.565  -0.106  -0.141  0.00  0.00    +0.156 HD
ENDROOT
BRANCH   6   9
ATOM      9  C   UNL     1       2.401   0.025  -0.019  0.00  0.00    +0.038 A 
ATOM     10  C   UNL     1       1.346  -0.460   0.741  0.00  0.00    +0.027 A 
ATOM     11  C   UNL     1       0.142   0.218   0.766  0.00  0.00    +0.051 A 
ATOM     12  C   UNL     1      -0.016   1.384   0.032  0.00  0.00    +0.162 A 
ATOM     13  C   UNL     1       1.040   1.873  -0.728  0.00  0.00    +0.164 A 
ATOM     14  C   UNL     1       2.247   1.192  -0.754  0.00  0.00    +0.072 A 
ATOM     15  O   UNL     1       0.906   3.021  -1.448  0.00  0.00    -0.485 OA
ATOM     16  C   UNL     1      -0.429   3.474  -1.696  0.00  0.00    +0.270 C 
ATOM     17  C   UNL     1      -1.215   3.396  -0.380  0.00  0.00    +0.270 C 
ATOM     18  O   UNL     1      -1.212   2.034   0.062  0.00  0.00    -0.485 OA
ENDBRANCH   6   9
BRANCH   1  19
ATOM     19  C   UNL     1       6.146  -4.738   0.320  0.00  0.00    +0.198 C 
BRANCH  19  20
ATOM     20  N   UNL     1       5.897  -6.179   0.411  0.00  0.00    -0.335 N 
ATOM     21  H   UNL     1       4.865  -6.561   0.404  0.00  0.00    +0.147 HD
BRANCH  20  26
ATOM     22  C   UNL     1      10.252  -9.789   0.806  0.00  0.00    +0.044 C 
ATOM     23  C   UNL     1       9.095  -8.830   0.701  0.00  0.00    -0.050 A 
ATOM     24  C   UNL     1       9.331  -7.470   0.613  0.00  0.00    +0.005 A 
ATOM     25  C   UNL     1       8.273  -6.588   0.517  0.00  0.00    +0.023 A 
ATOM     26  C   UNL     1       6.970  -7.068   0.508  0.00  0.00    +0.030 A 
ATOM     27  C   UNL     1       6.735  -8.434   0.601  0.00  0.00    -0.029 A 
ATOM     28  C   UNL     1       7.798  -9.311   0.692  0.00  0.00    +0.008 A 
ATOM     29  C   UNL     1       5.322  -8.959   0.597  0.00  0.00    +0.045 C 
ENDBRANCH  20  26
ENDBRANCH  19  20
ENDBRANCH   1  19
TORSDOF 4
