REMARK  Name = ZINC14246771
REMARK  11 active torsions:
REMARK  status: ('A' for Active; 'I' for Inactive)
REMARK    1  A    between atoms: C_1  and  C_2
REMARK    2  A    between atoms: C_2  and  C_4
REMARK    3  A    between atoms: C_2  and  O_16
REMARK    4  A    between atoms: N_6  and  C_7
REMARK    5  A    between atoms: C_11  and  N_13
REMARK    6  A    between atoms: O_16  and  C_17
REMARK    7  A    between atoms: C_17  and  C_19
REMARK    8  A    between atoms: C_25  and  C_27
REMARK    9  A    between atoms: C_27  and  C_28
REMARK   10  A    between atoms: C_27  and  C_29
REMARK   11  A    between atoms: C_27  and  C_30
REMARK                            x       y       z     vdW  Elec       q    Type
REMARK                         _______ _______ _______ _____ _____    ______ ____
ROOT
ATOM      1  C   UNL     1       2.062   6.080  -1.837  0.00  0.00    +0.062 C 
ATOM      2  C   UNL     1       2.400   5.804  -0.371  0.00  0.00    +0.259 C 
ENDROOT
BRANCH   2   3
ATOM      3  C   UNL     1       2.582   4.322  -0.168  0.00  0.00    +0.258 C 
ATOM      4  O   UNL     1       3.667   3.881   0.147  0.00  0.00    -0.271 OA
ATOM      5  N   UNL     1       1.538   3.486  -0.335  0.00  0.00    -0.282 N 
ATOM      6  H   UNL     1       0.690   3.827  -0.658  0.00  0.00    +0.155 HD
BRANCH   5   7
ATOM      7  C   UNL     1       1.678   2.124  -0.043  0.00  0.00    +0.036 A 
ATOM      8  C   UNL     1       2.471   1.720   1.023  0.00  0.00    +0.023 A 
ATOM      9  C   UNL     1       2.608   0.376   1.309  0.00  0.00    +0.004 A 
ATOM     10  C   UNL     1       1.957  -0.567   0.534  0.00  0.00    +0.033 A 
ATOM     11  C   UNL     1       1.171  -0.168  -0.531  0.00  0.00    +0.128 A 
ATOM     12  C   UNL     1       1.025   1.175  -0.818  0.00  0.00    +0.056 A 
BRANCH  11  13
ATOM     13  N   UNL     1       0.480  -1.181  -1.361  0.00  0.00    +0.056 N 
ATOM     14  O   UNL     1       0.605  -2.365  -1.105  0.00  0.00    -0.126 OA
ATOM     15  O   UNL     1      -0.212  -0.829  -2.299  0.00  0.00    -0.126 OA
ENDBRANCH  11  13
ENDBRANCH   5   7
ENDBRANCH   2   3
BRANCH   2  16
ATOM     16  O   UNL     1       3.627   6.495  -0.019  0.00  0.00    -0.452 OA
BRANCH  16  17
ATOM     17  C   UNL     1       3.508   7.745   0.455  0.00  0.00    +0.311 C 
ATOM     18  O   UNL     1       2.415   8.245   0.573  0.00  0.00    -0.251 OA
BRANCH  17  19
ATOM     19  C   UNL     1       4.739   8.524   0.842  0.00  0.00    +0.101 C 
ATOM     20  C   UNL     1       5.489   7.778   1.947  0.00  0.00    +0.033 C 
ATOM     21  C   UNL     1       6.757   8.556   2.313  0.00  0.00    +0.108 C 
ATOM     22  N   UNL     1       6.383   9.933   2.662  0.00  0.00    -0.301 N 
ATOM     23  C   UNL     1       5.582  10.711   1.707  0.00  0.00    +0.108 C 
ATOM     24  C   UNL     1       4.327   9.909   1.348  0.00  0.00    +0.033 C 
ATOM     25  C   UNL     1       6.767  10.472   3.836  0.00  0.00    +0.221 C 
ATOM     26  O   UNL     1       6.377  11.576   4.152  0.00  0.00    -0.275 OA
BRANCH  25  27
ATOM     27  C   UNL     1       7.681   9.704   4.755  0.00  0.00    +0.039 C 
ATOM     28  C   UNL     1       8.106  10.601   5.919  0.00  0.00    +0.020 C 
ATOM     29  C   UNL     1       6.945   8.478   5.299  0.00  0.00    +0.020 C 
ATOM     30  C   UNL     1       8.921   9.252   3.980  0.00  0.00    +0.020 C 
ENDBRANCH  25  27
ENDBRANCH  17  19
ENDBRANCH  16  17
ENDBRANCH   2  16
TORSDOF 7
