REMARK  Name = ZINC10002283
REMARK  11 active torsions:
REMARK  status: ('A' for Active; 'I' for Inactive)
REMARK    1  A    between atoms: C_1  and  C_2
REMARK    2  A    between atoms: C_2  and  C_3
REMARK    3  A    between atoms: C_2  and  C_4
REMARK    4  A    between atoms: C_4  and  C_6
REMARK    5  A    between atoms: C_4  and  N_26
REMARK    6  A    between atoms: N_8  and  N_9
REMARK    7  A    between atoms: C_10  and  C_11
REMARK    8  A    between atoms: C_16  and  O_17
REMARK    9  A    between atoms: O_17  and  C_18
REMARK   10  A    between atoms: C_18  and  C_19
REMARK   11  A    between atoms: C_27  and  C_29
REMARK                            x       y       z     vdW  Elec       q    Type
REMARK                         _______ _______ _______ _____ _____    ______ ____
ROOT
ATOM      1  C   UNL     1      -3.838   7.136   0.124  0.00  0.00    +0.253 C 
ATOM      2  O   UNL     1      -2.760   7.672  -0.016  0.00  0.00    -0.272 OA
ATOM      3  N   UNL     1      -3.905   5.819   0.403  0.00  0.00    -0.205 N 
ATOM      4  H   UNL     1      -4.763   5.404   0.581  0.00  0.00    +0.177 HD
ENDROOT
BRANCH   3   5
ATOM      5  N   UNL     1      -2.734   5.050   0.435  0.00  0.00    -0.188 NA
ATOM      6  C   UNL     1      -2.798   3.781   0.703  0.00  0.00    +0.142 C 
BRANCH   6   7
ATOM      7  C   UNL     1      -1.567   2.972   0.737  0.00  0.00    +0.036 A 
ATOM      8  C   UNL     1      -1.632   1.606   1.020  0.00  0.00    +0.013 A 
ATOM      9  C   UNL     1      -0.475   0.856   1.055  0.00  0.00    +0.001 A 
ATOM     10  C   UNL     1       0.749   1.448   0.800  0.00  0.00    +0.004 A 
ATOM     11  C   UNL     1       0.826   2.798   0.513  0.00  0.00    +0.046 A 
ATOM     12  C   UNL     1      -0.325   3.568   0.479  0.00  0.00    +0.130 A 
BRANCH  12  13
ATOM     13  O   UNL     1      -0.250   4.895   0.199  0.00  0.00    -0.487 OA
BRANCH  13  14
ATOM     14  C   UNL     1       1.050   5.432  -0.053  0.00  0.00    +0.264 C 
BRANCH  14  15
ATOM     15  C   UNL     1       0.936   6.907  -0.344  0.00  0.00    -0.010 A 
ATOM     16  C   UNL     1       0.763   7.343  -1.644  0.00  0.00    +0.008 A 
ATOM     17  C   UNL     1       0.653   8.695  -1.911  0.00  0.00    +0.020 A 
ATOM     18  C   UNL     1       0.727   9.612  -0.878  0.00  0.00    +0.041 A 
ATOM     19  C   UNL     1       0.906   9.175   0.423  0.00  0.00    +0.020 A 
ATOM     20  C   UNL     1       1.010   7.822   0.689  0.00  0.00    +0.008 A 
ATOM     21 CL   UNL     1       0.595  11.310  -1.213  0.00  0.00    -0.084 Cl
ENDBRANCH  14  15
ENDBRANCH  13  14
ENDBRANCH  12  13
ENDBRANCH   6   7
ENDBRANCH   3   5
BRANCH   1  22
ATOM     22  C   UNL     1      -5.104   7.941  -0.015  0.00  0.00    +0.163 C 
BRANCH  22  23
ATOM     23  N   UNL     1      -4.837   9.336   0.343  0.00  0.00    -0.300 N 
ATOM     24  C   UNL     1      -5.839  10.123   0.783  0.00  0.00    +0.245 C 
ATOM     25  O   UNL     1      -6.965   9.675   0.882  0.00  0.00    -0.270 OA
ATOM     26  H   UNL     1      -3.939   9.694   0.263  0.00  0.00    +0.150 HD
BRANCH  24  27
ATOM     27  C   UNL     1      -5.569  11.529   1.143  0.00  0.00    +0.040 A 
ATOM     28  C   UNL     1      -4.275  12.044   1.034  0.00  0.00    +0.017 A 
ATOM     29  C   UNL     1      -4.027  13.358   1.366  0.00  0.00    +0.050 A 
ATOM     30  C   UNL     1      -5.057  14.171   1.820  0.00  0.00    +0.166 A 
ATOM     31  C   UNL     1      -6.351  13.661   1.936  0.00  0.00    +0.167 A 
ATOM     32  C   UNL     1      -6.607  12.346   1.599  0.00  0.00    +0.062 A 
ATOM     33  O   UNL     1      -7.169  14.651   2.399  0.00  0.00    -0.453 OA
ATOM     34  C   UNL     1      -6.290  15.649   2.952  0.00  0.00    +0.466 C 
ATOM     35  O   UNL     1      -5.068  15.478   2.209  0.00  0.00    -0.453 OA
ENDBRANCH  24  27
ENDBRANCH  22  23
BRANCH  22  37
ATOM     36  C   UNL     1      -5.925   6.420  -1.819  0.00  0.00    +0.009 C 
ATOM     37  C   UNL     1      -5.598   7.871  -1.462  0.00  0.00    +0.012 C 
ATOM     38  C   UNL     1      -6.855   8.730  -1.614  0.00  0.00    +0.009 C 
ENDBRANCH  22  37
ENDBRANCH   1  22
TORSDOF 9
