REMARK  Name = ZINC12203675
REMARK  9 active torsions:
REMARK  status: ('A' for Active; 'I' for Inactive)
REMARK    1  A    between atoms: C_1  and  C_2
REMARK    2  A    between atoms: C_2  and  C_13
REMARK    3  A    between atoms: C_4  and  C_7
REMARK    4  A    between atoms: N_15  and  C_16
REMARK    5  A    between atoms: C_16  and  C_17
REMARK    6  A    between atoms: C_17  and  C_19
REMARK    7  A    between atoms: C_17  and  N_54
REMARK    8  A    between atoms: C_28  and  N_54
REMARK    9  A    between atoms: C_29  and  N_54
REMARK                            x       y       z     vdW  Elec       q    Type
REMARK                         _______ _______ _______ _____ _____    ______ ____
ROOT
ATOM      1  C   UNL     1      -3.008   2.382  -3.139  0.00  0.00    +0.260 C 
ATOM      2  O   UNL     1      -2.281   1.816  -3.927  0.00  0.00    -0.271 OA
ATOM      3  N   UNL     1      -2.652   2.479  -1.843  0.00  0.00    -0.313 N 
ATOM      4  H   UNL     1      -3.234   2.932  -1.213  0.00  0.00    +0.149 HD
ENDROOT
BRANCH   1   6
ATOM      5  C   UNL     1      -5.470   2.007  -3.374  0.00  0.00    +0.069 C 
ATOM      6  C   UNL     1      -4.311   2.977  -3.610  0.00  0.00    +0.216 C 
ATOM      7  C   UNL     1      -4.226   3.388  -5.099  0.00  0.00    +0.119 C 
ATOM      8  C   UNL     1      -5.029   4.675  -5.132  0.00  0.00    +0.092 C 
ATOM      9  N   UNL     1      -5.179   5.090  -3.919  0.00  0.00    -0.088 NA
ATOM     10  O   UNL     1      -4.560   4.245  -2.969  0.00  0.00    -0.377 OA
BRANCH   8  11
ATOM     11  C   UNL     1      -5.549   5.339  -6.344  0.00  0.00    -0.000 A 
ATOM     12  C   UNL     1      -5.310   4.787  -7.604  0.00  0.00    +0.010 A 
ATOM     13  C   UNL     1      -5.803   5.410  -8.732  0.00  0.00    +0.001 A 
ATOM     14  C   UNL     1      -6.524   6.585  -8.617  0.00  0.00    +0.000 A 
ATOM     15  C   UNL     1      -6.760   7.141  -7.372  0.00  0.00    +0.001 A 
ATOM     16  C   UNL     1      -6.277   6.525  -6.236  0.00  0.00    +0.010 A 
ENDBRANCH   8  11
ENDBRANCH   1   6
BRANCH   3  17
ATOM     17  C   UNL     1      -1.387   1.901  -1.386  0.00  0.00    +0.093 C 
BRANCH  17  18
ATOM     18  C   UNL     1      -1.282   2.040   0.134  0.00  0.00    -0.021 C 
BRANCH  18  19
ATOM     19  C   UNL     1      -0.015   1.378   0.613  0.00  0.00    -0.056 A 
ATOM     20  C   UNL     1       0.077  -0.001   0.634  0.00  0.00    +0.006 A 
ATOM     21  C   UNL     1       1.238  -0.613   1.067  0.00  0.00    +0.050 A 
ATOM     22  C   UNL     1       2.314   0.156   1.481  0.00  0.00    +0.166 A 
ATOM     23  C   UNL     1       2.221   1.546   1.460  0.00  0.00    +0.166 A 
ATOM     24  C   UNL     1       1.054   2.152   1.025  0.00  0.00    +0.051 A 
ATOM     25  O   UNL     1       3.399   2.068   1.911  0.00  0.00    -0.453 OA
ATOM     26  C   UNL     1       4.064   0.988   2.591  0.00  0.00    +0.466 C 
ATOM     27  O   UNL     1       3.550  -0.192   1.945  0.00  0.00    -0.453 OA
ENDBRANCH  18  19
BRANCH  18  30
ATOM     28  C   UNL     1      -2.929   0.275  -0.049  0.00  0.00    -0.096 C 
ATOM     29  C   UNL     1      -2.118   0.953   2.130  0.00  0.00    -0.096 C 
ATOM     30  N   UNL     1      -2.462   1.415   0.768  0.00  0.00    +0.382 N 
ATOM     31  H   UNL     1      -3.214   2.110   0.831  0.00  0.00    -0.082 HD
ENDBRANCH  18  30
ENDBRANCH  17  18
ENDBRANCH   3  17
TORSDOF 6
