REMARK  Name = ZINC36644161
REMARK  6 active torsions:
REMARK  status: ('A' for Active; 'I' for Inactive)
REMARK    1  A    between atoms: C_1  and  C_2
REMARK    2  A    between atoms: N_7  and  C_9
REMARK    3  A    between atoms: C_9  and  C_11
REMARK    4  A    between atoms: C_9  and  C_23
REMARK    5  A    between atoms: C_16  and  N_17
REMARK    6  A    between atoms: N_25  and  C_26
REMARK                            x       y       z     vdW  Elec       q    Type
REMARK                         _______ _______ _______ _____ _____    ______ ____
ROOT
ATOM      1  C   UNL     1       1.636  -2.463   2.358  0.00  0.00    +0.176 C 
ENDROOT
BRANCH   1   2
ATOM      2  C   UNL     1       1.429  -3.911   1.995  0.00  0.00    +0.012 A 
ATOM      3  C   UNL     1       0.964  -4.247   0.737  0.00  0.00    +0.057 A 
ATOM      4  C   UNL     1       0.773  -5.577   0.401  0.00  0.00    +0.167 A 
ATOM      5  C   UNL     1       1.051  -6.574   1.334  0.00  0.00    +0.168 A 
ATOM      6  C   UNL     1       1.517  -6.230   2.592  0.00  0.00    +0.082 A 
ATOM      7  C   UNL     1       1.710  -4.900   2.918  0.00  0.00    +0.135 A 
ATOM      8  O   UNL     1       0.784  -7.787   0.768  0.00  0.00    -0.453 OA
ATOM      9  C   UNL     1      -0.045  -7.505  -0.374  0.00  0.00    +0.466 C 
ATOM     10  O   UNL     1       0.333  -6.167  -0.749  0.00  0.00    -0.453 OA
BRANCH   7  11
ATOM     11  N   UNL     1       2.214  -4.535   4.261  0.00  0.00    +0.057 N 
ATOM     12  O   UNL     1       2.573  -5.398   5.028  0.00  0.00    -0.126 OA
ATOM     13  O   UNL     1       2.266  -3.373   4.592  0.00  0.00    -0.126 OA
ENDBRANCH   7  11
ENDBRANCH   1   2
BRANCH   1  19
ATOM     14  C   UNL     1       0.097   2.113   1.416  0.00  0.00    +0.009 C 
ATOM     15  C   UNL     1      -0.070   0.634   1.062  0.00  0.00    +0.000 C 
ATOM     16  C   UNL     1      -1.524   0.214   1.295  0.00  0.00    +0.006 C 
ATOM     17  C   UNL     1      -1.670  -1.280   0.996  0.00  0.00    +0.016 C 
ATOM     18  C   UNL     1      -0.706  -2.070   1.885  0.00  0.00    +0.085 C 
ATOM     19  N   UNL     1       0.671  -1.632   1.624  0.00  0.00    -0.288 NA
ATOM     20  C   UNL     1       0.848  -0.211   1.948  0.00  0.00    +0.088 C 
ENDBRANCH   1  19
BRANCH   1  21
ATOM     21  C   UNL     1       3.037  -2.048   1.992  0.00  0.00    +0.235 C 
ATOM     22  O   UNL     1       3.267  -1.591   0.892  0.00  0.00    -0.274 OA
ATOM     23  N   UNL     1       4.036  -2.186   2.886  0.00  0.00    -0.311 N 
ATOM     24  H   UNL     1       3.844  -2.499   3.783  0.00  0.00    +0.149 HD
BRANCH  23  25
ATOM     25  C   UNL     1       5.412  -1.862   2.502  0.00  0.00    +0.073 C 
ATOM     26  C   UNL     1       6.092  -3.099   1.879  0.00  0.00    +0.022 C 
ATOM     27  C   UNL     1       7.553  -3.026   2.389  0.00  0.00    +0.002 C 
ATOM     28  C   UNL     1       7.384  -2.514   3.841  0.00  0.00    +0.002 C 
ATOM     29  C   UNL     1       6.234  -1.490   3.749  0.00  0.00    +0.022 C 
ENDBRANCH  23  25
ENDBRANCH   1  21
TORSDOF 5
