REMARK  Name = ZINC13033019
REMARK  11 active torsions:
REMARK  status: ('A' for Active; 'I' for Inactive)
REMARK    1  A    between atoms: C_1  and  C_2
REMARK    2  A    between atoms: C_7  and  C_15
REMARK    3  A    between atoms: C_13  and  C_14
REMARK    4  A    between atoms: C_15  and  N_63
REMARK    5  A    between atoms: C_16  and  C_17
REMARK    6  A    between atoms: C_16  and  N_63
REMARK    7  A    between atoms: C_17  and  C_18
REMARK    8  A    between atoms: C_24  and  C_25
REMARK    9  A    between atoms: C_24  and  N_63
REMARK   10  A    between atoms: N_29  and  C_30
REMARK   11  A    between atoms: C_30  and  C_31
REMARK                            x       y       z     vdW  Elec       q    Type
REMARK                         _______ _______ _______ _____ _____    ______ ____
ROOT
ATOM      1  N   UNL     1       0.279  -2.017   1.490  0.00  0.00    +0.387 N 
ATOM      2  H   UNL     1       1.123  -2.269   0.962  0.00  0.00    -0.081 HD
ENDROOT
BRANCH   1   3
ATOM      3  C   UNL     1      -0.898  -2.618   0.828  0.00  0.00    -0.037 C 
BRANCH   3  10
ATOM      4  C   UNL     1       0.312 -10.442  -0.143  0.00  0.00    +0.044 C 
ATOM      5  C   UNL     1      -0.026  -9.023   0.238  0.00  0.00    -0.046 A 
ATOM      6  C   UNL     1      -0.723  -8.775   1.413  0.00  0.00    +0.004 A 
ATOM      7  C   UNL     1      -1.040  -7.497   1.777  0.00  0.00    +0.010 A 
ATOM      8  C   UNL     1      -0.657  -6.428   0.959  0.00  0.00    -0.001 A 
ATOM      9  C   UNL     1      -0.975  -5.046   1.321  0.00  0.00    +0.017 A 
ATOM     10  C   UNL     1      -0.583  -4.051   0.487  0.00  0.00    +0.001 A 
ATOM     11  C   UNL     1       0.124  -4.353  -0.696  0.00  0.00    +0.251 A 
ATOM     12  O   UNL     1       0.470  -3.444  -1.430  0.00  0.00    -0.268 OA
ATOM     13  N   UNL     1       0.424  -5.620  -1.035  0.00  0.00    -0.322 N 
ATOM     14  H   UNL     1       0.911  -5.792  -1.856  0.00  0.00    +0.169 HD
ATOM     15  C   UNL     1       0.050  -6.676  -0.232  0.00  0.00    +0.052 A 
ATOM     16  C   UNL     1       0.361  -7.986  -0.583  0.00  0.00    -0.024 A 
ATOM     17  C   UNL     1       1.117  -8.270  -1.855  0.00  0.00    +0.046 C 
ENDBRANCH   3  10
ENDBRANCH   1   3
BRANCH   1  18
ATOM     18  C   UNL     1       0.149  -0.545   1.516  0.00  0.00    -0.073 C 
BRANCH  18  19
ATOM     19  C   UNL     1       0.202  -0.020   0.080  0.00  0.00    +0.016 C 
BRANCH  19  20
ATOM     20  C   UNL     1       0.201   1.487   0.095  0.00  0.00    -0.049 A 
ATOM     21  C   UNL     1      -0.987   2.179  -0.048  0.00  0.00    +0.003 A 
ATOM     22  C   UNL     1      -0.989   3.561  -0.028  0.00  0.00    +0.000 A 
ATOM     23  C   UNL     1       0.199   4.251   0.124  0.00  0.00    +0.000 A 
ATOM     24  C   UNL     1       1.388   3.560   0.262  0.00  0.00    +0.000 A 
ATOM     25  C   UNL     1       1.389   2.177   0.247  0.00  0.00    +0.003 A 
ENDBRANCH  19  20
ENDBRANCH  18  19
ENDBRANCH   1  18
BRANCH   1  26
ATOM     26  C   UNL     1       0.403  -2.537   2.869  0.00  0.00    +0.001 C 
BRANCH  26  27
ATOM     27  C   UNL     1       1.722  -2.086   3.442  0.00  0.00    +0.136 A 
ATOM     28  N   UNL     1       2.868  -2.717   3.361  0.00  0.00    -0.115 NA
ATOM     29  N   UNL     1       3.755  -2.010   3.971  0.00  0.00    -0.023 NA
ATOM     30  N   UNL     1       3.204  -0.949   4.447  0.00  0.00    -0.044 NA
ATOM     31  N   UNL     1       1.951  -0.958   4.141  0.00  0.00    -0.224 N 
BRANCH  31  32
ATOM     32  C   UNL     1       0.962   0.065   4.489  0.00  0.00    +0.221 C 
BRANCH  32  33
ATOM     33  C   UNL     1       0.334  -0.274   5.816  0.00  0.00    +0.126 A 
ATOM     34  C   UNL     1       0.782   0.117   7.022  0.00  0.00    +0.046 A 
ATOM     35  C   UNL     1      -0.104  -0.421   7.983  0.00  0.00    +0.041 A 
ATOM     36  C   UNL     1      -1.036  -1.116   7.308  0.00  0.00    +0.195 A 
ATOM     37  O   UNL     1      -0.767  -1.023   5.995  0.00  0.00    -0.466 OA
ENDBRANCH  32  33
ENDBRANCH  31  32
ENDBRANCH  26  27
ENDBRANCH   1  26
TORSDOF 9
