REMARK  Name = ZINC10042006
REMARK  12 active torsions:
REMARK  status: ('A' for Active; 'I' for Inactive)
REMARK    1  A    between atoms: C_4  and  C_7
REMARK    2  A    between atoms: C_7  and  C_9
REMARK    3  A    between atoms: C_9  and  C_11
REMARK    4  A    between atoms: C_9  and  O_20
REMARK    5  A    between atoms: C_14  and  N_17
REMARK    6  A    between atoms: O_20  and  C_21
REMARK    7  A    between atoms: C_21  and  C_23
REMARK    8  A    between atoms: C_23  and  N_24
REMARK    9  A    between atoms: C_25  and  C_27
REMARK   10  A    between atoms: C_27  and  N_28
REMARK   11  A    between atoms: N_28  and  S_29
REMARK   12  A    between atoms: S_29  and  C_32
REMARK                            x       y       z     vdW  Elec       q    Type
REMARK                         _______ _______ _______ _____ _____    ______ ____
ROOT
ATOM      1  O   UNL     1      -3.397   1.726   0.886  0.00  0.00    -0.447 OA
ENDROOT
BRANCH   1   2
ATOM      2  C   UNL     1      -4.339   1.016   1.525  0.00  0.00    +0.325 C 
ATOM      3  O   UNL     1      -4.411  -0.179   1.361  0.00  0.00    -0.249 OA
BRANCH   2   4
ATOM      4  C   UNL     1      -5.308   1.709   2.448  0.00  0.00    +0.225 C 
BRANCH   4   5
ATOM      5  N   UNL     1      -6.229   0.724   3.019  0.00  0.00    -0.304 N 
ATOM      6  C   UNL     1      -7.189   1.117   3.879  0.00  0.00    +0.229 C 
ATOM      7  O   UNL     1      -7.291   2.288   4.181  0.00  0.00    -0.274 OA
ATOM      8  H   UNL     1      -6.148  -0.212   2.778  0.00  0.00    +0.149 HD
BRANCH   6   9
ATOM      9  C   UNL     1      -8.137   0.103   4.466  0.00  0.00    +0.201 C 
BRANCH   9  10
ATOM     10  N   UNL     1      -9.079   0.777   5.363  0.00  0.00    -0.181 NA
ATOM     11  H   UNL     1      -8.898   1.680   5.667  0.00  0.00    +0.149 HD
BRANCH  10  12
ATOM     12  S   UNL     1     -10.453  -0.003   5.859  0.00  0.00    +0.059 S 
ATOM     13  O   UNL     1     -11.135   0.889   6.729  0.00  0.00    -0.153 OA
ATOM     14  O   UNL     1     -11.059  -0.540   4.691  0.00  0.00    -0.153 OA
BRANCH  12  15
ATOM     15  C   UNL     1      -9.948  -1.377   6.840  0.00  0.00    +0.105 A 
ATOM     16  C   UNL     1      -9.718  -2.603   6.246  0.00  0.00    +0.028 A 
ATOM     17  C   UNL     1      -9.317  -3.680   7.015  0.00  0.00    +0.002 A 
ATOM     18  C   UNL     1      -9.155  -3.531   8.380  0.00  0.00    +0.000 A 
ATOM     19  C   UNL     1      -9.390  -2.306   8.975  0.00  0.00    +0.002 A 
ATOM     20  C   UNL     1      -9.786  -1.228   8.205  0.00  0.00    +0.028 A 
ENDBRANCH  12  15
ENDBRANCH  10  12
ENDBRANCH   9  10
ENDBRANCH   6   9
ENDBRANCH   4   5
ENDBRANCH   2   4
ENDBRANCH   1   2
BRANCH   1  21
ATOM     21  C   UNL     1      -2.498   0.993   0.012  0.00  0.00    +0.277 C 
BRANCH  21  22
ATOM     22  C   UNL     1      -1.160   1.685  -0.027  0.00  0.00    +0.001 A 
ATOM     23  C   UNL     1       0.004   0.939  -0.027  0.00  0.00    +0.010 A 
ATOM     24  C   UNL     1       1.232   1.573  -0.069  0.00  0.00    +0.033 A 
ATOM     25  C   UNL     1       1.295   2.954  -0.104  0.00  0.00    +0.126 A 
ATOM     26  C   UNL     1       0.131   3.700  -0.099  0.00  0.00    +0.033 A 
ATOM     27  C   UNL     1      -1.096   3.065  -0.058  0.00  0.00    +0.010 A 
BRANCH  25  28
ATOM     28  N   UNL     1       2.610   3.633  -0.148  0.00  0.00    +0.056 N 
ATOM     29  O   UNL     1       3.635   2.976  -0.153  0.00  0.00    -0.126 OA
ATOM     30  O   UNL     1       2.666   4.849  -0.180  0.00  0.00    -0.126 OA
ENDBRANCH  25  28
ENDBRANCH  21  22
BRANCH  21  31
ATOM     31  C   UNL     1      -3.078   0.942  -1.377  0.00  0.00    +0.208 C 
ATOM     32  O   UNL     1      -3.916   1.752  -1.715  0.00  0.00    -0.288 OA
BRANCH  31  36
ATOM     33  C   UNL     1      -1.781  -2.032  -4.110  0.00  0.00    +0.000 A 
ATOM     34  C   UNL     1      -2.644  -1.036  -4.534  0.00  0.00    +0.001 A 
ATOM     35  C   UNL     1      -3.070  -0.066  -3.652  0.00  0.00    +0.011 A 
ATOM     36  C   UNL     1      -2.628  -0.090  -2.325  0.00  0.00    +0.022 A 
ATOM     37  C   UNL     1      -1.753  -1.097  -1.905  0.00  0.00    +0.011 A 
ATOM     38  C   UNL     1      -1.340  -2.062  -2.799  0.00  0.00    +0.001 A 
ENDBRANCH  31  36
ENDBRANCH  21  31
ENDBRANCH   1  21
TORSDOF 12
