REMARK  Name = ZINC33011472
REMARK  7 active torsions:
REMARK  status: ('A' for Active; 'I' for Inactive)
REMARK    1  A    between atoms: C_1  and  C_2
REMARK    2  A    between atoms: C_2  and  C_3
REMARK    3  A    between atoms: C_3  and  C_4
REMARK    4  A    between atoms: C_4  and  O_5
REMARK    5  A    between atoms: O_5  and  C_6
REMARK    6  A    between atoms: C_9  and  C_12
REMARK    7  A    between atoms: C_20  and  C_32
REMARK                            x       y       z     vdW  Elec       q    Type
REMARK                         _______ _______ _______ _____ _____    ______ ____
ROOT
ATOM      1  C   UNL     1      -4.810   2.275  -0.617  0.00  0.00    +0.063 C 
ATOM      2  C   UNL     1      -4.869   1.299  -1.797  0.00  0.00    +0.109 C 
ATOM      3  C   UNL     1      -3.950   0.130  -1.582  0.00  0.00    +0.219 C 
ATOM      4  O   UNL     1      -4.311  -0.974  -1.931  0.00  0.00    -0.275 OA
ATOM      5  N   UNL     1      -2.734   0.271  -1.012  0.00  0.00    -0.270 N 
ATOM      6  C   UNL     1      -2.417   1.502  -0.439  0.00  0.00    +0.134 A 
ATOM      7  C   UNL     1      -3.365   2.470  -0.235  0.00  0.00    +0.023 A 
ATOM      8  C   UNL     1      -2.742   3.562   0.351  0.00  0.00    +0.066 A 
ATOM      9  N   UNL     1      -1.472   3.276   0.511  0.00  0.00    -0.168 NA
ATOM     10  N   UNL     1      -1.241   1.981   0.019  0.00  0.00    -0.198 N 
ATOM     11  C   UNL     1      -0.016   1.307   0.009  0.00  0.00    +0.176 A 
ATOM     12  C   UNL     1       1.183   2.046   0.002  0.00  0.00    +0.054 A 
ATOM     13  C   UNL     1       2.380   1.402  -0.013  0.00  0.00    +0.054 A 
ATOM     14  C   UNL     1       2.402  -0.005  -0.021  0.00  0.00    +0.178 A 
ATOM     15  N   UNL     1       3.370  -0.907  -0.034  0.00  0.00    -0.128 NA
ATOM     16  N   UNL     1       2.853  -2.086  -0.035  0.00  0.00    -0.136 NA
ATOM     17  C   UNL     1       1.545  -2.006  -0.023  0.00  0.00    +0.249 A 
ATOM     18  N   UNL     1       1.214  -0.697  -0.013  0.00  0.00    -0.198 N 
ATOM     19  N   UNL     1       0.002  -0.004   0.002  0.00  0.00    -0.144 NA
ATOM     20  C   UNL     1      -3.412   4.854   0.743  0.00  0.00    +0.068 C 
ATOM     21  H   UNL     1      -2.026  -0.571  -1.009  0.00  0.00    +0.156 HD
ENDROOT
BRANCH   1  25
ATOM     22  C   UNL     1      -6.513   6.023  -1.763  0.00  0.00    +0.121 A 
ATOM     23  C   UNL     1      -7.046   5.316  -0.695  0.00  0.00    +0.046 A 
ATOM     24  C   UNL     1      -6.493   4.104  -0.327  0.00  0.00    +0.008 A 
ATOM     25  C   UNL     1      -5.411   3.597  -1.021  0.00  0.00    -0.039 A 
ATOM     26  C   UNL     1      -4.875   4.303  -2.083  0.00  0.00    +0.008 A 
ATOM     27  C   UNL     1      -5.427   5.512  -2.458  0.00  0.00    +0.046 A 
BRANCH  22  28
ATOM     28  O   UNL     1      -7.055   7.215  -2.128  0.00  0.00    -0.492 OA
BRANCH  28  29
ATOM     29  C   UNL     1      -6.456   7.888  -3.236  0.00  0.00    +0.229 C 
BRANCH  29  30
ATOM     30  C   UNL     1      -7.196   9.202  -3.496  0.00  0.00    +0.041 C 
BRANCH  30  32
ATOM     31  C   UNL     1      -7.294  11.236  -4.943  0.00  0.00    +0.004 C 
ATOM     32  C   UNL     1      -6.554   9.923  -4.683  0.00  0.00    -0.000 C 
ENDBRANCH  30  32
ENDBRANCH  29  30
ENDBRANCH  28  29
ENDBRANCH  22  28
ENDBRANCH   1  25
TORSDOF 5
