REMARK  Name = ZINC15227287
REMARK  8 active torsions:
REMARK  status: ('A' for Active; 'I' for Inactive)
REMARK    1  A    between atoms: C_1  and  C_2
REMARK    2  A    between atoms: C_2  and  O_3
REMARK    3  A    between atoms: O_3  and  C_4
REMARK    4  A    between atoms: C_7  and  N_10
REMARK    5  A    between atoms: C_19  and  S_20
REMARK    6  A    between atoms: S_20  and  C_21
REMARK    7  A    between atoms: C_21  and  C_23
REMARK    8  A    between atoms: C_21  and  C_24
REMARK                            x       y       z     vdW  Elec       q    Type
REMARK                         _______ _______ _______ _____ _____    ______ ____
ROOT
ATOM      1  N   UNL     1      -3.405   1.005  -2.201  0.00  0.00    -0.255 N 
ATOM      2  C   UNL     1      -4.140  -0.107  -2.382  0.00  0.00    +0.268 A 
ATOM      3  O   UNL     1      -4.613  -0.364  -3.476  0.00  0.00    -0.267 OA
ATOM      4  C   UNL     1      -4.364  -0.982  -1.272  0.00  0.00    +0.076 A 
ATOM      5  C   UNL     1      -5.128  -2.230  -1.241  0.00  0.00    -0.023 A 
ATOM      6  C   UNL     1      -5.191  -2.880  -0.061  0.00  0.00    -0.004 A 
ATOM      7  S   UNL     1      -4.253  -1.882   1.065  0.00  0.00    -0.073 S 
ATOM      8  C   UNL     1      -3.775  -0.592  -0.057  0.00  0.00    +0.117 A 
ATOM      9  N   UNL     1      -3.055   0.517   0.055  0.00  0.00    -0.215 NA
ATOM     10  C   UNL     1      -2.863   1.306  -0.983  0.00  0.00    +0.178 A 
ATOM     11  C   UNL     1      -5.904  -4.165   0.230  0.00  0.00    +0.043 C 
ATOM     12  C   UNL     1      -6.868  -4.458  -0.927  0.00  0.00    +0.005 C 
ATOM     13  C   UNL     1      -6.119  -4.273  -2.250  0.00  0.00    +0.005 C 
ATOM     14  C   UNL     1      -5.827  -2.789  -2.477  0.00  0.00    +0.037 C 
ENDROOT
BRANCH   1  18
ATOM     15  C   UNL     1      -2.755   3.575  -5.422  0.00  0.00    +0.121 A 
ATOM     16  C   UNL     1      -1.871   2.533  -5.176  0.00  0.00    +0.047 A 
ATOM     17  C   UNL     1      -2.086   1.683  -4.110  0.00  0.00    +0.030 A 
ATOM     18  C   UNL     1      -3.186   1.869  -3.284  0.00  0.00    +0.052 A 
ATOM     19  C   UNL     1      -4.072   2.908  -3.533  0.00  0.00    +0.030 A 
ATOM     20  C   UNL     1      -3.854   3.761  -4.597  0.00  0.00    +0.047 A 
BRANCH  15  21
ATOM     21  O   UNL     1      -2.543   4.412  -6.472  0.00  0.00    -0.492 OA
BRANCH  21  23
ATOM     22  C   UNL     1      -3.091   6.294  -7.885  0.00  0.00    +0.048 C 
ATOM     23  C   UNL     1      -3.492   5.462  -6.666  0.00  0.00    +0.225 C 
ENDBRANCH  21  23
ENDBRANCH  15  21
ENDBRANCH   1  18
BRANCH  10  24
ATOM     24  S   UNL     1      -1.902   2.771  -0.797  0.00  0.00    -0.075 S 
BRANCH  24  25
ATOM     25  C   UNL     1      -1.477   2.647   0.958  0.00  0.00    +0.137 C 
ATOM     26  C   UNL     1      -2.750   2.759   1.800  0.00  0.00    +0.029 C 
BRANCH  25  27
ATOM     27  C   UNL     1      -0.532   3.762   1.326  0.00  0.00    +0.233 C 
ATOM     28  O   UNL     1      -0.523   4.787   0.679  0.00  0.00    -0.274 OA
ATOM     29  N   UNL     1       0.304   3.618   2.374  0.00  0.00    -0.239 N 
ATOM     30  C   UNL     1       1.149   4.615   2.703  0.00  0.00    +0.303 C 
ATOM     31  O   UNL     1       1.158   5.643   2.054  0.00  0.00    -0.253 OA
ATOM     32  N   UNL     1       1.985   4.472   3.751  0.00  0.00    -0.313 N 
ATOM     33  H   UNL     1       0.296   2.798   2.891  0.00  0.00    +0.159 HD
ATOM     34  H   UNL     1       1.977   3.651   4.268  0.00  0.00    +0.146 HD
ATOM     35  H   UNL     1       2.593   5.189   3.987  0.00  0.00    +0.146 HD
ENDBRANCH  25  27
ENDBRANCH  24  25
ENDBRANCH  10  24
TORSDOF 6
