REMARK  Name = ZINC57934147
REMARK  11 active torsions:
REMARK  status: ('A' for Active; 'I' for Inactive)
REMARK    1  A    between atoms: C_1  and  C_2
REMARK    2  A    between atoms: C_3  and  C_35
REMARK    3  A    between atoms: C_9  and  C_12
REMARK    4  A    between atoms: C_12  and  O_14
REMARK    5  A    between atoms: O_14  and  C_15
REMARK    6  A    between atoms: C_15  and  C_16
REMARK    7  A    between atoms: N_18  and  C_19
REMARK    8  A    between atoms: N_18  and  C_20
REMARK    9  A    between atoms: C_25  and  C_26
REMARK   10  A    between atoms: N_28  and  C_29
REMARK   11  A    between atoms: C_29  and  C_30
REMARK                            x       y       z     vdW  Elec       q    Type
REMARK                         _______ _______ _______ _____ _____    ______ ____
ROOT
ATOM      1  C   UNL     1       0.124  -3.585   7.893  0.00  0.00    +0.257 C 
ATOM      2  O   UNL     1       0.133  -4.647   7.307  0.00  0.00    -0.272 OA
ATOM      3  N   UNL     1       0.136  -3.560   9.241  0.00  0.00    -0.271 N 
ATOM      4  C   UNL     1       0.126  -2.278   9.950  0.00  0.00    +0.138 C 
ENDROOT
BRANCH   3   5
ATOM      5  C   UNL     1       0.159  -4.753   9.960  0.00  0.00    +0.048 A 
ATOM      6  C   UNL     1       1.371  -5.332  10.313  0.00  0.00    +0.024 A 
ATOM      7  C   UNL     1       1.391  -6.514  11.025  0.00  0.00    +0.002 A 
ATOM      8  C   UNL     1       0.206  -7.132  11.392  0.00  0.00    +0.001 A 
ATOM      9  C   UNL     1      -1.006  -6.572  11.050  0.00  0.00    +0.015 A 
ATOM     10  C   UNL     1      -1.042  -5.373  10.335  0.00  0.00    +0.058 A 
BRANCH  10  11
ATOM     11  C   UNL     1      -2.336  -4.765   9.971  0.00  0.00    +0.246 C 
ATOM     12  O   UNL     1      -2.363  -3.723   9.344  0.00  0.00    -0.270 OA
ATOM     13  N   UNL     1      -3.488  -5.364  10.333  0.00  0.00    -0.304 N 
ATOM     14  H   UNL     1      -3.466  -6.195  10.833  0.00  0.00    +0.149 HD
BRANCH  13  15
ATOM     15  C   UNL     1      -4.773  -4.760   9.972  0.00  0.00    +0.179 C 
BRANCH  15  16
ATOM     16  C   UNL     1      -5.896  -5.620  10.492  0.00  0.00    +0.122 A 
ATOM     17  C   UNL     1      -6.484  -5.503  11.696  0.00  0.00    +0.046 A 
ATOM     18  C   UNL     1      -7.479  -6.504  11.764  0.00  0.00    +0.041 A 
ATOM     19  C   UNL     1      -7.440  -7.173  10.598  0.00  0.00    +0.195 A 
ATOM     20  O   UNL     1      -6.483  -6.630   9.829  0.00  0.00    -0.466 OA
ENDBRANCH  15  16
ENDBRANCH  13  15
ENDBRANCH  10  11
ENDBRANCH   3   5
BRANCH   1  21
ATOM     21  C   UNL     1       0.100  -2.295   7.116  0.00  0.00    +0.328 C 
BRANCH  21  22
ATOM     22  O   UNL     1       0.090  -2.582   5.716  0.00  0.00    -0.452 OA
BRANCH  22  23
ATOM     23  C   UNL     1       0.068  -1.529   4.876  0.00  0.00    +0.340 C 
ATOM     24  O   UNL     1       0.058  -0.398   5.319  0.00  0.00    -0.245 OA
BRANCH  23  33
ATOM     25  C   UNL     1      -0.018   1.503   0.010  0.00  0.00    +0.046 C 
ATOM     26  C   UNL     1       0.002  -0.004   0.002  0.00  0.00    -0.022 A 
ATOM     27  C   UNL     1       0.009  -0.797  -1.080  0.00  0.00    +0.017 A 
ATOM     28  N   UNL     1       0.028  -2.111  -0.697  0.00  0.00    -0.358 N 
ATOM     29  H   UNL     1       0.036  -2.868  -1.304  0.00  0.00    +0.166 HD
ATOM     30  C   UNL     1       0.035  -2.200   0.674  0.00  0.00    +0.047 A 
ATOM     31  C   UNL     1       0.025  -0.883   1.175  0.00  0.00    +0.004 A 
ATOM     32  C   UNL     1       0.035  -0.661   2.549  0.00  0.00    +0.025 A 
ATOM     33  C   UNL     1       0.057  -1.749   3.417  0.00  0.00    +0.060 A 
ATOM     34  C   UNL     1       0.070  -3.055   2.906  0.00  0.00    +0.017 A 
ATOM     35  C   UNL     1       0.052  -3.275   1.560  0.00  0.00    +0.027 A 
ATOM     36  C   UNL     1      -0.004  -0.313  -2.507  0.00  0.00    +0.063 C 
ENDBRANCH  23  33
ENDBRANCH  22  23
ENDBRANCH  21  22
ENDBRANCH   1  21
TORSDOF 8
