REMARK  Name = ZINC09660383
REMARK  9 active torsions:
REMARK  status: ('A' for Active; 'I' for Inactive)
REMARK    1  A    between atoms: C_1  and  C_2
REMARK    2  A    between atoms: C_2  and  C_3
REMARK    3  A    between atoms: C_3  and  C_4
REMARK    4  A    between atoms: C_13  and  N_18
REMARK    5  A    between atoms: C_15  and  C_17
REMARK    6  A    between atoms: C_19  and  C_21
REMARK    7  A    between atoms: N_26  and  C_28
REMARK    8  A    between atoms: C_31  and  C_35
REMARK    9  A    between atoms: C_32  and  C_34
REMARK                            x       y       z     vdW  Elec       q    Type
REMARK                         _______ _______ _______ _____ _____    ______ ____
ROOT
ATOM      1  N   UNL     1       6.952   5.178   0.017  0.00  0.00    -0.270 N 
ATOM      2  C   UNL     1       5.978   4.272  -0.197  0.00  0.00    +0.223 C 
ATOM      3  O   UNL     1       6.177   3.331  -0.937  0.00  0.00    -0.275 OA
ATOM      4  H   UNL     1       6.793   5.930   0.608  0.00  0.00    +0.156 HD
ENDROOT
BRANCH   1  14
ATOM      5  C   UNL     1       8.268   8.472   1.740  0.00  0.00    +0.050 A 
ATOM      6  C   UNL     1       9.386   9.250   1.803  0.00  0.00    +0.093 A 
ATOM      7  C   UNL     1      10.519   8.873   1.058  0.00  0.00    +0.253 A 
ATOM      8  O   UNL     1      11.537   9.544   1.091  0.00  0.00    -0.268 OA
ATOM      9  N   UNL     1      10.457   7.752   0.307  0.00  0.00    -0.291 N 
ATOM     10  H   UNL     1      11.225   7.473  -0.214  0.00  0.00    +0.172 HD
ATOM     11  C   UNL     1       9.314   7.017   0.285  0.00  0.00    +0.234 A 
ATOM     12  N   UNL     1       8.257   7.379   0.979  0.00  0.00    -0.217 NA
ATOM     13  N   UNL     1       9.259   5.871  -0.487  0.00  0.00    -0.185 N 
ATOM     14  C   UNL     1       8.187   5.035  -0.611  0.00  0.00    +0.132 A 
ATOM     15  C   UNL     1       8.550   4.033  -1.456  0.00  0.00    +0.068 A 
ATOM     16  C   UNL     1       9.868   4.268  -1.862  0.00  0.00    +0.062 A 
ATOM     17  N   UNL     1      10.292   5.361  -1.284  0.00  0.00    -0.167 NA
ATOM     18  C   UNL     1      10.666   3.404  -2.804  0.00  0.00    +0.067 C 
BRANCH   5  19
ATOM     19  C   UNL     1       7.040   8.853   2.527  0.00  0.00    +0.055 C 
BRANCH  19  21
ATOM     20  C   UNL     1       4.844  10.041   2.434  0.00  0.00    +0.004 C 
ATOM     21  C   UNL     1       6.090   9.654   1.635  0.00  0.00    +0.003 C 
ENDBRANCH  19  21
ENDBRANCH   5  19
ENDBRANCH   1  14
BRANCH   2  22
ATOM     22  C   UNL     1       4.642   4.427   0.482  0.00  0.00    +0.102 C 
ATOM     23  C   UNL     1       3.886   5.663  -0.059  0.00  0.00    +0.110 C 
ATOM     24  C   UNL     1       2.438   5.227  -0.096  0.00  0.00    +0.221 C 
ATOM     25  O   UNL     1       1.490   5.976  -0.196  0.00  0.00    -0.275 OA
ATOM     26  N   UNL     1       2.355   3.889   0.001  0.00  0.00    -0.271 N 
ATOM     27  C   UNL     1       3.687   3.277   0.091  0.00  0.00    +0.127 C 
BRANCH  26  28
ATOM     28  C   UNL     1       1.155   3.171   0.008  0.00  0.00    +0.037 A 
ATOM     29  C   UNL     1       1.174   1.782  -0.016  0.00  0.00    +0.024 A 
ATOM     30  C   UNL     1      -0.013   1.076  -0.009  0.00  0.00    +0.005 A 
ATOM     31  C   UNL     1      -1.220   1.750   0.017  0.00  0.00    -0.047 A 
ATOM     32  C   UNL     1      -1.243   3.132   0.046  0.00  0.00    -0.046 A 
ATOM     33  C   UNL     1      -0.059   3.844   0.039  0.00  0.00    +0.027 A 
ATOM     34  C   UNL     1      -2.560   3.863   0.080  0.00  0.00    +0.044 C 
ATOM     35  C   UNL     1      -2.513   0.977   0.020  0.00  0.00    +0.044 C 
ENDBRANCH  26  28
ENDBRANCH   2  22
TORSDOF 5
