REMARK  Name = ZINC05165141
REMARK  4 active torsions:
REMARK  status: ('A' for Active; 'I' for Inactive)
REMARK    1  A    between atoms: C_1  and  C_2
REMARK    2  A    between atoms: C_2  and  C_3
REMARK    3  A    between atoms: C_3  and  C_4
REMARK    4  A    between atoms: C_4  and  N_5
REMARK                            x       y       z     vdW  Elec       q    Type
REMARK                         _______ _______ _______ _____ _____    ______ ____
ROOT
ATOM      1  N   UNL     1      -0.500   3.613   0.025  0.00  0.00    -0.251 N 
ATOM      2  C   UNL     1       0.847   3.539   0.012  0.00  0.00    +0.275 A 
ATOM      3  O   UNL     1       1.623   4.475   0.010  0.00  0.00    -0.266 OA
ATOM      4  C   UNL     1       1.200   2.105   0.002  0.00  0.00    +0.066 A 
ATOM      5  C   UNL     1       2.409   1.420  -0.014  0.00  0.00    +0.016 A 
ATOM      6  C   UNL     1       2.427   0.036  -0.021  0.00  0.00    +0.013 A 
ATOM      7  C   UNL     1       1.235  -0.682  -0.013  0.00  0.00    +0.035 A 
ATOM      8  C   UNL     1       0.002  -0.004   0.002  0.00  0.00    +0.058 A 
ATOM      9  C   UNL     1      -0.017   1.396   0.010  0.00  0.00    +0.079 A 
ATOM     10  N   UNL     1      -1.036   2.322   0.019  0.00  0.00    -0.293 N 
ATOM     11  H   UNL     1      -1.983   2.110   0.021  0.00  0.00    +0.187 HD
ATOM     12  C   UNL     1      -1.260  -0.763   0.009  0.00  0.00    +0.197 C 
ATOM     13  O   UNL     1      -2.323  -0.175   0.023  0.00  0.00    -0.287 OA
ATOM     14  C   UNL     1      -1.233  -2.241   0.001  0.00  0.00    +0.033 A 
ATOM     15  C   UNL     1      -2.422  -2.965   0.009  0.00  0.00    +0.012 A 
ATOM     16  C   UNL     1      -2.387  -4.349  -0.000  0.00  0.00    +0.001 A 
ATOM     17  C   UNL     1      -1.177  -5.019  -0.016  0.00  0.00    +0.001 A 
ATOM     18  C   UNL     1       0.014  -4.316  -0.023  0.00  0.00    +0.012 A 
ATOM     19  C   UNL     1      -0.003  -2.923  -0.014  0.00  0.00    +0.033 A 
ATOM     20  C   UNL     1       1.263  -2.163  -0.022  0.00  0.00    +0.195 C 
ATOM     21  O   UNL     1       2.326  -2.751  -0.034  0.00  0.00    -0.287 OA
ENDROOT
BRANCH   1  22
ATOM     22  C   UNL     1      -1.279   4.853   0.039  0.00  0.00    +0.145 C 
BRANCH  22  23
ATOM     23  C   UNL     1      -1.430   5.345   1.480  0.00  0.00    +0.023 C 
BRANCH  23  25
ATOM     24  C   UNL     1      -2.394   7.133   2.935  0.00  0.00    +0.004 C 
ATOM     25  C   UNL     1      -2.244   6.641   1.494  0.00  0.00    -0.002 C 
ENDBRANCH  23  25
ENDBRANCH  22  23
ENDBRANCH   1  22
TORSDOF 3
