REMARK  Name = ZINC20818099
REMARK  7 active torsions:
REMARK  status: ('A' for Active; 'I' for Inactive)
REMARK    1  A    between atoms: C_6  and  C_7
REMARK    2  A    between atoms: N_9  and  C_10
REMARK    3  A    between atoms: C_10  and  C_11
REMARK    4  A    between atoms: C_11  and  O_13
REMARK    5  A    between atoms: O_13  and  C_14
REMARK    6  A    between atoms: C_14  and  C_15
REMARK    7  A    between atoms: N_20  and  C_21
REMARK                            x       y       z     vdW  Elec       q    Type
REMARK                         _______ _______ _______ _____ _____    ______ ____
ROOT
ATOM      1  C   UNL     1       6.065   0.933  -0.051  0.00  0.00    +0.258 C 
ATOM      2  O   UNL     1       6.112   2.145  -0.045  0.00  0.00    -0.272 OA
ATOM      3  N   UNL     1       7.205   0.215  -0.066  0.00  0.00    -0.237 N 
ATOM      4  C   UNL     1       8.397   0.843  -0.074  0.00  0.00    +0.306 C 
ATOM      5  O   UNL     1       8.444   2.057  -0.068  0.00  0.00    -0.252 OA
ATOM      6  N   UNL     1       9.537   0.124  -0.088  0.00  0.00    -0.294 N 
ATOM      7  H   UNL     1       7.162  -0.884  -0.071  0.00  0.00    +0.159 HD
ATOM      8  H   UNL     1       9.495  -0.975  -0.094  0.00  0.00    +0.151 HD
ENDROOT
BRANCH   6   9
ATOM      9  C   UNL     1      10.834   0.807  -0.097  0.00  0.00    +0.037 C 
ATOM     10  C   UNL     1      10.937   1.690  -1.343  0.00  0.00    +0.029 C 
ATOM     11  C   UNL     1      12.290   2.403  -1.352  0.00  0.00    -0.008 C 
ATOM     12  C   UNL     1      13.414   1.364  -1.368  0.00  0.00    +0.007 C 
ATOM     13  C   UNL     1      13.311   0.482  -0.122  0.00  0.00    -0.008 C 
ATOM     14  C   UNL     1      11.957  -0.231  -0.113  0.00  0.00    +0.029 C 
ATOM     15  C   UNL     1      13.438   1.351   1.130  0.00  0.00    +0.007 C 
ATOM     16  C   UNL     1      12.314   2.389   1.147  0.00  0.00    -0.008 C 
ATOM     17  C   UNL     1      12.417   3.272  -0.099  0.00  0.00    +0.007 C 
ATOM     18  C   UNL     1      10.961   1.676   1.156  0.00  0.00    +0.029 C 
ENDBRANCH   6   9
BRANCH   1  19
ATOM     19  C   UNL     1       4.731   0.231  -0.042  0.00  0.00    +0.328 C 
BRANCH  19  20
ATOM     20  O   UNL     1       3.665   1.216  -0.026  0.00  0.00    -0.454 OA
BRANCH  20  21
ATOM     21  C   UNL     1       2.406   0.752  -0.017  0.00  0.00    +0.325 C 
ATOM     22  O   UNL     1       2.201  -0.439  -0.021  0.00  0.00    -0.249 OA
BRANCH  21  23
ATOM     23  C   UNL     1       1.248   1.716  -0.001  0.00  0.00    +0.225 C 
BRANCH  23  26
ATOM     24  C   UNL     1      -1.187   1.624   0.017  0.00  0.00    +0.245 C 
ATOM     25  O   UNL     1      -1.204   2.839   0.023  0.00  0.00    -0.270 OA
ATOM     26  N   UNL     1      -0.011   0.966   0.007  0.00  0.00    -0.301 N 
ATOM     27  H   UNL     1       0.004  -0.134   0.006  0.00  0.00    +0.150 HD
BRANCH  24  33
ATOM     28  C   UNL     1      -2.442  -0.528   0.005  0.00  0.00    +0.014 A 
ATOM     29  C   UNL     1      -3.630  -1.229   0.013  0.00  0.00    +0.016 A 
ATOM     30  C   UNL     1      -4.837  -0.550   0.022  0.00  0.00    +0.018 A 
ATOM     31  C   UNL     1      -4.859   0.835   0.030  0.00  0.00    +0.016 A 
ATOM     32  C   UNL     1      -3.677   1.546   0.028  0.00  0.00    +0.014 A 
ATOM     33  C   UNL     1      -2.457   0.868   0.018  0.00  0.00    +0.037 A 
ATOM     34 BR   UNL     1      -6.461  -1.517   0.025  0.00  0.00    -0.050 Br
ENDBRANCH  24  33
ENDBRANCH  23  26
ENDBRANCH  21  23
ENDBRANCH  20  21
ENDBRANCH  19  20
ENDBRANCH   1  19
TORSDOF 7
