REMARK  Name = ZINC66432813
REMARK  7 active torsions:
REMARK  status: ('A' for Active; 'I' for Inactive)
REMARK    1  A    between atoms: C_1  and  C_2
REMARK    2  A    between atoms: C_2  and  C_3
REMARK    3  A    between atoms: C_2  and  O_4
REMARK    4  A    between atoms: O_4  and  C_5
REMARK    5  A    between atoms: C_10  and  N_11
REMARK    6  A    between atoms: C_12  and  C_14
REMARK    7  A    between atoms: C_19  and  N_20
REMARK                            x       y       z     vdW  Elec       q    Type
REMARK                         _______ _______ _______ _____ _____    ______ ____
ROOT
ATOM      1  N   UNL     1       1.972  -1.186   3.537  0.00  0.00    -0.278 N 
ATOM      2  C   UNL     1       2.670  -1.035   4.680  0.00  0.00    +0.251 C 
ATOM      3  O   UNL     1       2.119  -0.612   5.678  0.00  0.00    -0.270 OA
ATOM      4  H   UNL     1       2.428  -1.442   2.720  0.00  0.00    +0.155 HD
ENDROOT
BRANCH   1  10
ATOM      5  C   UNL     1      -0.057  -0.615   2.348  0.00  0.00    +0.142 A 
ATOM      6  C   UNL     1      -1.427  -0.412   2.343  0.00  0.00    +0.050 A 
ATOM      7  C   UNL     1      -2.153  -0.560   3.510  0.00  0.00    +0.042 A 
ATOM      8  C   UNL     1      -1.513  -0.911   4.687  0.00  0.00    +0.125 A 
ATOM      9  C   UNL     1      -0.145  -1.116   4.699  0.00  0.00    +0.065 A 
ATOM     10  C   UNL     1       0.588  -0.974   3.529  0.00  0.00    +0.079 A 
ATOM     11  F   UNL     1      -2.226  -1.055   5.825  0.00  0.00    -0.205 F 
BRANCH   5  12
ATOM     12  O   UNL     1       0.658  -0.469   1.199  0.00  0.00    -0.488 OA
BRANCH  12  14
ATOM     13  C   UNL     1      -0.115   1.524   0.072  0.00  0.00    +0.051 C 
ATOM     14  C   UNL     1      -0.051  -0.004   0.049  0.00  0.00    +0.167 C 
ATOM     15  C   UNL     1       0.673  -0.465  -1.218  0.00  0.00    +0.051 C 
ENDBRANCH  12  14
ENDBRANCH   5  12
ENDBRANCH   1  10
BRANCH   2  16
ATOM     16  C   UNL     1       4.106  -1.383   4.720  0.00  0.00    +0.070 A 
ATOM     17  C   UNL     1       4.528  -2.660   4.349  0.00  0.00    +0.053 A 
ATOM     18  C   UNL     1       5.872  -2.978   4.389  0.00  0.00    +0.124 A 
ATOM     19  C   UNL     1       6.799  -2.032   4.796  0.00  0.00    +0.040 A 
ATOM     20  C   UNL     1       6.385  -0.764   5.165  0.00  0.00    +0.036 A 
ATOM     21  C   UNL     1       5.046  -0.433   5.124  0.00  0.00    +0.138 A 
ATOM     22  F   UNL     1       6.284  -4.214   4.031  0.00  0.00    -0.205 F 
BRANCH  21  23
ATOM     23  N   UNL     1       4.607   0.926   5.513  0.00  0.00    +0.057 N 
ATOM     24  O   UNL     1       5.427   1.772   5.784  0.00  0.00    -0.126 OA
ATOM     25  O   UNL     1       3.428   1.190   5.561  0.00  0.00    -0.126 OA
ENDBRANCH  21  23
ENDBRANCH   2  16
TORSDOF 5
