REMARK  Name = ZINC09135773
REMARK  9 active torsions:
REMARK  status: ('A' for Active; 'I' for Inactive)
REMARK    1  A    between atoms: C_1  and  C_2
REMARK    2  A    between atoms: C_5  and  C_32
REMARK    3  A    between atoms: C_6  and  N_8
REMARK    4  A    between atoms: C_9  and  C_11
REMARK    5  A    between atoms: N_13  and  C_14
REMARK    6  A    between atoms: C_14  and  C_15
REMARK    7  A    between atoms: C_15  and  C_17
REMARK    8  A    between atoms: C_15  and  N_66
REMARK    9  A    between atoms: N_26  and  C_27
REMARK                            x       y       z     vdW  Elec       q    Type
REMARK                         _______ _______ _______ _____ _____    ______ ____
ROOT
ATOM      1  C   UNL     1      -4.488   1.611  -0.589  0.00  0.00    -0.020 C 
ENDROOT
BRANCH   1   2
ATOM      2  C   UNL     1      -5.951   1.804  -0.285  0.00  0.00    -0.059 A 
ATOM      3  C   UNL     1      -6.356   2.122   0.999  0.00  0.00    +0.004 A 
ATOM      4  C   UNL     1      -7.694   2.301   1.275  0.00  0.00    +0.023 A 
ATOM      5  C   UNL     1      -8.649   2.152   0.268  0.00  0.00    +0.033 A 
ATOM      6  C   UNL     1      -8.240   1.831  -1.014  0.00  0.00    -0.026 A 
ATOM      7  C   UNL     1      -6.891   1.658  -1.285  0.00  0.00    +0.007 A 
ATOM      8  C   UNL     1      -9.220   1.666  -2.149  0.00  0.00    +0.038 C 
ATOM      9  C   UNL     1     -10.636   1.516  -1.588  0.00  0.00    +0.024 C 
ATOM     10  C   UNL     1     -10.847   2.614  -0.538  0.00  0.00    +0.105 C 
ATOM     11  N   UNL     1      -9.988   2.331   0.614  0.00  0.00    -0.333 N 
ATOM     12  C   UNL     1     -10.130   3.369   1.644  0.00  0.00    +0.129 C 
ENDBRANCH   1   2
BRANCH   1  17
ATOM     13  C   UNL     1      -4.479  -0.437   0.727  0.00  0.00    -0.078 C 
ATOM     14  C   UNL     1      -3.399  -1.225   1.510  0.00  0.00    -0.020 C 
ATOM     15  C   UNL     1      -2.081  -0.738   0.865  0.00  0.00    -0.020 C 
ATOM     16  C   UNL     1      -2.425   0.619   0.223  0.00  0.00    -0.078 C 
ATOM     17  N   UNL     1      -3.833   0.870   0.530  0.00  0.00    +0.385 N 
ATOM     18  H   UNL     1      -3.907   1.427   1.390  0.00  0.00    -0.081 HD
ENDBRANCH   1  17
BRANCH   1  19
ATOM     19  C   UNL     1      -3.820   2.976  -0.765  0.00  0.00    +0.094 C 
BRANCH  19  22
ATOM     20  C   UNL     1      -3.869   4.825  -2.351  0.00  0.00    +0.299 C 
ATOM     21  O   UNL     1      -2.960   5.340  -1.734  0.00  0.00    -0.265 OA
ATOM     22  N   UNL     1      -4.371   3.641  -1.948  0.00  0.00    -0.309 N 
ATOM     23  H   UNL     1      -5.097   3.229  -2.442  0.00  0.00    +0.149 HD
BRANCH  20  25
ATOM     24  N   UNL     1      -3.932   6.690  -3.957  0.00  0.00    -0.278 N 
ATOM     25  C   UNL     1      -4.431   5.503  -3.557  0.00  0.00    +0.303 C 
ATOM     26  O   UNL     1      -5.340   4.988  -4.175  0.00  0.00    -0.265 OA
ATOM     27  H   UNL     1      -3.260   7.139  -3.421  0.00  0.00    +0.155 HD
BRANCH  24  33
ATOM     28  C   UNL     1      -6.136   6.231  -8.326  0.00  0.00    +0.044 C 
ATOM     29  C   UNL     1      -5.456   7.075  -7.279  0.00  0.00    -0.049 A 
ATOM     30  C   UNL     1      -5.278   8.430  -7.493  0.00  0.00    +0.004 A 
ATOM     31  C   UNL     1      -4.655   9.208  -6.535  0.00  0.00    +0.005 A 
ATOM     32  C   UNL     1      -4.207   8.634  -5.361  0.00  0.00    -0.029 A 
ATOM     33  C   UNL     1      -4.384   7.274  -5.143  0.00  0.00    +0.037 A 
ATOM     34  C   UNL     1      -5.006   6.494  -6.110  0.00  0.00    +0.027 A 
ATOM     35  C   UNL     1      -3.528   9.483  -4.317  0.00  0.00    +0.045 C 
ENDBRANCH  24  33
ENDBRANCH  20  25
ENDBRANCH  19  22
ENDBRANCH   1  19
TORSDOF 6
