REMARK  Name = ZINC20086860
REMARK  6 active torsions:
REMARK  status: ('A' for Active; 'I' for Inactive)
REMARK    1  A    between atoms: C_1  and  S_2
REMARK    2  A    between atoms: S_2  and  C_3
REMARK    3  A    between atoms: C_12  and  C_14
REMARK    4  A    between atoms: C_18  and  O_20
REMARK    5  A    between atoms: O_20  and  C_21
REMARK    6  A    between atoms: C_21  and  C_22
REMARK                            x       y       z     vdW  Elec       q    Type
REMARK                         _______ _______ _______ _____ _____    ______ ____
ROOT
ATOM      1  C   UNL     1       3.259  12.019  -4.877  0.00  0.00    +0.191 A 
ATOM      2  N   UNL     1       3.367  10.699  -4.842  0.00  0.00    -0.207 NA
ATOM      3  C   UNL     1       2.294   9.933  -4.670  0.00  0.00    +0.126 A 
ATOM      4  C   UNL     1       1.044  10.536  -4.526  0.00  0.00    +0.044 A 
ATOM      5  C   UNL     1       0.972  11.919  -4.569  0.00  0.00    +0.133 A 
ATOM      6  N   UNL     1       2.089  12.625  -4.743  0.00  0.00    -0.206 NA
ATOM      7  N   UNL     1      -0.242  12.591  -4.436  0.00  0.00    -0.299 N 
ATOM      8  C   UNL     1      -1.391  11.860  -4.541  0.00  0.00    +0.058 C 
ATOM      9  C   UNL     1      -1.416  10.504  -4.501  0.00  0.00    +0.069 C 
ATOM     10  C   UNL     1      -0.172   9.670  -4.326  0.00  0.00    +0.094 C 
ATOM     11  C   UNL     1      -2.741  10.063  -4.646  0.00  0.00    +0.338 C 
ATOM     12  O   UNL     1      -3.082   8.895  -4.654  0.00  0.00    -0.245 OA
ATOM     13  O   UNL     1      -3.586  11.107  -4.775  0.00  0.00    -0.455 OA
ATOM     14  C   UNL     1      -2.810  12.314  -4.720  0.00  0.00    +0.283 C 
ATOM     15  N   UNL     1       2.415   8.552  -4.635  0.00  0.00    -0.343 N 
ATOM     16  H   UNL     1      -0.254  13.675  -4.253  0.00  0.00    +0.153 HD
ATOM     17  H   UNL     1       1.522   7.925  -4.491  0.00  0.00    +0.144 HD
ATOM     18  H   UNL     1       3.404   8.084  -4.750  0.00  0.00    +0.144 HD
ENDROOT
BRANCH  10  19
ATOM     19  C   UNL     1      -0.150   9.086  -2.937  0.00  0.00    -0.032 A 
ATOM     20  C   UNL     1      -0.151   9.922  -1.836  0.00  0.00    +0.005 A 
ATOM     21  C   UNL     1      -0.131   9.389  -0.560  0.00  0.00    +0.004 A 
ATOM     22  C   UNL     1      -0.111   8.018  -0.383  0.00  0.00    +0.045 A 
ATOM     23  C   UNL     1      -0.110   7.178  -1.487  0.00  0.00    +0.121 A 
ATOM     24  C   UNL     1      -0.124   7.715  -2.766  0.00  0.00    +0.050 A 
BRANCH  23  25
ATOM     25  O   UNL     1      -0.090   5.830  -1.315  0.00  0.00    -0.487 OA
BRANCH  25  26
ATOM     26  C   UNL     1      -0.070   5.347   0.030  0.00  0.00    +0.264 C 
BRANCH  26  27
ATOM     27  C   UNL     1      -0.050   3.840   0.022  0.00  0.00    -0.010 A 
ATOM     28  C   UNL     1       1.156   3.165   0.008  0.00  0.00    +0.007 A 
ATOM     29  C   UNL     1       1.175   1.783   0.000  0.00  0.00    +0.000 A 
ATOM     30  C   UNL     1      -0.013   1.076   0.008  0.00  0.00    +0.000 A 
ATOM     31  C   UNL     1      -1.219   1.751   0.017  0.00  0.00    +0.000 A 
ATOM     32  C   UNL     1      -1.238   3.133   0.030  0.00  0.00    +0.007 A 
ENDBRANCH  26  27
ENDBRANCH  25  26
ENDBRANCH  23  25
ENDBRANCH  10  19
BRANCH   1  34
ATOM     33  C   UNL     1       5.953  11.684  -5.223  0.00  0.00    +0.093 C 
ATOM     34  S   UNL     1       4.710  12.994  -5.105  0.00  0.00    -0.089 S 
ENDBRANCH   1  34
TORSDOF 5
