REMARK  Name = ZINC03089073
REMARK  10 active torsions:
REMARK  status: ('A' for Active; 'I' for Inactive)
REMARK    1  A    between atoms: C_1  and  C_2
REMARK    2  A    between atoms: C_5  and  S_8
REMARK    3  A    between atoms: S_8  and  N_11
REMARK    4  A    between atoms: N_11  and  C_12
REMARK    5  A    between atoms: C_12  and  C_14
REMARK    6  A    between atoms: C_12  and  C_21
REMARK    7  A    between atoms: C_14  and  C_15
REMARK    8  A    between atoms: N_23  and  N_24
REMARK    9  A    between atoms: C_25  and  C_26
REMARK   10  A    between atoms: C_29  and  N_32
REMARK                            x       y       z     vdW  Elec       q    Type
REMARK                         _______ _______ _______ _____ _____    ______ ____
ROOT
ATOM      1  C   UNL     1      -3.011   4.124  -1.392  0.00  0.00    +0.168 C 
ENDROOT
BRANCH   1   2
ATOM      2  C   UNL     1      -4.382   4.749  -1.378  0.00  0.00    +0.251 C 
ATOM      3  O   UNL     1      -4.555   5.845  -1.870  0.00  0.00    -0.272 OA
ATOM      4  N   UNL     1      -5.417   4.092  -0.818  0.00  0.00    -0.206 N 
ATOM      5  H   UNL     1      -5.279   3.216  -0.424  0.00  0.00    +0.177 HD
BRANCH   4   6
ATOM      6  N   UNL     1      -6.692   4.673  -0.805  0.00  0.00    -0.188 NA
ATOM      7  C   UNL     1      -7.688   4.040  -0.267  0.00  0.00    +0.138 C 
BRANCH   7   8
ATOM      8  C   UNL     1      -9.030   4.652  -0.253  0.00  0.00    -0.005 A 
ATOM      9  C   UNL     1      -9.231   5.915  -0.814  0.00  0.00    +0.012 A 
ATOM     10  C   UNL     1     -10.490   6.479  -0.803  0.00  0.00    +0.033 A 
ATOM     11  C   UNL     1     -11.550   5.801  -0.228  0.00  0.00    +0.126 A 
ATOM     12  C   UNL     1     -11.357   4.551   0.335  0.00  0.00    +0.033 A 
ATOM     13  C   UNL     1     -10.105   3.973   0.326  0.00  0.00    +0.012 A 
BRANCH  11  14
ATOM     14  N   UNL     1     -12.897   6.415  -0.213  0.00  0.00    +0.056 N 
ATOM     15  O   UNL     1     -13.832   5.821   0.293  0.00  0.00    -0.126 OA
ATOM     16  O   UNL     1     -13.069   7.515  -0.707  0.00  0.00    -0.126 OA
ENDBRANCH  11  14
ENDBRANCH   7   8
ENDBRANCH   4   6
ENDBRANCH   1   2
BRANCH   1  17
ATOM     17  N   UNL     1      -2.068   5.031  -2.051  0.00  0.00    -0.178 NA
ATOM     18  H   UNL     1      -2.165   5.990  -1.948  0.00  0.00    +0.149 HD
BRANCH  17  19
ATOM     19  S   UNL     1      -0.836   4.417  -2.972  0.00  0.00    +0.059 S 
ATOM     20  O   UNL     1      -0.122   5.531  -3.490  0.00  0.00    -0.153 OA
ATOM     21  O   UNL     1      -0.210   3.407  -2.193  0.00  0.00    -0.153 OA
BRANCH  19  26
ATOM     22  C   UNL     1      -3.357   1.636  -7.697  0.00  0.00    +0.044 C 
ATOM     23  C   UNL     1      -2.727   2.331  -6.517  0.00  0.00    -0.050 A 
ATOM     24  C   UNL     1      -2.397   3.670  -6.599  0.00  0.00    +0.005 A 
ATOM     25  C   UNL     1      -1.819   4.308  -5.517  0.00  0.00    +0.029 A 
ATOM     26  C   UNL     1      -1.572   3.605  -4.352  0.00  0.00    +0.105 A 
ATOM     27  C   UNL     1      -1.898   2.264  -4.271  0.00  0.00    +0.029 A 
ATOM     28  C   UNL     1      -2.480   1.628  -5.352  0.00  0.00    +0.005 A 
ENDBRANCH  19  26
ENDBRANCH  17  19
ENDBRANCH   1  17
BRANCH   1  29
ATOM     29  C   UNL     1      -2.553   3.869   0.045  0.00  0.00    +0.065 C 
BRANCH  29  30
ATOM     30  C   UNL     1      -1.238   3.133   0.030  0.00  0.00    -0.045 A 
ATOM     31  C   UNL     1      -1.219   1.751   0.017  0.00  0.00    +0.004 A 
ATOM     32  C   UNL     1      -0.013   1.076   0.008  0.00  0.00    +0.000 A 
ATOM     33  C   UNL     1       1.175   1.783   0.000  0.00  0.00    +0.000 A 
ATOM     34  C   UNL     1       1.156   3.165   0.008  0.00  0.00    +0.000 A 
ATOM     35  C   UNL     1      -0.050   3.840   0.022  0.00  0.00    +0.004 A 
ENDBRANCH  29  30
ENDBRANCH   1  29
TORSDOF 9
