REMARK  Name = ZINC41255258
REMARK  11 active torsions:
REMARK  status: ('A' for Active; 'I' for Inactive)
REMARK    1  A    between atoms: C_1  and  C_2
REMARK    2  A    between atoms: C_2  and  O_3
REMARK    3  A    between atoms: O_3  and  C_4
REMARK    4  A    between atoms: C_9  and  N_12
REMARK    5  A    between atoms: C_13  and  C_15
REMARK    6  A    between atoms: C_15  and  C_16
REMARK    7  A    between atoms: C_16  and  N_17
REMARK    8  A    between atoms: C_22  and  C_24
REMARK    9  A    between atoms: C_27  and  C_30
REMARK   10  A    between atoms: C_30  and  C_31
REMARK   11  A    between atoms: C_30  and  C_32
REMARK                            x       y       z     vdW  Elec       q    Type
REMARK                         _______ _______ _______ _____ _____    ______ ____
ROOT
ATOM      1  C   UNL     1       1.929  -6.294  -8.923  0.00  0.00    +0.156 C 
ENDROOT
BRANCH   1   2
ATOM      2  N   UNL     1       1.422  -6.660 -10.248  0.00  0.00    -0.228 N 
ATOM      3  C   UNL     1       1.994  -6.120 -11.340  0.00  0.00    +0.267 A 
ATOM      4  O   UNL     1       2.922  -5.336 -11.224  0.00  0.00    -0.266 OA
ATOM      5  C   UNL     1       1.512  -6.467 -12.622  0.00  0.00    +0.074 A 
ATOM      6  C   UNL     1       0.473  -7.348 -12.696  0.00  0.00    +0.035 A 
ATOM      7  C   UNL     1      -0.058  -7.860 -11.489  0.00  0.00    +0.092 A 
ATOM      8  N   UNL     1       0.448  -7.492 -10.336  0.00  0.00    -0.168 NA
BRANCH   7   9
ATOM      9  C   UNL     1      -1.188  -8.820 -11.528  0.00  0.00    +0.002 A 
ATOM     10  C   UNL     1      -1.722  -9.222 -12.751  0.00  0.00    +0.010 A 
ATOM     11  C   UNL     1      -2.774 -10.116 -12.781  0.00  0.00    +0.004 A 
ATOM     12  C   UNL     1      -3.297 -10.612 -11.601  0.00  0.00    -0.045 A 
ATOM     13  C   UNL     1      -2.771 -10.216 -10.384  0.00  0.00    +0.004 A 
ATOM     14  C   UNL     1      -1.716  -9.328 -10.342  0.00  0.00    +0.010 A 
BRANCH  12  15
ATOM     15  C   UNL     1      -4.445 -11.588 -11.640  0.00  0.00    +0.013 C 
ATOM     16  C   UNL     1      -4.023 -12.899 -10.974  0.00  0.00    +0.012 C 
ATOM     17  C   UNL     1      -5.642 -10.997 -10.892  0.00  0.00    +0.012 C 
ENDBRANCH  12  15
ENDBRANCH   7   9
ENDBRANCH   1   2
BRANCH   1  18
ATOM     18  C   UNL     1       1.166  -5.073  -8.405  0.00  0.00    +0.119 C 
BRANCH  18  20
ATOM     19  N   UNL     1       1.161  -3.643  -6.387  0.00  0.00    -0.312 N 
ATOM     20  C   UNL     1       1.687  -4.696  -7.042  0.00  0.00    +0.215 C 
ATOM     21  O   UNL     1       2.581  -5.340  -6.535  0.00  0.00    -0.276 OA
ATOM     22  H   UNL     1       0.446  -3.127  -6.792  0.00  0.00    +0.149 HD
BRANCH  19  28
ATOM     23  C   UNL     1       0.776  -1.798  -1.335  0.00  0.00    +0.403 C 
ATOM     24  O   UNL     1       0.312  -2.549  -0.500  0.00  0.00    -0.226 OA
ATOM     25  N   UNL     1       1.395  -2.298  -2.422  0.00  0.00    -0.267 N 
ATOM     26  C   UNL     1       1.966  -1.403  -3.437  0.00  0.00    +0.113 C 
ATOM     27  C   UNL     1       1.404  -1.790  -4.809  0.00  0.00    +0.041 C 
ATOM     28  C   UNL     1       1.667  -3.276  -5.062  0.00  0.00    +0.076 C 
ATOM     29  C   UNL     1       0.956  -4.111  -3.995  0.00  0.00    +0.041 C 
ATOM     30  C   UNL     1       1.517  -3.750  -2.611  0.00  0.00    +0.113 C 
BRANCH  23  31
ATOM     31  O   UNL     1       0.671  -0.465  -1.174  0.00  0.00    -0.451 OA
BRANCH  31  33
ATOM     32  C   UNL     1      -0.019   1.526   0.010  0.00  0.00    +0.048 C 
ATOM     33  C   UNL     1       0.002  -0.004   0.002  0.00  0.00    +0.230 C 
ENDBRANCH  31  33
ENDBRANCH  23  31
ENDBRANCH  19  28
ENDBRANCH  18  20
ENDBRANCH   1  18
TORSDOF 8
