REMARK  Name = ZINC12250130
REMARK  12 active torsions:
REMARK  status: ('A' for Active; 'I' for Inactive)
REMARK    1  A    between atoms: C_1  and  C_2
REMARK    2  A    between atoms: C_4  and  C_38
REMARK    3  A    between atoms: C_5  and  N_9
REMARK    4  A    between atoms: C_6  and  C_8
REMARK    5  A    between atoms: C_10  and  C_12
REMARK    6  A    between atoms: C_13  and  C_37
REMARK    7  A    between atoms: C_15  and  S_26
REMARK    8  A    between atoms: C_16  and  C_24
REMARK    9  A    between atoms: C_17  and  C_19
REMARK   10  A    between atoms: S_26  and  C_27
REMARK   11  A    between atoms: C_27  and  C_28
REMARK   12  A    between atoms: N_30  and  C_31
REMARK                            x       y       z     vdW  Elec       q    Type
REMARK                         _______ _______ _______ _____ _____    ______ ____
ROOT
ATOM      1  C   UNL     1       0.894   4.087   0.228  0.00  0.00    +0.047 C 
ATOM      2  C   UNL     1       0.116   4.620   1.183  0.00  0.00    +0.015 C 
ATOM      3  N   UNL     1      -0.840   3.871   1.813  0.00  0.00    -0.312 N 
ATOM      4  C   UNL     1      -1.276   2.692   1.250  0.00  0.00    +0.080 C 
ATOM      5  C   UNL     1      -0.540   2.073   0.289  0.00  0.00    +0.072 C 
ATOM      6  C   UNL     1       0.763   2.650  -0.188  0.00  0.00    +0.134 C 
ATOM      7  C   UNL     1       0.297   6.066   1.567  0.00  0.00    +0.061 C 
ATOM      8  H   UNL     1      -1.262   4.209   2.771  0.00  0.00    +0.152 HD
ENDROOT
BRANCH   6   9
ATOM      9  C   UNL     1       1.901   1.858   0.401  0.00  0.00    +0.118 A 
ATOM     10  C   UNL     1       2.833   1.183  -0.295  0.00  0.00    +0.045 A 
ATOM     11  C   UNL     1       3.703   0.592   0.650  0.00  0.00    +0.041 A 
ATOM     12  C   UNL     1       3.246   0.935   1.868  0.00  0.00    +0.195 A 
ATOM     13  O   UNL     1       2.154   1.702   1.711  0.00  0.00    -0.467 OA
ENDBRANCH   6   9
BRANCH   1  15
ATOM     14  N   UNL     1       3.085   5.048   0.150  0.00  0.00    -0.281 N 
ATOM     15  C   UNL     1       1.865   4.901  -0.404  0.00  0.00    +0.247 C 
ATOM     16  O   UNL     1       1.597   5.469  -1.447  0.00  0.00    -0.270 OA
ATOM     17  H   UNL     1       3.346   4.490   1.061  0.00  0.00    +0.155 HD
BRANCH  14  22
ATOM     18  C   UNL     1       6.873   8.540  -2.223  0.00  0.00    +0.044 C 
ATOM     19  C   UNL     1       5.867   7.612  -1.593  0.00  0.00    -0.050 A 
ATOM     20  C   UNL     1       5.383   7.878  -0.325  0.00  0.00    +0.008 A 
ATOM     21  C   UNL     1       4.460   7.030   0.256  0.00  0.00    -0.029 A 
ATOM     22  C   UNL     1       4.019   5.908  -0.435  0.00  0.00    +0.040 A 
ATOM     23  C   UNL     1       4.512   5.641  -1.706  0.00  0.00    -0.029 A 
ATOM     24  C   UNL     1       5.430   6.496  -2.283  0.00  0.00    +0.008 A 
ATOM     25  C   UNL     1       4.041   4.422  -2.456  0.00  0.00    +0.045 C 
ATOM     26  C   UNL     1       3.933   7.321   1.637  0.00  0.00    +0.045 C 
ENDBRANCH  14  22
ENDBRANCH   1  15
BRANCH   5  27
ATOM     27  C   UNL     1      -1.018   0.850  -0.283  0.00  0.00    +0.098 C 
ATOM     28  N   UNL     1      -1.397  -0.119  -0.738  0.00  0.00    -0.191 NA
ENDBRANCH   5  27
BRANCH   4  29
ATOM     29  S   UNL     1      -2.797   1.979   1.782  0.00  0.00    -0.100 S 
BRANCH  29  30
ATOM     30  C   UNL     1      -3.301   3.199   3.020  0.00  0.00    +0.171 C 
BRANCH  30  31
ATOM     31  C   UNL     1      -4.616   2.785   3.628  0.00  0.00    +0.227 C 
ATOM     32  O   UNL     1      -5.159   1.764   3.261  0.00  0.00    -0.275 OA
ATOM     33  N   UNL     1      -5.188   3.548   4.580  0.00  0.00    -0.285 N 
ATOM     34  H   UNL     1      -4.740   4.514   4.854  0.00  0.00    +0.155 HD
BRANCH  33  35
ATOM     35  C   UNL     1      -6.352   3.110   5.222  0.00  0.00    +0.033 A 
ATOM     36  C   UNL     1      -7.305   4.030   5.639  0.00  0.00    +0.023 A 
ATOM     37  C   UNL     1      -8.456   3.595   6.266  0.00  0.00    +0.002 A 
ATOM     38  C   UNL     1      -8.654   2.245   6.490  0.00  0.00    +0.000 A 
ATOM     39  C   UNL     1      -7.705   1.326   6.080  0.00  0.00    +0.002 A 
ATOM     40  C   UNL     1      -6.555   1.755   5.447  0.00  0.00    +0.023 A 
ENDBRANCH  33  35
ENDBRANCH  30  31
ENDBRANCH  29  30
ENDBRANCH   4  29
TORSDOF 8
