REMARK  Name = ZINC22239463
REMARK  13 active torsions:
REMARK  status: ('A' for Active; 'I' for Inactive)
REMARK    1  A    between atoms: C_1  and  C_2
REMARK    2  A    between atoms: C_2  and  O_3
REMARK    3  A    between atoms: O_3  and  C_4
REMARK    4  A    between atoms: C_4  and  C_6
REMARK    5  A    between atoms: C_7  and  C_17
REMARK    6  A    between atoms: C_8  and  C_12
REMARK    7  A    between atoms: C_10  and  N_11
REMARK    8  A    between atoms: C_12  and  O_14
REMARK    9  A    between atoms: O_14  and  C_15
REMARK   10  A    between atoms: C_15  and  C_16
REMARK   11  A    between atoms: C_17  and  S_18
REMARK   12  A    between atoms: S_18  and  C_19
REMARK   13  A    between atoms: N_23  and  C_24
REMARK                            x       y       z     vdW  Elec       q    Type
REMARK                         _______ _______ _______ _____ _____    ______ ____
ROOT
ATOM      1  C   UNL     1      -1.430   1.935   0.130  0.00  0.00    +0.092 A 
ATOM      2  C   UNL     1      -0.089   2.279   0.051  0.00  0.00    -0.000 A 
ATOM      3  C   UNL     1       0.825   1.263  -0.022  0.00  0.00    +0.103 A 
ATOM      4  S   UNL     1      -0.201  -0.194   0.021  0.00  0.00    -0.066 S 
ATOM      5  C   UNL     1      -1.753   0.572   0.131  0.00  0.00    +0.078 A 
ENDROOT
BRANCH   5   6
ATOM      6  N   UNL     1      -2.994  -0.015   0.200  0.00  0.00    -0.352 N 
ATOM      7  H   UNL     1      -3.086  -1.111   0.190  0.00  0.00    +0.143 HD
ATOM      8  H   UNL     1      -3.896   0.612   0.266  0.00  0.00    +0.143 HD
ENDBRANCH   5   6
BRANCH   1   9
ATOM      9  C   UNL     1      -2.474   2.962   0.205  0.00  0.00    +0.342 C 
ATOM     10  O   UNL     1      -2.845   3.374   1.288  0.00  0.00    -0.245 OA
BRANCH   9  11
ATOM     11  O   UNL     1      -3.022   3.450  -0.926  0.00  0.00    -0.461 OA
BRANCH  11  13
ATOM     12  C   UNL     1      -4.550   4.892  -2.157  0.00  0.00    +0.048 C 
ATOM     13  C   UNL     1      -4.050   4.464  -0.776  0.00  0.00    +0.229 C 
ENDBRANCH  11  13
ENDBRANCH   9  11
ENDBRANCH   1   9
BRANCH   3  14
ATOM     14  C   UNL     1       2.281   1.351  -0.113  0.00  0.00    +0.346 C 
ATOM     15  O   UNL     1       2.825   2.439  -0.132  0.00  0.00    -0.244 OA
BRANCH  14  16
ATOM     16  O   UNL     1       3.022   0.225  -0.175  0.00  0.00    -0.461 OA
BRANCH  16  17
ATOM     17  C   UNL     1       4.440   0.385  -0.262  0.00  0.00    +0.229 C 
ATOM     18  C   UNL     1       5.106  -0.991  -0.323  0.00  0.00    +0.048 C 
ENDBRANCH  16  17
ENDBRANCH  14  16
ENDBRANCH   3  14
BRANCH   2  19
ATOM     19  C   UNL     1       0.346   3.722   0.044  0.00  0.00    +0.114 C 
BRANCH  19  20
ATOM     20  S   UNL     1       0.629   4.277   1.748  0.00  0.00    -0.081 S 
BRANCH  20  21
ATOM     21  C   UNL     1       1.125   5.958   1.572  0.00  0.00    +0.193 A 
ATOM     22  N   UNL     1       1.252   6.610   0.442  0.00  0.00    -0.121 NA
ATOM     23  N   UNL     1       1.662   7.916   0.740  0.00  0.00    -0.112 NA
ATOM     24  C   UNL     1       1.780   8.017   2.041  0.00  0.00    +0.221 A 
ATOM     25  N   UNL     1       1.451   6.810   2.590  0.00  0.00    -0.287 N 
ATOM     26  N   UNL     1       2.170   9.152   2.739  0.00  0.00    -0.300 N 
ATOM     27  C   UNL     1       3.437   8.913   3.478  0.00  0.00    +0.108 C 
ATOM     28  C   UNL     1       3.975  10.344   3.731  0.00  0.00    +0.020 C 
ATOM     29  C   UNL     1       3.601  11.089   2.429  0.00  0.00    +0.020 C 
ATOM     30  C   UNL     1       2.448  10.274   1.816  0.00  0.00    +0.108 C 
BRANCH  25  31
ATOM     31  C   UNL     1       1.449   6.486   4.018  0.00  0.00    +0.093 C 
ATOM     32  C   UNL     1       1.470   5.006   4.407  0.00  0.00    +0.027 C 
ATOM     33  C   UNL     1       0.193   5.829   4.592  0.00  0.00    +0.027 C 
ENDBRANCH  25  31
ENDBRANCH  20  21
ENDBRANCH  19  20
ENDBRANCH   2  19
TORSDOF 11
