REMARK  Name = ZINC36602764
REMARK  11 active torsions:
REMARK  status: ('A' for Active; 'I' for Inactive)
REMARK    1  A    between atoms: C_1  and  C_2
REMARK    2  A    between atoms: C_5  and  C_7
REMARK    3  A    between atoms: C_7  and  N_8
REMARK    4  A    between atoms: N_8  and  C_9
REMARK    5  A    between atoms: C_9  and  C_11
REMARK    6  A    between atoms: C_9  and  C_20
REMARK    7  A    between atoms: C_12  and  O_19
REMARK    8  A    between atoms: C_14  and  O_18
REMARK    9  A    between atoms: C_16  and  O_17
REMARK   10  A    between atoms: N_22  and  C_23
REMARK   11  A    between atoms: C_29  and  C_31
REMARK                            x       y       z     vdW  Elec       q    Type
REMARK                         _______ _______ _______ _____ _____    ______ ____
ROOT
ATOM      1  C   UNL     1       1.945  -2.690  -2.764  0.00  0.00    +0.200 C 
ENDROOT
BRANCH   1   2
ATOM      2  C   UNL     1       3.301  -2.461  -2.147  0.00  0.00    +0.065 A 
ATOM      3  C   UNL     1       4.416  -2.314  -2.959  0.00  0.00    +0.129 A 
ATOM      4  C   UNL     1       5.663  -2.103  -2.391  0.00  0.00    +0.091 A 
ATOM      5  C   UNL     1       5.796  -2.039  -1.012  0.00  0.00    +0.124 A 
ATOM      6  C   UNL     1       4.681  -2.185  -0.201  0.00  0.00    +0.091 A 
ATOM      7  C   UNL     1       3.432  -2.392  -0.769  0.00  0.00    +0.129 A 
BRANCH   7   8
ATOM      8  O   UNL     1       2.339  -2.530   0.026  0.00  0.00    -0.506 OA
ATOM      9  H   UNL     1       2.156  -3.443   0.287  0.00  0.00    +0.292 HD
ENDBRANCH   7   8
BRANCH   5  10
ATOM     10  O   UNL     1       7.019  -1.834  -0.456  0.00  0.00    -0.507 OA
ATOM     11  H   UNL     1       7.238  -0.901  -0.323  0.00  0.00    +0.292 HD
ENDBRANCH   5  10
BRANCH   3  12
ATOM     12  O   UNL     1       4.286  -2.377  -4.310  0.00  0.00    -0.506 OA
ATOM     13  H   UNL     1       4.144  -1.518  -4.732  0.00  0.00    +0.292 HD
ENDBRANCH   3  12
ENDBRANCH   1   2
BRANCH   1  14
ATOM     14  C   UNL     1       1.615  -1.548  -3.691  0.00  0.00    +0.239 C 
ATOM     15  O   UNL     1       1.125  -0.531  -3.249  0.00  0.00    -0.273 OA
ATOM     16  N   UNL     1       1.866  -1.658  -5.011  0.00  0.00    -0.311 N 
ATOM     17  H   UNL     1       2.258  -2.471  -5.364  0.00  0.00    +0.149 HD
BRANCH  16  18
ATOM     18  C   UNL     1       1.545  -0.548  -5.912  0.00  0.00    +0.073 C 
ATOM     19  C   UNL     1       0.077  -0.639  -6.332  0.00  0.00    +0.022 C 
ATOM     20  C   UNL     1      -0.258   0.520  -7.273  0.00  0.00    +0.002 C 
ATOM     21  C   UNL     1       0.634   0.443  -8.514  0.00  0.00    +0.000 C 
ATOM     22  C   UNL     1       2.102   0.534  -8.094  0.00  0.00    +0.002 C 
ATOM     23  C   UNL     1       2.437  -0.625  -7.153  0.00  0.00    +0.022 C 
ENDBRANCH  16  18
ENDBRANCH   1  14
BRANCH   1  24
ATOM     24  N   UNL     1       0.934  -2.768  -1.707  0.00  0.00    -0.274 N 
ATOM     25  C   UNL     1       0.360  -3.950  -1.409  0.00  0.00    +0.248 C 
ATOM     26  O   UNL     1      -0.461  -4.019  -0.515  0.00  0.00    -0.270 OA
BRANCH  25  27
ATOM     27  C   UNL     1       0.729  -5.163  -2.168  0.00  0.00    +0.037 A 
ATOM     28  C   UNL     1       2.059  -5.382  -2.535  0.00  0.00    +0.016 A 
ATOM     29  C   UNL     1       2.398  -6.514  -3.244  0.00  0.00    +0.039 A 
ATOM     30  C   UNL     1       1.421  -7.435  -3.592  0.00  0.00    +0.123 A 
ATOM     31  C   UNL     1       0.100  -7.223  -3.229  0.00  0.00    +0.039 A 
ATOM     32  C   UNL     1      -0.249  -6.096  -2.516  0.00  0.00    +0.016 A 
ATOM     33  F   UNL     1       1.759  -8.543  -4.287  0.00  0.00    -0.205 F 
ENDBRANCH  25  27
BRANCH  24  34
ATOM     34  C   UNL     1       0.547  -1.560  -0.973  0.00  0.00    +0.183 C 
BRANCH  34  39
ATOM     35  C   UNL     1      -3.433   0.611  -3.184  0.00  0.00    +0.086 C 
ATOM     36  C   UNL     1      -2.609  -0.259  -2.270  0.00  0.00    +0.102 A 
ATOM     37  C   UNL     1      -3.091  -1.102  -1.340  0.00  0.00    +0.045 A 
ATOM     38  C   UNL     1      -1.976  -1.710  -0.720  0.00  0.00    +0.046 A 
ATOM     39  C   UNL     1      -0.878  -1.204  -1.309  0.00  0.00    +0.122 A 
ATOM     40  O   UNL     1      -1.268  -0.329  -2.252  0.00  0.00    -0.463 OA
ENDBRANCH  34  39
ENDBRANCH  24  34
ENDBRANCH   1  24
TORSDOF 10
