REMARK  Name = ZINC26971888
REMARK  7 active torsions:
REMARK  status: ('A' for Active; 'I' for Inactive)
REMARK    1  A    between atoms: C_1  and  C_2
REMARK    2  A    between atoms: C_6  and  C_8
REMARK    3  A    between atoms: N_14  and  C_15
REMARK    4  A    between atoms: C_15  and  C_16
REMARK    5  A    between atoms: C_16  and  C_17
REMARK    6  A    between atoms: N_19  and  N_20
REMARK    7  A    between atoms: C_21  and  C_23
REMARK                            x       y       z     vdW  Elec       q    Type
REMARK                         _______ _______ _______ _____ _____    ______ ____
ROOT
ATOM      1  C   UNL     1       1.252  -5.695   1.115  0.00  0.00    +0.119 C 
ENDROOT
BRANCH   1   2
ATOM      2  C   UNL     1       1.149  -6.587  -0.096  0.00  0.00    +0.231 C 
ATOM      3  O   UNL     1       0.070  -6.789  -0.611  0.00  0.00    -0.274 OA
ATOM      4  N   UNL     1       2.257  -7.160  -0.606  0.00  0.00    -0.234 N 
ATOM      5  H   UNL     1       3.120  -6.999  -0.194  0.00  0.00    +0.173 HD
BRANCH   4   6
ATOM      6  N   UNL     1       2.162  -7.989  -1.732  0.00  0.00    -0.230 N 
ATOM      7  C   UNL     1       3.270  -8.563  -2.242  0.00  0.00    +0.263 C 
ATOM      8  O   UNL     1       4.351  -8.361  -1.726  0.00  0.00    -0.269 OA
ATOM      9  H   UNL     1       1.298  -8.150  -2.144  0.00  0.00    +0.173 HD
BRANCH   7  10
ATOM     10  C   UNL     1       3.169  -9.437  -3.428  0.00  0.00    +0.073 A 
ATOM     11  C   UNL     1       1.929  -9.666  -4.028  0.00  0.00    +0.016 A 
ATOM     12  C   UNL     1       1.842 -10.483  -5.135  0.00  0.00    +0.001 A 
ATOM     13  C   UNL     1       2.980 -11.076  -5.654  0.00  0.00    +0.003 A 
ATOM     14  C   UNL     1       4.212 -10.855  -5.068  0.00  0.00    +0.039 A 
ATOM     15  C   UNL     1       4.316 -10.033  -3.961  0.00  0.00    +0.136 A 
ATOM     16  F   UNL     1       5.521  -9.812  -3.391  0.00  0.00    -0.205 F 
ENDBRANCH   7  10
ENDBRANCH   4   6
ENDBRANCH   1   2
BRANCH   1  17
ATOM     17  C   UNL     1      -0.140  -5.178   1.486  0.00  0.00    +0.135 C 
BRANCH  17  24
ATOM     18  C   UNL     1       0.043  -2.839   2.447  0.00  0.00    +0.163 A 
ATOM     19  N   UNL     1       0.133  -2.310   3.635  0.00  0.00    -0.153 NA
ATOM     20  N   UNL     1       0.130  -3.350   4.574  0.00  0.00    -0.254 N 
ATOM     21  H   UNL     1       0.186  -3.252   5.538  0.00  0.00    +0.191 HD
ATOM     22  C   UNL     1       0.035  -4.511   3.895  0.00  0.00    +0.176 A 
ATOM     23  S   UNL     1      -0.009  -6.081   4.577  0.00  0.00    -0.011 S 
ATOM     24  N   UNL     1      -0.025  -4.212   2.582  0.00  0.00    -0.303 N 
BRANCH  18  30
ATOM     25  C   UNL     1      -0.797   1.390  -0.066  0.00  0.00    +0.044 C 
ATOM     26  C   UNL     1      -0.391  -0.061  -0.045  0.00  0.00    -0.050 A 
ATOM     27  C   UNL     1      -0.047  -0.700  -1.223  0.00  0.00    +0.003 A 
ATOM     28  C   UNL     1       0.326  -2.032  -1.211  0.00  0.00    +0.001 A 
ATOM     29  C   UNL     1       0.357  -2.732  -0.023  0.00  0.00    +0.011 A 
ATOM     30  C   UNL     1       0.012  -2.094   1.169  0.00  0.00    +0.019 A 
ATOM     31  C   UNL     1      -0.359  -0.749   1.151  0.00  0.00    +0.015 A 
ENDBRANCH  18  30
ENDBRANCH  17  24
ENDBRANCH   1  17
TORSDOF 6
