REMARK  Name = ZINC45890367
REMARK  7 active torsions:
REMARK  status: ('A' for Active; 'I' for Inactive)
REMARK    1  A    between atoms: C_1  and  C_2
REMARK    2  A    between atoms: C_7  and  O_8
REMARK    3  A    between atoms: O_8  and  C_9
REMARK    4  A    between atoms: C_9  and  C_10
REMARK    5  A    between atoms: N_12  and  C_13
REMARK    6  A    between atoms: C_14  and  C_24
REMARK    7  A    between atoms: C_18  and  C_19
REMARK                            x       y       z     vdW  Elec       q    Type
REMARK                         _______ _______ _______ _____ _____    ______ ____
ROOT
ATOM      1  C   UNL     1      -1.534   1.036   4.174  0.00  0.00    +0.255 C 
ATOM      2  O   UNL     1      -0.808   1.997   4.030  0.00  0.00    -0.272 OA
ATOM      3  N   UNL     1      -2.197   0.861   5.334  0.00  0.00    -0.282 N 
ATOM      4  H   UNL     1      -2.832   0.133   5.425  0.00  0.00    +0.155 HD
ENDROOT
BRANCH   3   5
ATOM      5  C   UNL     1      -1.970   1.730   6.410  0.00  0.00    +0.041 A 
ATOM      6  C   UNL     1      -3.034   2.386   7.023  0.00  0.00    -0.027 A 
ATOM      7  C   UNL     1      -2.840   3.234   8.068  0.00  0.00    +0.034 A 
ATOM      8  C   UNL     1      -1.543   3.481   8.573  0.00  0.00    +0.081 A 
ATOM      9  C   UNL     1      -0.482   2.802   7.933  0.00  0.00    +0.045 A 
ATOM     10  C   UNL     1      -0.681   1.943   6.881  0.00  0.00    -0.013 A 
ATOM     11  C   UNL     1       0.489   1.241   6.241  0.00  0.00    +0.047 C 
ATOM     12  S   UNL     1       0.935   3.369   8.841  0.00  0.00    -0.052 S 
ATOM     13  C   UNL     1       0.062   4.437   9.977  0.00  0.00    +0.157 A 
ATOM     14  N   UNL     1      -1.187   4.289   9.598  0.00  0.00    -0.225 NA
ATOM     15  N   UNL     1       0.570   5.219  10.995  0.00  0.00    -0.337 N 
ATOM     16  C   UNL     1      -4.434   2.151   6.516  0.00  0.00    +0.046 C 
ATOM     17  H   UNL     1       1.525   5.232  11.166  0.00  0.00    +0.144 HD
ATOM     18  H   UNL     1      -0.028   5.755  11.540  0.00  0.00    +0.144 HD
ENDBRANCH   3   5
BRANCH   1  19
ATOM     19  C   UNL     1      -1.694   0.038   3.057  0.00  0.00    +0.325 C 
BRANCH  19  20
ATOM     20  O   UNL     1      -0.896   0.440   1.941  0.00  0.00    -0.481 OA
BRANCH  20  27
ATOM     21  C   UNL     1      -2.854   0.997  -0.016  0.00  0.00    +0.047 C 
ATOM     22  C   UNL     1      -1.866  -0.132  -0.154  0.00  0.00    -0.007 A 
ATOM     23  C   UNL     1      -1.892  -0.940  -1.275  0.00  0.00    +0.022 A 
ATOM     24  C   UNL     1      -0.985  -1.977  -1.402  0.00  0.00    +0.019 A 
ATOM     25  C   UNL     1      -0.051  -2.207  -0.409  0.00  0.00    +0.034 A 
ATOM     26  C   UNL     1      -0.021  -1.402   0.714  0.00  0.00    +0.061 A 
ATOM     27  C   UNL     1      -0.927  -0.357   0.841  0.00  0.00    +0.138 A 
ATOM     28 BR   UNL     1       1.256  -1.718   2.072  0.00  0.00    -0.046 Br
ATOM     29 BR   UNL     1      -1.024  -3.081  -2.937  0.00  0.00    -0.050 Br
ENDBRANCH  20  27
ENDBRANCH  19  20
ENDBRANCH   1  19
TORSDOF 4
