REMARK  Name = ZINC15676188
REMARK  6 active torsions:
REMARK  status: ('A' for Active; 'I' for Inactive)
REMARK    1  A    between atoms: C_1  and  C_2
REMARK    2  A    between atoms: C_2  and  N_3
REMARK    3  A    between atoms: C_15  and  C_17
REMARK    4  A    between atoms: N_19  and  C_20
REMARK    5  A    between atoms: C_20  and  C_21
REMARK    6  A    between atoms: C_24  and  C_27
REMARK                            x       y       z     vdW  Elec       q    Type
REMARK                         _______ _______ _______ _____ _____    ______ ____
ROOT
ATOM      1  N   UNL     1      -1.373  -0.511   0.011  0.00  0.00    -0.299 N 
ATOM      2  C   UNL     1      -1.601  -1.839   0.007  0.00  0.00    +0.303 C 
ATOM      3  O   UNL     1      -0.670  -2.616  -0.096  0.00  0.00    -0.253 OA
ATOM      4  N   UNL     1      -2.860  -2.307   0.119  0.00  0.00    -0.268 N 
ATOM      5  C   UNL     1      -4.009  -1.385   0.131  0.00  0.00    +0.165 C 
ATOM      6  C   UNL     1      -4.938  -1.840   1.232  0.00  0.00    +0.054 A 
ATOM      7  C   UNL     1      -4.816  -3.021   1.875  0.00  0.00    +0.040 A 
ATOM      8  N   UNL     1      -5.824  -3.081   2.788  0.00  0.00    -0.349 N 
ATOM      9  H   UNL     1      -6.003  -3.810   3.403  0.00  0.00    +0.166 HD
ATOM     10  C   UNL     1      -6.530  -1.932   2.677  0.00  0.00    +0.171 A 
ATOM     11  N   UNL     1      -5.990  -1.196   1.741  0.00  0.00    -0.348 N 
ATOM     12  C   UNL     1      -3.744  -4.043   1.602  0.00  0.00    +0.087 C 
ATOM     13  C   UNL     1      -3.120  -3.751   0.225  0.00  0.00    +0.169 C 
ATOM     14  H   UNL     1      -2.118   0.109   0.019  0.00  0.00    +0.150 HD
ATOM     15  H   UNL     1      -6.303  -0.321   1.463  0.00  0.00    +0.166 HD
ENDROOT
BRANCH  13  16
ATOM     16  C   UNL     1      -4.073  -4.172  -0.863  0.00  0.00    +0.234 C 
ATOM     17  O   UNL     1      -4.495  -3.352  -1.651  0.00  0.00    -0.274 OA
ATOM     18  N   UNL     1      -4.457  -5.460  -0.961  0.00  0.00    -0.310 N 
ATOM     19  H   UNL     1      -4.120  -6.116  -0.331  0.00  0.00    +0.149 HD
BRANCH  18  20
ATOM     20  C   UNL     1      -5.384  -5.870  -2.020  0.00  0.00    +0.139 C 
BRANCH  20  21
ATOM     21  C   UNL     1      -5.650  -7.349  -1.909  0.00  0.00    -0.030 A 
ATOM     22  C   UNL     1      -4.842  -8.249  -2.580  0.00  0.00    +0.006 A 
ATOM     23  C   UNL     1      -5.086  -9.606  -2.478  0.00  0.00    +0.013 A 
ATOM     24  C   UNL     1      -6.137 -10.063  -1.706  0.00  0.00    +0.055 A 
ATOM     25  C   UNL     1      -6.944  -9.164  -1.035  0.00  0.00    +0.013 A 
ATOM     26  C   UNL     1      -6.698  -7.807  -1.133  0.00  0.00    +0.006 A 
BRANCH  24  27
ATOM     27  C   UNL     1      -6.404 -11.543  -1.597  0.00  0.00    +0.417 C 
ATOM     28  F   UNL     1      -5.688 -12.066  -0.515  0.00  0.00    -0.166 F 
ATOM     29  F   UNL     1      -7.772 -11.756  -1.398  0.00  0.00    -0.166 F 
ATOM     30  F   UNL     1      -5.999 -12.178  -2.776  0.00  0.00    -0.166 F 
ENDBRANCH  24  27
ENDBRANCH  20  21
ENDBRANCH  18  20
ENDBRANCH  13  16
BRANCH   1  32
ATOM     31  C   UNL     1      -0.019   1.526   0.009  0.00  0.00    +0.024 C 
ATOM     32  C   UNL     1       0.002  -0.004   0.003  0.00  0.00    +0.102 C 
ENDBRANCH   1  32
TORSDOF 5
