REMARK  Name = ZINC02896521
REMARK  13 active torsions:
REMARK  status: ('A' for Active; 'I' for Inactive)
REMARK    1  A    between atoms: C_1  and  C_2
REMARK    2  A    between atoms: C_2  and  O_3
REMARK    3  A    between atoms: O_3  and  C_4
REMARK    4  A    between atoms: C_4  and  C_6
REMARK    5  A    between atoms: C_7  and  C_30
REMARK    6  A    between atoms: C_8  and  C_25
REMARK    7  A    between atoms: C_10  and  N_11
REMARK    8  A    between atoms: C_12  and  C_14
REMARK    9  A    between atoms: C_18  and  N_22
REMARK   10  A    between atoms: C_19  and  C_20
REMARK   11  A    between atoms: C_25  and  O_27
REMARK   12  A    between atoms: O_27  and  C_28
REMARK   13  A    between atoms: C_28  and  C_29
REMARK                            x       y       z     vdW  Elec       q    Type
REMARK                         _______ _______ _______ _____ _____    ______ ____
ROOT
ATOM      1  C   UNL     1      -1.248  -2.099   0.003  0.00  0.00    +0.091 A 
ATOM      2  C   UNL     1      -1.287  -2.808  -1.187  0.00  0.00    -0.014 A 
ATOM      3  C   UNL     1      -1.339  -4.175  -1.111  0.00  0.00    +0.102 A 
ATOM      4  S   UNL     1      -1.333  -4.471   0.647  0.00  0.00    -0.066 S 
ATOM      5  C   UNL     1      -1.259  -2.829   1.197  0.00  0.00    +0.087 A 
ATOM      6  C   UNL     1      -1.273  -2.101  -2.518  0.00  0.00    +0.046 C 
ENDROOT
BRANCH   5   7
ATOM      7  N   UNL     1      -1.221  -2.357   2.493  0.00  0.00    -0.275 N 
ATOM      8  C   UNL     1      -1.239  -3.223   3.526  0.00  0.00    +0.249 C 
ATOM      9  O   UNL     1      -1.289  -4.419   3.316  0.00  0.00    -0.270 OA
ATOM     10  H   UNL     1      -1.181  -1.403   2.661  0.00  0.00    +0.156 HD
BRANCH   8  11
ATOM     11  C   UNL     1      -1.198  -2.717   4.915  0.00  0.00    +0.053 A 
ATOM     12  C   UNL     1      -1.141  -1.348   5.161  0.00  0.00    +0.014 A 
ATOM     13  C   UNL     1      -1.103  -0.880   6.461  0.00  0.00    +0.003 A 
ATOM     14  C   UNL     1      -1.123  -1.765   7.524  0.00  0.00    +0.033 A 
ATOM     15  C   UNL     1      -1.180  -3.128   7.300  0.00  0.00    +0.141 A 
ATOM     16  C   UNL     1      -1.224  -3.618   5.997  0.00  0.00    +0.105 A 
BRANCH  16  17
ATOM     17  C   UNL     1      -1.291  -5.074   5.752  0.00  0.00    +0.389 C 
ATOM     18  O   UNL     1      -0.268  -5.718   5.637  0.00  0.00    -0.240 OA
ATOM     19  O   UNL     1      -2.487  -5.686   5.655  0.00  0.00    -0.240 OA
ENDBRANCH  16  17
BRANCH  15  20
ATOM     20  N   UNL     1      -1.201  -4.066   8.444  0.00  0.00    +0.057 N 
ATOM     21  O   UNL     1      -1.167  -3.638   9.584  0.00  0.00    -0.126 OA
ATOM     22  O   UNL     1      -1.252  -5.267   8.246  0.00  0.00    -0.126 OA
ENDBRANCH  15  20
ENDBRANCH   8  11
ENDBRANCH   5   7
BRANCH   1  23
ATOM     23  C   UNL     1      -1.191  -0.632   0.010  0.00  0.00    +0.342 C 
ATOM     24  O   UNL     1      -2.220   0.016   0.023  0.00  0.00    -0.245 OA
BRANCH  23  25
ATOM     25  O   UNL     1       0.002  -0.004   0.002  0.00  0.00    -0.461 OA
BRANCH  25  27
ATOM     26  C   UNL     1       1.418   1.977  -0.001  0.00  0.00    +0.048 C 
ATOM     27  C   UNL     1      -0.018   1.448   0.010  0.00  0.00    +0.229 C 
ENDBRANCH  25  27
ENDBRANCH  23  25
ENDBRANCH   1  23
BRANCH   3  28
ATOM     28  C   UNL     1      -1.387  -5.149  -2.201  0.00  0.00    +0.346 C 
ATOM     29  O   UNL     1      -1.383  -4.769  -3.357  0.00  0.00    -0.244 OA
BRANCH  28  30
ATOM     30  O   UNL     1      -1.436  -6.468  -1.925  0.00  0.00    -0.461 OA
BRANCH  30  31
ATOM     31  C   UNL     1      -1.481  -7.363  -3.038  0.00  0.00    +0.229 C 
ATOM     32  C   UNL     1      -1.532  -8.806  -2.531  0.00  0.00    +0.048 C 
ENDBRANCH  30  31
ENDBRANCH  28  30
ENDBRANCH   3  28
TORSDOF 10
