REMARK  Name = ZINC19316328
REMARK  13 active torsions:
REMARK  status: ('A' for Active; 'I' for Inactive)
REMARK    1  A    between atoms: C_1  and  C_2
REMARK    2  A    between atoms: C_2  and  C_4
REMARK    3  A    between atoms: C_2  and  O_32
REMARK    4  A    between atoms: C_4  and  C_6
REMARK    5  A    between atoms: C_4  and  N_20
REMARK    6  A    between atoms: C_6  and  O_8
REMARK    7  A    between atoms: O_8  and  C_9
REMARK    8  A    between atoms: C_9  and  C_10
REMARK    9  A    between atoms: N_12  and  C_13
REMARK   10  A    between atoms: N_12  and  C_14
REMARK   11  A    between atoms: C_14  and  C_15
REMARK   12  A    between atoms: N_20  and  S_21
REMARK   13  A    between atoms: S_21  and  C_24
REMARK                            x       y       z     vdW  Elec       q    Type
REMARK                         _______ _______ _______ _____ _____    ______ ____
ROOT
ATOM      1  C   UNL     1       0.093   1.118  -0.044  0.00  0.00    +0.213 C 
ENDROOT
BRANCH   1   3
ATOM      2  C   UNL     1       1.496   3.144  -0.454  0.00  0.00    +0.040 C 
ATOM      3  C   UNL     1       1.524   1.638  -0.187  0.00  0.00    +0.141 C 
BRANCH   3   4
ATOM      4  O   UNL     1       2.247   1.382   1.019  0.00  0.00    -0.390 OA
ATOM      5  H   UNL     1       2.373   0.349   1.375  0.00  0.00    +0.210 HD
ENDBRANCH   3   4
ENDBRANCH   1   3
BRANCH   1   6
ATOM      6  C   UNL     1      -0.570   1.788   1.132  0.00  0.00    +0.329 C 
ATOM      7  O   UNL     1      -1.568   2.448   0.968  0.00  0.00    -0.249 OA
BRANCH   6   8
ATOM      8  O   UNL     1      -0.051   1.650   2.362  0.00  0.00    -0.454 OA
BRANCH   8   9
ATOM      9  C   UNL     1      -0.742   2.323   3.448  0.00  0.00    +0.327 C 
BRANCH   9  10
ATOM     10  C   UNL     1      -0.019   2.057   4.744  0.00  0.00    +0.253 C 
ATOM     11  O   UNL     1       0.979   1.368   4.752  0.00  0.00    -0.272 OA
ATOM     12  N   UNL     1      -0.483   2.584   5.894  0.00  0.00    -0.297 N 
ATOM     13  C   UNL     1      -1.689   3.416   5.885  0.00  0.00    +0.132 C 
BRANCH  12  14
ATOM     14  C   UNL     1       0.219   2.325   7.154  0.00  0.00    +0.143 C 
BRANCH  14  15
ATOM     15  C   UNL     1       1.258   3.393   7.378  0.00  0.00    -0.023 A 
ATOM     16  C   UNL     1       2.546   3.228   6.904  0.00  0.00    +0.013 A 
ATOM     17  C   UNL     1       3.456   4.210   7.118  0.00  0.00    +0.045 A 
ATOM     18  S   UNL     1       2.497   5.411   8.025  0.00  0.00    -0.105 S 
ATOM     19  C   UNL     1       0.946   4.527   8.052  0.00  0.00    +0.050 A 
ENDBRANCH  14  15
ENDBRANCH  12  14
ENDBRANCH   9  10
ENDBRANCH   8   9
ENDBRANCH   6   8
ENDBRANCH   1   6
BRANCH   1  20
ATOM     20  N   UNL     1      -0.660   1.419  -1.265  0.00  0.00    -0.174 NA
ATOM     21  H   UNL     1      -1.257   2.341  -1.330  0.00  0.00    +0.149 HD
BRANCH  20  22
ATOM     22  S   UNL     1      -0.816   0.269  -2.446  0.00  0.00    +0.059 S 
ATOM     23  O   UNL     1      -1.610   0.847  -3.473  0.00  0.00    -0.153 OA
ATOM     24  O   UNL     1       0.487  -0.244  -2.688  0.00  0.00    -0.153 OA
BRANCH  22  25
ATOM     25  C   UNL     1      -1.759  -1.054  -1.764  0.00  0.00    +0.107 A 
ATOM     26  C   UNL     1      -1.121  -2.100  -1.124  0.00  0.00    +0.030 A 
ATOM     27  C   UNL     1      -1.860  -3.135  -0.584  0.00  0.00    +0.023 A 
ATOM     28  C   UNL     1      -3.239  -3.131  -0.693  0.00  0.00    +0.059 A 
ATOM     29  C   UNL     1      -3.878  -2.086  -1.339  0.00  0.00    +0.061 A 
ATOM     30  C   UNL     1      -3.137  -1.048  -1.874  0.00  0.00    +0.050 A 
ATOM     31 CL   UNL     1      -5.609  -2.079  -1.477  0.00  0.00    -0.082 Cl
ATOM     32 CL   UNL     1      -4.168  -4.434  -0.021  0.00  0.00    -0.082 Cl
ENDBRANCH  22  25
ENDBRANCH  20  22
ENDBRANCH   1  20
TORSDOF 11
