REMARK  Name = ZINC21823861
REMARK  8 active torsions:
REMARK  status: ('A' for Active; 'I' for Inactive)
REMARK    1  A    between atoms: C_1  and  C_2
REMARK    2  A    between atoms: C_2  and  N_3
REMARK    3  A    between atoms: C_16  and  C_17
REMARK    4  A    between atoms: C_17  and  S_18
REMARK    5  A    between atoms: S_18  and  C_19
REMARK    6  A    between atoms: C_22  and  C_25
REMARK    7  A    between atoms: C_25  and  C_26
REMARK    8  A    between atoms: C_26  and  C_27
REMARK                            x       y       z     vdW  Elec       q    Type
REMARK                         _______ _______ _______ _____ _____    ______ ____
ROOT
ATOM      1  N   UNL     1      -1.064   2.185  -0.289  0.00  0.00    -0.277 N 
ATOM      2  C   UNL     1      -0.833   3.487  -0.557  0.00  0.00    +0.263 A 
ATOM      3  O   UNL     1      -1.759   4.263  -0.700  0.00  0.00    -0.267 OA
ATOM      4  C   UNL     1       0.561   3.952  -0.681  0.00  0.00    +0.063 A 
ATOM      5  C   UNL     1       0.858   5.284  -0.963  0.00  0.00    +0.015 A 
ATOM      6  C   UNL     1       2.174   5.681  -1.071  0.00  0.00    +0.001 A 
ATOM      7  C   UNL     1       3.198   4.762  -0.900  0.00  0.00    +0.002 A 
ATOM      8  C   UNL     1       2.917   3.439  -0.622  0.00  0.00    +0.027 A 
ATOM      9  C   UNL     1       1.599   3.022  -0.510  0.00  0.00    +0.063 A 
ATOM     10  N   UNL     1       1.282   1.699  -0.230  0.00  0.00    -0.264 N 
ATOM     11  C   UNL     1      -0.018   1.298  -0.121  0.00  0.00    +0.239 A 
ATOM     12  N   UNL     1       0.004   0.010   0.145  0.00  0.00    -0.110 NA
ATOM     13  N   UNL     1       1.220  -0.403   0.207  0.00  0.00    -0.131 NA
ATOM     14  C   UNL     1       2.041   0.585  -0.014  0.00  0.00    +0.150 A 
ENDROOT
BRANCH   1  16
ATOM     15  C   UNL     1      -2.901   1.833   1.286  0.00  0.00    +0.027 C 
ATOM     16  C   UNL     1      -2.443   1.707  -0.168  0.00  0.00    +0.125 C 
ENDBRANCH   1  16
BRANCH  14  17
ATOM     17  C   UNL     1       3.546   0.512  -0.030  0.00  0.00    +0.154 C 
BRANCH  17  18
ATOM     18  S   UNL     1       4.125   0.343  -1.736  0.00  0.00    -0.079 S 
BRANCH  18  19
ATOM     19  C   UNL     1       5.865   0.281  -1.465  0.00  0.00    +0.185 A 
ATOM     20  N   UNL     1       6.831   0.150  -2.420  0.00  0.00    -0.206 NA
ATOM     21  H   UNL     1       6.065   0.459   0.709  0.00  0.00    +0.191 HD
ATOM     22  C   UNL     1       8.021   0.155  -1.746  0.00  0.00    +0.152 A 
ATOM     23  N   UNL     1       7.749   0.281  -0.479  0.00  0.00    -0.157 NA
ATOM     24  N   UNL     1       6.477   0.353  -0.306  0.00  0.00    -0.254 N 
BRANCH  22  25
ATOM     25  C   UNL     1       9.394   0.035  -2.357  0.00  0.00    +0.078 C 
BRANCH  25  26
ATOM     26  C   UNL     1      10.258   1.215  -1.906  0.00  0.00    +0.011 C 
BRANCH  26  27
ATOM     27  C   UNL     1      11.651   1.093  -2.526  0.00  0.00    -0.011 C 
ATOM     28  C   UNL     1      12.392  -0.119  -1.926  0.00  0.00    +0.003 C 
ATOM     29  C   UNL     1      13.863   0.354  -1.811  0.00  0.00    +0.000 C 
ATOM     30  C   UNL     1      13.713   1.836  -1.386  0.00  0.00    +0.000 C 
ATOM     31  C   UNL     1      12.491   2.336  -2.183  0.00  0.00    +0.003 C 
ENDBRANCH  26  27
ENDBRANCH  25  26
ENDBRANCH  22  25
ENDBRANCH  18  19
ENDBRANCH  17  18
ENDBRANCH  14  17
TORSDOF 7
