REMARK  Name = ZINC23223796
REMARK  9 active torsions:
REMARK  status: ('A' for Active; 'I' for Inactive)
REMARK    1  A    between atoms: C_1  and  O_2
REMARK    2  A    between atoms: O_2  and  C_3
REMARK    3  A    between atoms: C_6  and  C_9
REMARK    4  A    between atoms: C_12  and  C_15
REMARK    5  A    between atoms: C_20  and  C_22
REMARK    6  A    between atoms: C_22  and  O_23
REMARK    7  A    between atoms: O_23  and  C_24
REMARK    8  A    between atoms: C_24  and  C_26
REMARK    9  A    between atoms: C_29  and  C_32
REMARK                            x       y       z     vdW  Elec       q    Type
REMARK                         _______ _______ _______ _____ _____    ______ ____
ROOT
ATOM      1  C   UNL     1     -11.442   5.373   0.079  0.00  0.00    +0.069 C 
ATOM      2  N   UNL     1     -10.175   5.144   0.073  0.00  0.00    -0.181 NA
ATOM      3  N   UNL     1      -9.840   3.792   0.065  0.00  0.00    -0.179 N 
ATOM      4  C   UNL     1     -11.078   2.996   0.060  0.00  0.00    +0.173 C 
ATOM      5  C   UNL     1     -12.193   4.061   0.076  0.00  0.00    +0.090 C 
ATOM      6  C   UNL     1      -8.588   3.293   0.057  0.00  0.00    +0.273 C 
ATOM      7  O   UNL     1      -8.413   2.093   0.050  0.00  0.00    -0.270 OA
ENDROOT
BRANCH   1  11
ATOM      8  C   UNL     1     -13.237   9.221   0.104  0.00  0.00    +0.120 A 
ATOM      9  C   UNL     1     -11.853   9.102   0.098  0.00  0.00    +0.046 A 
ATOM     10  C   UNL     1     -11.266   7.855   0.090  0.00  0.00    +0.013 A 
ATOM     11  C   UNL     1     -12.065   6.709   0.088  0.00  0.00    -0.002 A 
ATOM     12  C   UNL     1     -13.457   6.833   0.088  0.00  0.00    +0.013 A 
ATOM     13  C   UNL     1     -14.035   8.084   0.102  0.00  0.00    +0.046 A 
BRANCH   8  15
ATOM     14  C   UNL     1     -15.239  10.502   0.118  0.00  0.00    +0.277 C 
ATOM     15  O   UNL     1     -13.811  10.452   0.112  0.00  0.00    -0.495 OA
ENDBRANCH   8  15
ENDBRANCH   1  11
BRANCH   4  16
ATOM     16  C   UNL     1     -11.163   2.155  -1.188  0.00  0.00    +0.128 A 
ATOM     17  C   UNL     1     -11.632   0.896  -1.257  0.00  0.00    +0.046 A 
ATOM     18  C   UNL     1     -11.529   0.494  -2.609  0.00  0.00    +0.041 A 
ATOM     19  C   UNL     1     -11.002   1.531  -3.284  0.00  0.00    +0.195 A 
ATOM     20  O   UNL     1     -10.788   2.536  -2.419  0.00  0.00    -0.466 OA
ENDBRANCH   4  16
BRANCH   6  21
ATOM     21  C   UNL     1      -7.406   4.228   0.057  0.00  0.00    +0.330 C 
BRANCH  21  22
ATOM     22  O   UNL     1      -6.177   3.453   0.048  0.00  0.00    -0.452 OA
BRANCH  22  23
ATOM     23  C   UNL     1      -5.020   4.143   0.046  0.00  0.00    +0.340 C 
ATOM     24  O   UNL     1      -5.037   5.357   0.053  0.00  0.00    -0.245 OA
BRANCH  23  25
ATOM     25  C   UNL     1      -3.729   3.420   0.037  0.00  0.00    +0.059 A 
ATOM     26  C   UNL     1      -2.530   4.135   0.036  0.00  0.00    +0.016 A 
ATOM     27  C   UNL     1      -1.327   3.462   0.027  0.00  0.00    +0.014 A 
ATOM     28  C   UNL     1      -1.308   2.066   0.019  0.00  0.00    +0.037 A 
ATOM     29  C   UNL     1      -2.507   1.352   0.015  0.00  0.00    +0.014 A 
ATOM     30  C   UNL     1      -3.710   2.025   0.030  0.00  0.00    +0.016 A 
BRANCH  28  31
ATOM     31  C   UNL     1      -0.016   1.344   0.009  0.00  0.00    +0.242 C 
ATOM     32  O   UNL     1       1.028   1.965   0.003  0.00  0.00    -0.270 OA
ATOM     33  N   UNL     1       0.002  -0.004   0.002  0.00  0.00    -0.325 N 
ATOM     34  H   UNL     1       0.962  -0.541  -0.005  0.00  0.00    +0.145 HD
ATOM     35  H   UNL     1      -0.943  -0.567   0.004  0.00  0.00    +0.145 HD
ENDBRANCH  28  31
ENDBRANCH  23  25
ENDBRANCH  22  23
ENDBRANCH  21  22
ENDBRANCH   6  21
TORSDOF 8
