REMARK  Name = ZINC19354538
REMARK  13 active torsions:
REMARK  status: ('A' for Active; 'I' for Inactive)
REMARK    1  A    between atoms: C_1  and  C_2
REMARK    2  A    between atoms: C_2  and  C_3
REMARK    3  A    between atoms: C_2  and  C_4
REMARK    4  A    between atoms: C_7  and  O_10
REMARK    5  A    between atoms: O_10  and  C_11
REMARK    6  A    between atoms: C_11  and  C_12
REMARK    7  A    between atoms: C_15  and  S_18
REMARK    8  A    between atoms: N_16  and  N_17
REMARK    9  A    between atoms: S_18  and  C_19
REMARK   10  A    between atoms: C_19  and  C_20
REMARK   11  A    between atoms: N_22  and  C_23
REMARK   12  A    between atoms: N_22  and  C_24
REMARK   13  A    between atoms: C_24  and  C_25
REMARK                            x       y       z     vdW  Elec       q    Type
REMARK                         _______ _______ _______ _____ _____    ______ ____
ROOT
ATOM      1  C   UNL     1       2.489  11.754  -6.336  0.00  0.00    +0.189 A 
ATOM      2  N   UNL     1       3.163  11.342  -5.300  0.00  0.00    -0.128 NA
ATOM      3  N   UNL     1       2.387  10.716  -4.489  0.00  0.00    -0.121 NA
ATOM      4  C   UNL     1       1.167  10.687  -4.973  0.00  0.00    +0.209 A 
ATOM      5  N   UNL     1       1.193  11.352  -6.165  0.00  0.00    -0.225 N 
ENDROOT
BRANCH   5   6
ATOM      6  N   UNL     1       0.144  11.569  -7.012  0.00  0.00    -0.295 N 
ATOM      7  H   UNL     1      -0.857  11.190  -6.756  0.00  0.00    +0.163 HD
ATOM      8  H   UNL     1       0.299  12.124  -7.949  0.00  0.00    +0.163 HD
ENDBRANCH   5   6
BRANCH   1   9
ATOM      9  C   UNL     1       3.036  12.530  -7.507  0.00  0.00    +0.306 C 
BRANCH   9  10
ATOM     10  O   UNL     1       2.935  13.930  -7.239  0.00  0.00    -0.484 OA
BRANCH  10  14
ATOM     11  C   UNL     1       4.309  16.499 -10.160  0.00  0.00    -0.045 A 
ATOM     12  C   UNL     1       3.780  17.007  -8.987  0.00  0.00    +0.007 A 
ATOM     13  C   UNL     1       3.319  16.149  -8.008  0.00  0.00    +0.046 A 
ATOM     14  C   UNL     1       3.388  14.777  -8.201  0.00  0.00    +0.121 A 
ATOM     15  C   UNL     1       3.924  14.270  -9.376  0.00  0.00    +0.046 A 
ATOM     16  C   UNL     1       4.378  15.132 -10.355  0.00  0.00    +0.007 A 
BRANCH  11  18
ATOM     17  C   UNL     1       6.297  17.174 -11.480  0.00  0.00    +0.012 C 
ATOM     18  C   UNL     1       4.811  17.438 -11.227  0.00  0.00    +0.013 C 
ATOM     19  C   UNL     1       4.025  17.208 -12.519  0.00  0.00    +0.012 C 
ENDBRANCH  11  18
ENDBRANCH  10  14
ENDBRANCH   9  10
ENDBRANCH   1   9
BRANCH   4  20
ATOM     20  S   UNL     1      -0.240   9.939  -4.221  0.00  0.00    -0.075 S 
BRANCH  20  21
ATOM     21  C   UNL     1       0.518   9.287  -2.713  0.00  0.00    +0.173 C 
BRANCH  21  22
ATOM     22  C   UNL     1      -0.528   8.583  -1.888  0.00  0.00    +0.226 C 
ATOM     23  O   UNL     1      -1.675   8.528  -2.281  0.00  0.00    -0.275 OA
ATOM     24  N   UNL     1      -0.191   8.015  -0.714  0.00  0.00    -0.300 N 
ATOM     25  C   UNL     1       1.193   8.081  -0.239  0.00  0.00    +0.132 C 
BRANCH  24  26
ATOM     26  C   UNL     1      -1.208   7.331   0.088  0.00  0.00    +0.155 C 
BRANCH  26  27
ATOM     27  C   UNL     1      -1.270   5.856  -0.315  0.00  0.00    +0.228 C 
ATOM     28  C   UNL     1      -2.417   5.163   0.432  0.00  0.00    +0.275 C 
ATOM     29  O   UNL     1      -2.437   3.785   0.043  0.00  0.00    -0.485 OA
ATOM     30  C   UNL     1      -1.241   3.136   0.031  0.00  0.00    +0.162 A 
ATOM     31  C   UNL     1      -1.219   1.749   0.017  0.00  0.00    +0.049 A 
ATOM     32  C   UNL     1      -0.013   1.076   0.008  0.00  0.00    +0.004 A 
ATOM     33  C   UNL     1       1.176   1.782   0.000  0.00  0.00    +0.004 A 
ATOM     34  C   UNL     1       1.161   3.164   0.009  0.00  0.00    +0.049 A 
ATOM     35  C   UNL     1      -0.046   3.846   0.026  0.00  0.00    +0.163 A 
ATOM     36  O   UNL     1      -0.045   5.207   0.043  0.00  0.00    -0.480 OA
ENDBRANCH  26  27
ENDBRANCH  24  26
ENDBRANCH  21  22
ENDBRANCH  20  21
ENDBRANCH   4  20
TORSDOF 10
