REMARK  Name = ZINC09440024
REMARK  10 active torsions:
REMARK  status: ('A' for Active; 'I' for Inactive)
REMARK    1  A    between atoms: C_4  and  C_7
REMARK    2  A    between atoms: C_7  and  C_8
REMARK    3  A    between atoms: C_8  and  C_10
REMARK    4  A    between atoms: C_8  and  N_26
REMARK    5  A    between atoms: C_10  and  O_12
REMARK    6  A    between atoms: O_12  and  C_13
REMARK    7  A    between atoms: C_13  and  C_14
REMARK    8  A    between atoms: N_16  and  C_17
REMARK    9  A    between atoms: C_20  and  N_23
REMARK   10  A    between atoms: C_27  and  C_29
REMARK                            x       y       z     vdW  Elec       q    Type
REMARK                         _______ _______ _______ _____ _____    ______ ____
ROOT
ATOM      1  C   UNL     1       5.383  -6.576  -0.607  0.00  0.00    +0.186 C 
ENDROOT
BRANCH   1   2
ATOM      2  N   UNL     1       5.321  -8.035  -0.721  0.00  0.00    -0.298 N 
ATOM      3  C   UNL     1       6.375  -8.786  -0.343  0.00  0.00    +0.251 C 
ATOM      4  O   UNL     1       7.378  -8.251   0.093  0.00  0.00    -0.270 OA
ATOM      5  H   UNL     1       4.522  -8.461  -1.068  0.00  0.00    +0.150 HD
BRANCH   3   6
ATOM      6  C   UNL     1       6.314 -10.246  -0.457  0.00  0.00    +0.074 A 
ATOM      7  C   UNL     1       7.275 -11.189  -0.128  0.00  0.00    +0.021 A 
ATOM      8  C   UNL     1       6.954 -12.507  -0.336  0.00  0.00    +0.008 A 
ATOM      9  C   UNL     1       5.733 -12.820  -0.845  0.00  0.00    +0.046 A 
ATOM     10  S   UNL     1       4.979 -11.273  -1.047  0.00  0.00    -0.092 S 
ENDBRANCH   3   6
ENDBRANCH   1   2
BRANCH   1  11
ATOM     11  C   UNL     1       3.986  -6.022  -0.487  0.00  0.00    +0.328 C 
ATOM     12  O   UNL     1       3.037  -6.770  -0.495  0.00  0.00    -0.249 OA
BRANCH  11  13
ATOM     13  O   UNL     1       3.797  -4.699  -0.370  0.00  0.00    -0.454 OA
BRANCH  13  14
ATOM     14  C   UNL     1       2.425  -4.236  -0.258  0.00  0.00    +0.328 C 
BRANCH  14  15
ATOM     15  C   UNL     1       2.410  -2.734  -0.137  0.00  0.00    +0.255 C 
ATOM     16  O   UNL     1       3.452  -2.114  -0.144  0.00  0.00    -0.272 OA
ATOM     17  N   UNL     1       1.237  -2.079  -0.021  0.00  0.00    -0.283 N 
ATOM     18  H   UNL     1       0.409  -2.578   0.062  0.00  0.00    +0.155 HD
BRANCH  17  19
ATOM     19  C   UNL     1       1.214  -0.680  -0.019  0.00  0.00    +0.034 A 
ATOM     20  C   UNL     1       2.137   0.031  -0.774  0.00  0.00    +0.025 A 
ATOM     21  C   UNL     1       2.111   1.412  -0.771  0.00  0.00    +0.034 A 
ATOM     22  C   UNL     1       1.168   2.086  -0.017  0.00  0.00    +0.126 A 
ATOM     23  C   UNL     1       0.248   1.380   0.736  0.00  0.00    +0.034 A 
ATOM     24  C   UNL     1       0.268  -0.001   0.737  0.00  0.00    +0.025 A 
BRANCH  22  25
ATOM     25  N   UNL     1       1.144   3.566  -0.015  0.00  0.00    +0.056 N 
ATOM     26  O   UNL     1       1.954   4.189  -0.678  0.00  0.00    -0.126 OA
ATOM     27  O   UNL     1       0.314   4.161   0.649  0.00  0.00    -0.126 OA
ENDBRANCH  22  25
ENDBRANCH  17  19
ENDBRANCH  14  15
ENDBRANCH  13  14
ENDBRANCH  11  13
ENDBRANCH   1  11
BRANCH   1  28
ATOM     28  C   UNL     1       6.056  -5.995  -1.853  0.00  0.00    +0.069 C 
BRANCH  28  32
ATOM     29  C   UNL     1      10.124  -7.289  -2.007  0.00  0.00    +0.000 A 
ATOM     30  C   UNL     1       9.135  -8.044  -2.610  0.00  0.00    +0.000 A 
ATOM     31  C   UNL     1       7.819  -7.625  -2.560  0.00  0.00    +0.004 A 
ATOM     32  C   UNL     1       7.491  -6.452  -1.907  0.00  0.00    -0.045 A 
ATOM     33  C   UNL     1       8.480  -5.694  -1.309  0.00  0.00    +0.004 A 
ATOM     34  C   UNL     1       9.796  -6.115  -1.354  0.00  0.00    +0.000 A 
ENDBRANCH  28  32
ENDBRANCH   1  28
TORSDOF 10
