REMARK  Name = ZINC22281105
REMARK  9 active torsions:
REMARK  status: ('A' for Active; 'I' for Inactive)
REMARK    1  A    between atoms: C_1  and  C_2
REMARK    2  A    between atoms: C_5  and  N_27
REMARK    3  A    between atoms: C_7  and  N_8
REMARK    4  A    between atoms: C_9  and  C_11
REMARK    5  A    between atoms: C_11  and  C_13
REMARK    6  A    between atoms: C_11  and  S_14
REMARK    7  A    between atoms: S_14  and  C_15
REMARK    8  A    between atoms: C_18  and  C_26
REMARK    9  A    between atoms: N_19  and  C_20
REMARK                            x       y       z     vdW  Elec       q    Type
REMARK                         _______ _______ _______ _____ _____    ______ ____
ROOT
ATOM      1  C   UNL     1      -6.191  -0.909  -0.190  0.00  0.00    +0.137 C 
ATOM      2  C   UNL     1      -6.639  -0.940  -1.653  0.00  0.00    +0.029 C 
ENDROOT
BRANCH   1   4
ATOM      3  N   UNL     1      -4.907   1.194   0.031  0.00  0.00    -0.284 N 
ATOM      4  C   UNL     1      -4.894  -0.149  -0.078  0.00  0.00    +0.230 C 
ATOM      5  O   UNL     1      -3.839  -0.747  -0.087  0.00  0.00    -0.274 OA
ATOM      6  H   UNL     1      -5.865   1.730   0.113  0.00  0.00    +0.155 HD
BRANCH   3  13
ATOM      7  C   UNL     1      -4.856   3.760  -1.196  0.00  0.00    +0.045 C 
ATOM      8  C   UNL     1      -3.634   3.163  -0.548  0.00  0.00    -0.029 A 
ATOM      9  C   UNL     1      -2.444   3.864  -0.537  0.00  0.00    +0.007 A 
ATOM     10  C   UNL     1      -1.324   3.319   0.063  0.00  0.00    +0.033 A 
ATOM     11  C   UNL     1      -1.388   2.066   0.645  0.00  0.00    +0.128 A 
ATOM     12  C   UNL     1      -2.575   1.360   0.638  0.00  0.00    +0.056 A 
ATOM     13  C   UNL     1      -3.703   1.907   0.041  0.00  0.00    +0.038 A 
BRANCH  11  14
ATOM     14  N   UNL     1      -0.185   1.483   1.281  0.00  0.00    +0.056 N 
ATOM     15  O   UNL     1      -0.243   0.382   1.798  0.00  0.00    -0.126 OA
ATOM     16  O   UNL     1       0.863   2.103   1.283  0.00  0.00    -0.126 OA
ENDBRANCH  11  14
ENDBRANCH   3  13
ENDBRANCH   1   4
BRANCH   1  17
ATOM     17  S   UNL     1      -5.952  -2.602   0.404  0.00  0.00    -0.074 S 
BRANCH  17  18
ATOM     18  C   UNL     1      -7.608  -3.196   0.308  0.00  0.00    +0.193 A 
ATOM     19  N   UNL     1      -8.659  -2.518  -0.092  0.00  0.00    -0.122 NA
ATOM     20  N   UNL     1      -9.705  -3.263  -0.038  0.00  0.00    -0.134 NA
ATOM     21  C   UNL     1      -9.389  -4.447   0.404  0.00  0.00    +0.131 A 
ATOM     22  N   UNL     1      -8.042  -4.448   0.640  0.00  0.00    -0.303 N 
ATOM     23  C   UNL     1     -10.333  -5.603   0.616  0.00  0.00    +0.088 C 
BRANCH  22  24
ATOM     24  C   UNL     1      -7.232  -5.560   1.144  0.00  0.00    +0.091 C 
ATOM     25  C   UNL     1      -6.567  -5.150   2.460  0.00  0.00    +0.025 C 
ATOM     26  C   UNL     1      -5.721  -6.311   2.987  0.00  0.00    +0.002 C 
ATOM     27  C   UNL     1      -4.645  -6.666   1.959  0.00  0.00    +0.000 C 
ATOM     28  C   UNL     1      -5.310  -7.075   0.644  0.00  0.00    +0.002 C 
ATOM     29  C   UNL     1      -6.156  -5.914   0.117  0.00  0.00    +0.025 C 
ENDBRANCH  22  24
ENDBRANCH  17  18
ENDBRANCH   1  17
TORSDOF 6
