REMARK  Name = ZINC56608831
REMARK  8 active torsions:
REMARK  status: ('A' for Active; 'I' for Inactive)
REMARK    1  A    between atoms: C_1  and  C_2
REMARK    2  A    between atoms: C_5  and  C_29
REMARK    3  A    between atoms: C_6  and  O_8
REMARK    4  A    between atoms: O_8  and  C_9
REMARK    5  A    between atoms: N_17  and  C_18
REMARK    6  A    between atoms: C_21  and  O_24
REMARK    7  A    between atoms: O_24  and  C_25
REMARK    8  A    between atoms: C_25  and  C_26
REMARK                            x       y       z     vdW  Elec       q    Type
REMARK                         _______ _______ _______ _____ _____    ______ ____
ROOT
ATOM      1  C   UNL     1      -0.306  -2.879   3.655  0.00  0.00    +0.176 C 
ATOM      2  C   UNL     1       1.206  -3.082   3.778  0.00  0.00    +0.063 C 
ATOM      3  C   UNL     1       1.777  -2.050   4.756  0.00  0.00    +0.113 C 
ATOM      4  N   UNL     1       1.049  -2.151   6.028  0.00  0.00    -0.285 N 
ATOM      5  C   UNL     1      -0.417  -2.061   6.012  0.00  0.00    +0.113 C 
ATOM      6  C   UNL     1      -0.964  -3.092   5.020  0.00  0.00    +0.063 C 
ATOM      7  C   UNL     1       1.714  -2.323   7.188  0.00  0.00    +0.306 C 
ATOM      8  O   UNL     1       2.930  -2.302   7.200  0.00  0.00    -0.252 OA
ATOM      9  N   UNL     1       1.032  -2.519   8.333  0.00  0.00    -0.269 N 
ATOM     10  H   UNL     1       0.067  -2.418   8.346  0.00  0.00    +0.156 HD
ENDROOT
BRANCH   9  11
ATOM     11  C   UNL     1       1.716  -2.870   9.505  0.00  0.00    +0.035 A 
ATOM     12  C   UNL     1       2.997  -2.387   9.732  0.00  0.00    +0.027 A 
ATOM     13  C   UNL     1       3.670  -2.733  10.887  0.00  0.00    +0.047 A 
ATOM     14  C   UNL     1       3.066  -3.562  11.821  0.00  0.00    +0.121 A 
ATOM     15  C   UNL     1       1.786  -4.045  11.594  0.00  0.00    +0.047 A 
ATOM     16  C   UNL     1       1.109  -3.696  10.442  0.00  0.00    +0.027 A 
BRANCH  14  17
ATOM     17  O   UNL     1       3.729  -3.902  12.958  0.00  0.00    -0.483 OA
BRANCH  17  18
ATOM     18  C   UNL     1       3.047  -4.760  13.875  0.00  0.00    +0.324 C 
BRANCH  18  19
ATOM     19  C   UNL     1       3.931  -5.025  15.067  0.00  0.00    +0.248 C 
ATOM     20  O   UNL     1       5.036  -4.529  15.125  0.00  0.00    -0.272 OA
ATOM     21  N   UNL     1       3.493  -5.814  16.068  0.00  0.00    -0.327 N 
ATOM     22  H   UNL     1       2.609  -6.211  16.022  0.00  0.00    +0.145 HD
ATOM     23  H   UNL     1       4.062  -5.985  16.835  0.00  0.00    +0.145 HD
ENDBRANCH  18  19
ENDBRANCH  17  18
ENDBRANCH  14  17
ENDBRANCH   9  11
BRANCH   1  24
ATOM     24  O   UNL     1      -0.838  -3.819   2.719  0.00  0.00    -0.488 OA
BRANCH  24  30
ATOM     25  C   UNL     1       0.961  -0.889  -0.745  0.00  0.00    +0.044 C 
ATOM     26  C   UNL     1       0.223  -2.134  -0.326  0.00  0.00    -0.047 A 
ATOM     27  C   UNL     1      -0.264  -3.004  -1.285  0.00  0.00    +0.004 A 
ATOM     28  C   UNL     1      -0.943  -4.146  -0.903  0.00  0.00    +0.007 A 
ATOM     29  C   UNL     1      -1.136  -4.422   0.437  0.00  0.00    -0.009 A 
ATOM     30  C   UNL     1      -0.649  -3.551   1.400  0.00  0.00    +0.124 A 
ATOM     31  C   UNL     1       0.037  -2.407   1.015  0.00  0.00    +0.049 A 
ATOM     32  C   UNL     1      -1.876  -5.667   0.852  0.00  0.00    +0.047 C 
ENDBRANCH  24  30
ENDBRANCH   1  24
TORSDOF 6
