REMARK  Name = ZINC01083644
REMARK  6 active torsions:
REMARK  status: ('A' for Active; 'I' for Inactive)
REMARK    1  A    between atoms: C_1  and  C_2
REMARK    2  A    between atoms: C_5  and  N_8
REMARK    3  A    between atoms: C_9  and  C_11
REMARK    4  A    between atoms: C_11  and  C_22
REMARK    5  A    between atoms: C_12  and  C_13
REMARK    6  A    between atoms: C_16  and  N_19
REMARK                            x       y       z     vdW  Elec       q    Type
REMARK                         _______ _______ _______ _____ _____    ______ ____
ROOT
ATOM      1  C   UNL     1       2.426  -4.204  -0.232  0.00  0.00    +0.114 C 
ATOM      2  C   UNL     1       3.614  -4.864  -0.373  0.00  0.00    +0.032 C 
ENDROOT
BRANCH   2   3
ATOM      3  C   UNL     1       3.625  -6.313  -0.602  0.00  0.00    -0.024 A 
ATOM      4  C   UNL     1       2.650  -7.127  -0.011  0.00  0.00    +0.010 A 
ATOM      5  C   UNL     1       2.666  -8.487  -0.234  0.00  0.00    +0.033 A 
ATOM      6  C   UNL     1       3.647  -9.050  -1.032  0.00  0.00    +0.126 A 
ATOM      7  C   UNL     1       4.618  -8.254  -1.616  0.00  0.00    +0.033 A 
ATOM      8  C   UNL     1       4.614  -6.892  -1.407  0.00  0.00    +0.010 A 
BRANCH   6   9
ATOM      9  N   UNL     1       3.659 -10.513  -1.261  0.00  0.00    +0.056 N 
ATOM     10  O   UNL     1       4.522 -11.012  -1.962  0.00  0.00    -0.126 OA
ATOM     11  O   UNL     1       2.808 -11.216  -0.749  0.00  0.00    -0.126 OA
ENDBRANCH   6   9
ENDBRANCH   2   3
BRANCH   1  13
ATOM     12  N   UNL     1       1.242  -2.134   0.298  0.00  0.00    -0.281 N 
ATOM     13  C   UNL     1       2.414  -2.785   0.159  0.00  0.00    +0.259 C 
ATOM     14  O   UNL     1       3.462  -2.200   0.356  0.00  0.00    -0.269 OA
ATOM     15  H   UNL     1       0.406  -2.618   0.215  0.00  0.00    +0.155 HD
BRANCH  12  20
ATOM     16  C   UNL     1       1.201   3.436   1.371  0.00  0.00    +0.044 C 
ATOM     17  C   UNL     1       1.212   1.956   1.086  0.00  0.00    -0.050 A 
ATOM     18  C   UNL     1       2.169   1.423   0.242  0.00  0.00    +0.005 A 
ATOM     19  C   UNL     1       2.182   0.067  -0.021  0.00  0.00    +0.023 A 
ATOM     20  C   UNL     1       1.232  -0.761   0.563  0.00  0.00    +0.034 A 
ATOM     21  C   UNL     1       0.272  -0.223   1.411  0.00  0.00    +0.023 A 
ATOM     22  C   UNL     1       0.265   1.134   1.669  0.00  0.00    +0.005 A 
ENDBRANCH  12  20
ENDBRANCH   1  13
BRANCH   1  23
ATOM     23  C   UNL     1       1.192  -4.893  -0.464  0.00  0.00    +0.104 C 
ATOM     24  N   UNL     1       0.213  -5.440  -0.648  0.00  0.00    -0.191 NA
ENDBRANCH   1  23
TORSDOF 5
