REMARK  Name = ZINC16215085
REMARK  11 active torsions:
REMARK  status: ('A' for Active; 'I' for Inactive)
REMARK    1  A    between atoms: C_1  and  O_2
REMARK    2  A    between atoms: O_2  and  C_3
REMARK    3  A    between atoms: C_5  and  N_11
REMARK    4  A    between atoms: C_7  and  O_9
REMARK    5  A    between atoms: O_9  and  C_10
REMARK    6  A    between atoms: N_11  and  S_12
REMARK    7  A    between atoms: S_12  and  C_15
REMARK    8  A    between atoms: C_18  and  N_21
REMARK    9  A    between atoms: N_21  and  C_22
REMARK   10  A    between atoms: C_23  and  C_24
REMARK   11  A    between atoms: C_23  and  C_26
REMARK                            x       y       z     vdW  Elec       q    Type
REMARK                         _______ _______ _______ _____ _____    ______ ____
ROOT
ATOM      1  C   UNL     1      -3.878  -6.462   0.023  0.00  0.00    +0.111 A 
ATOM      2  C   UNL     1      -3.785  -7.142  -1.177  0.00  0.00    +0.031 A 
ATOM      3  C   UNL     1      -3.590  -8.509  -1.184  0.00  0.00    +0.025 A 
ATOM      4  C   UNL     1      -3.488  -9.201   0.016  0.00  0.00    +0.031 A 
ATOM      5  C   UNL     1      -3.582  -8.514   1.220  0.00  0.00    +0.025 A 
ATOM      6  C   UNL     1      -3.772  -7.147   1.220  0.00  0.00    +0.031 A 
ENDROOT
BRANCH   1   7
ATOM      7  S   UNL     1      -4.127  -4.717   0.028  0.00  0.00    +0.093 S 
ATOM      8  O   UNL     1      -4.719  -4.395   1.278  0.00  0.00    -0.148 OA
ATOM      9  O   UNL     1      -4.739  -4.391  -1.212  0.00  0.00    -0.148 OA
BRANCH   7  10
ATOM     10  N   UNL     1      -2.629  -4.010   0.017  0.00  0.00    -0.078 NA
BRANCH  10  13
ATOM     11  C   UNL     1      -1.197  -0.636   0.010  0.00  0.00    +0.222 A 
ATOM     12  C   UNL     1      -1.261  -2.024   0.009  0.00  0.00    +0.114 A 
ATOM     13  C   UNL     1      -2.515  -2.629   0.018  0.00  0.00    +0.173 A 
ATOM     14  N   UNL     1      -3.603  -1.862   0.027  0.00  0.00    -0.176 NA
ATOM     15  C   UNL     1      -3.502  -0.543   0.028  0.00  0.00    +0.323 A 
ATOM     16  N   UNL     1      -2.327   0.065   0.025  0.00  0.00    -0.160 NA
BRANCH  11  18
ATOM     17  C   UNL     1      -0.017   1.425   0.010  0.00  0.00    +0.279 C 
ATOM     18  O   UNL     1       0.002  -0.004   0.002  0.00  0.00    -0.479 OA
ENDBRANCH  11  18
BRANCH  15  19
ATOM     19  O   UNL     1      -4.631   0.205   0.037  0.00  0.00    -0.466 OA
ATOM     20  C   UNL     1      -4.469   1.624   0.038  0.00  0.00    +0.280 C 
ENDBRANCH  15  19
ENDBRANCH  10  13
ENDBRANCH   7  10
ENDBRANCH   1   7
BRANCH   4  21
ATOM     21  N   UNL     1      -3.291 -10.585   0.013  0.00  0.00    -0.320 N 
ATOM     22  H   UNL     1      -3.226 -11.063  -0.829  0.00  0.00    +0.152 HD
BRANCH  21  23
ATOM     23  C   UNL     1      -3.192 -11.259   1.187  0.00  0.00    +0.088 C 
ATOM     24  C   UNL     1      -2.997 -12.627   1.183  0.00  0.00    +0.090 C 
BRANCH  24  25
ATOM     25  C   UNL     1      -2.889 -13.359   2.458  0.00  0.00    +0.233 A 
ATOM     26  N   UNL     1      -2.969 -12.814   3.647  0.00  0.00    -0.209 NA
ATOM     27  C   UNL     1      -2.826 -13.788   4.584  0.00  0.00    +0.111 A 
ATOM     28  C   UNL     1      -2.825 -13.789   5.981  0.00  0.00    +0.051 A 
ATOM     29  C   UNL     1      -2.651 -14.973   6.663  0.00  0.00    +0.043 A 
ATOM     30  C   UNL     1      -2.477 -16.163   5.970  0.00  0.00    +0.024 A 
ATOM     31  C   UNL     1      -2.475 -16.176   4.590  0.00  0.00    +0.050 A 
ATOM     32  C   UNL     1      -2.649 -14.994   3.888  0.00  0.00    +0.156 A 
ATOM     33  O   UNL     1      -2.700 -14.687   2.571  0.00  0.00    -0.435 OA
ATOM     34 CL   UNL     1      -2.648 -14.977   8.399  0.00  0.00    -0.083 Cl
ENDBRANCH  24  25
BRANCH  24  35
ATOM     35  C   UNL     1      -2.902 -13.325  -0.044  0.00  0.00    +0.265 C 
ATOM     36  O   UNL     1      -2.731 -14.527  -0.047  0.00  0.00    -0.295 OA
ENDBRANCH  24  35
ENDBRANCH  21  23
ENDBRANCH   4  21
TORSDOF 9
