REMARK  Name = ZINC13983513
REMARK  11 active torsions:
REMARK  status: ('A' for Active; 'I' for Inactive)
REMARK    1  A    between atoms: C_1  and  C_2
REMARK    2  A    between atoms: C_2  and  C_3
REMARK    3  A    between atoms: C_3  and  C_5
REMARK    4  A    between atoms: C_3  and  C_6
REMARK    5  A    between atoms: C_9  and  O_12
REMARK    6  A    between atoms: O_12  and  C_13
REMARK    7  A    between atoms: C_13  and  C_14
REMARK    8  A    between atoms: N_16  and  N_17
REMARK    9  A    between atoms: N_17  and  C_18
REMARK   10  A    between atoms: C_18  and  N_20
REMARK   11  A    between atoms: C_21  and  C_23
REMARK                            x       y       z     vdW  Elec       q    Type
REMARK                         _______ _______ _______ _____ _____    ______ ____
ROOT
ATOM      1  C   UNL     1       3.518  -1.061  -0.037  0.00  0.00    +0.267 C 
ATOM      2  O   UNL     1       4.560  -0.441  -0.044  0.00  0.00    -0.271 OA
ATOM      3  N   UNL     1       2.342  -0.403  -0.022  0.00  0.00    -0.232 N 
ATOM      4  H   UNL     1       1.509  -0.900  -0.017  0.00  0.00    +0.173 HD
ENDROOT
BRANCH   3   5
ATOM      5  N   UNL     1       2.323   0.998  -0.015  0.00  0.00    -0.245 N 
ATOM      6  H   UNL     1       3.156   1.494  -0.020  0.00  0.00    +0.172 HD
BRANCH   5   7
ATOM      7  C   UNL     1       1.147   1.655   0.000  0.00  0.00    +0.153 C 
ATOM      8  S   UNL     1       1.124   3.367   0.009  0.00  0.00    -0.017 S 
BRANCH   7   9
ATOM      9  N   UNL     1      -0.011   0.966   0.007  0.00  0.00    -0.263 N 
ATOM     10  C   UNL     1      -1.187   1.624   0.017  0.00  0.00    +0.251 C 
ATOM     11  O   UNL     1      -1.204   2.839   0.023  0.00  0.00    -0.270 OA
ATOM     12  H   UNL     1       0.002  -0.004   0.002  0.00  0.00    +0.157 HD
BRANCH  10  13
ATOM     13  C   UNL     1      -2.457   0.868   0.018  0.00  0.00    +0.050 A 
ATOM     14  C   UNL     1      -2.441  -0.528   0.005  0.00  0.00    +0.014 A 
ATOM     15  C   UNL     1      -3.630  -1.228   0.012  0.00  0.00    +0.001 A 
ATOM     16  C   UNL     1      -4.836  -0.550   0.022  0.00  0.00    +0.001 A 
ATOM     17  C   UNL     1      -4.859   0.833   0.030  0.00  0.00    +0.015 A 
ATOM     18  C   UNL     1      -3.677   1.546   0.028  0.00  0.00    +0.025 A 
ATOM     19  I   UNL     1      -3.714   3.641   0.039  0.00  0.00    -0.043 I 
ENDBRANCH  10  13
ENDBRANCH   7   9
ENDBRANCH   5   7
ENDBRANCH   3   5
BRANCH   1  20
ATOM     20  C   UNL     1       3.539  -2.568  -0.045  0.00  0.00    +0.326 C 
BRANCH  20  21
ATOM     21  O   UNL     1       4.892  -3.026  -0.061  0.00  0.00    -0.483 OA
BRANCH  21  25
ATOM     22  C   UNL     1       5.488  -7.108  -0.089  0.00  0.00    -0.044 A 
ATOM     23  C   UNL     1       6.574  -6.252  -0.094  0.00  0.00    +0.007 A 
ATOM     24  C   UNL     1       6.377  -4.885  -0.085  0.00  0.00    +0.046 A 
ATOM     25  C   UNL     1       5.088  -4.371  -0.070  0.00  0.00    +0.121 A 
ATOM     26  C   UNL     1       4.001  -5.232  -0.059  0.00  0.00    +0.046 A 
ATOM     27  C   UNL     1       4.203  -6.598  -0.073  0.00  0.00    +0.007 A 
BRANCH  22  28
ATOM     28  C   UNL     1       5.706  -8.599  -0.099  0.00  0.00    +0.016 C 
ATOM     29  C   UNL     1       5.054  -9.201  -1.345  0.00  0.00    +0.012 C 
BRANCH  28  31
ATOM     30  C   UNL     1       5.405 -10.708   1.206  0.00  0.00    +0.004 C 
ATOM     31  C   UNL     1       5.078  -9.215   1.153  0.00  0.00    +0.004 C 
ENDBRANCH  28  31
ENDBRANCH  22  28
ENDBRANCH  21  25
ENDBRANCH  20  21
ENDBRANCH   1  20
TORSDOF 9
