REMARK  Name = ZINC20827481
REMARK  14 active torsions:
REMARK  status: ('A' for Active; 'I' for Inactive)
REMARK    1  A    between atoms: C_1  and  C_2
REMARK    2  A    between atoms: C_2  and  C_4
REMARK    3  A    between atoms: C_2  and  S_17
REMARK    4  A    between atoms: N_6  and  N_7
REMARK    5  A    between atoms: C_8  and  C_9
REMARK    6  A    between atoms: N_12  and  C_14
REMARK    7  A    between atoms: C_14  and  C_15
REMARK    8  A    between atoms: C_14  and  C_16
REMARK    9  A    between atoms: S_17  and  C_18
REMARK   10  A    between atoms: C_21  and  C_26
REMARK   11  A    between atoms: N_22  and  C_23
REMARK   12  A    between atoms: C_23  and  C_24
REMARK   13  A    between atoms: C_26  and  N_27
REMARK   14  A    between atoms: N_27  and  C_28
REMARK                            x       y       z     vdW  Elec       q    Type
REMARK                         _______ _______ _______ _____ _____    ______ ____
ROOT
ATOM      1  S   UNL     1       0.879  -0.605   1.472  0.00  0.00    -0.073 S 
ENDROOT
BRANCH   1   2
ATOM      2  C   UNL     1       2.533  -0.042   1.241  0.00  0.00    +0.193 A 
ATOM      3  N   UNL     1       2.985   0.657   0.225  0.00  0.00    -0.122 NA
ATOM      4  N   UNL     1       4.239   0.893   0.382  0.00  0.00    -0.132 NA
ATOM      5  C   UNL     1       4.658   0.365   1.497  0.00  0.00    +0.152 A 
ATOM      6  N   UNL     1       3.585  -0.245   2.087  0.00  0.00    -0.301 N 
BRANCH   6   7
ATOM      7  C   UNL     1       3.570  -0.969   3.360  0.00  0.00    +0.152 C 
BRANCH   7   8
ATOM      8  C   UNL     1       3.880  -2.423   3.116  0.00  0.00    -0.013 C 
ATOM      9  C   UNL     1       4.866  -2.999   3.757  0.00  0.00    +0.005 C 
ENDBRANCH   7   8
ENDBRANCH   6   7
BRANCH   5  10
ATOM     10  C   UNL     1       6.063   0.421   2.039  0.00  0.00    +0.178 C 
BRANCH  10  11
ATOM     11  N   UNL     1       6.213   1.608   2.884  0.00  0.00    -0.337 N 
ATOM     12  H   UNL     1       5.463   2.209   3.015  0.00  0.00    +0.147 HD
BRANCH  11  13
ATOM     13  C   UNL     1       7.437   1.875   3.502  0.00  0.00    +0.027 A 
ATOM     14  C   UNL     1       8.515   1.019   3.311  0.00  0.00    +0.023 A 
ATOM     15  C   UNL     1       9.724   1.286   3.923  0.00  0.00    +0.002 A 
ATOM     16  C   UNL     1       9.862   2.404   4.725  0.00  0.00    +0.000 A 
ATOM     17  C   UNL     1       8.792   3.258   4.917  0.00  0.00    +0.002 A 
ATOM     18  C   UNL     1       7.582   3.000   4.303  0.00  0.00    +0.023 A 
ENDBRANCH  11  13
ENDBRANCH  10  11
ENDBRANCH   5  10
ENDBRANCH   1   2
BRANCH   1  20
ATOM     19  C   UNL     1      -0.019   1.526   0.010  0.00  0.00    +0.029 C 
ATOM     20  C   UNL     1       0.002  -0.004   0.002  0.00  0.00    +0.139 C 
BRANCH  20  21
ATOM     21  C   UNL     1      -1.412  -0.526   0.013  0.00  0.00    +0.245 C 
ATOM     22  O   UNL     1      -1.939  -0.827   1.063  0.00  0.00    -0.273 OA
ATOM     23  N   UNL     1      -2.090  -0.657  -1.144  0.00  0.00    -0.206 N 
ATOM     24  H   UNL     1      -1.669  -0.416  -1.984  0.00  0.00    +0.177 HD
BRANCH  23  25
ATOM     25  N   UNL     1      -3.405  -1.142  -1.134  0.00  0.00    -0.188 NA
ATOM     26  C   UNL     1      -4.058  -1.269  -2.248  0.00  0.00    +0.141 C 
BRANCH  26  27
ATOM     27  C   UNL     1      -5.442  -1.780  -2.238  0.00  0.00    +0.032 A 
ATOM     28  C   UNL     1      -6.184  -2.163  -1.100  0.00  0.00    +0.143 A 
ATOM     29  N   UNL     1      -7.363  -2.558  -1.498  0.00  0.00    -0.179 NA
ATOM     30  N   UNL     1      -7.430  -2.448  -2.892  0.00  0.00    -0.268 N 
ATOM     31  C   UNL     1      -6.253  -1.966  -3.337  0.00  0.00    +0.118 A 
BRANCH  30  32
ATOM     32  C   UNL     1      -8.584  -2.794  -3.725  0.00  0.00    +0.101 C 
ATOM     33  C   UNL     1      -9.417  -1.538  -3.989  0.00  0.00    +0.032 C 
ATOM     34  C   UNL     1      -8.098  -3.373  -5.055  0.00  0.00    +0.032 C 
ENDBRANCH  30  32
ENDBRANCH  26  27
ENDBRANCH  23  25
ENDBRANCH  20  21
ENDBRANCH   1  20
TORSDOF 11
