REMARK  Name = ZINC35746773
REMARK  21 active torsions:
REMARK  status: ('A' for Active; 'I' for Inactive)
REMARK    1  A    between atoms: C_1  and  C_2
REMARK    2  A    between atoms: C_8  and  C_19
REMARK    3  A    between atoms: C_12  and  C_13
REMARK    4  A    between atoms: C_13  and  O_15
REMARK    5  A    between atoms: O_15  and  C_16
REMARK    6  A    between atoms: C_16  and  C_17
REMARK    7  A    between atoms: C_19  and  N_20
REMARK    8  A    between atoms: N_20  and  C_21
REMARK    9  A    between atoms: N_20  and  C_26
REMARK   10  A    between atoms: C_21  and  C_22
REMARK   11  A    between atoms: C_22  and  C_23
REMARK   12  A    between atoms: C_23  and  C_24
REMARK   13  A    between atoms: C_23  and  C_25
REMARK   14  A    between atoms: C_26  and  C_27
REMARK   15  A    between atoms: C_27  and  C_29
REMARK   16  A    between atoms: C_27  and  O_35
REMARK   17  A    between atoms: C_29  and  O_30
REMARK   18  A    between atoms: O_30  and  C_31
REMARK   19  A    between atoms: C_31  and  C_32
REMARK   20  A    between atoms: C_31  and  C_33
REMARK   21  A    between atoms: C_31  and  C_34
REMARK                            x       y       z     vdW  Elec       q    Type
REMARK                         _______ _______ _______ _____ _____    ______ ____
ROOT
ATOM      1  C   UNL     1      -5.543  -1.333  -7.672  0.00  0.00    +0.046 C 
ATOM      2  C   UNL     1      -5.088  -2.554  -6.915  0.00  0.00    -0.015 A 
ATOM      3  C   UNL     1      -3.807  -2.598  -6.362  0.00  0.00    +0.076 A 
ATOM      4  C   UNL     1      -2.738  -1.574  -6.394  0.00  0.00    +0.260 A 
ATOM      5  O   UNL     1      -2.910  -0.509  -6.961  0.00  0.00    -0.267 OA
ATOM      6  N   UNL     1      -1.571  -1.850  -5.780  0.00  0.00    -0.312 N 
ATOM      7  H   UNL     1      -0.860  -1.190  -5.792  0.00  0.00    +0.170 HD
ATOM      8  C   UNL     1      -1.369  -3.031  -5.147  0.00  0.00    +0.094 A 
ATOM      9  N   UNL     1      -2.290  -3.955  -5.099  0.00  0.00    -0.229 NA
ATOM     10  C   UNL     1      -3.475  -3.786  -5.671  0.00  0.00    +0.116 A 
ATOM     11  S   UNL     1      -4.945  -4.771  -5.823  0.00  0.00    -0.062 S 
ATOM     12  C   UNL     1      -5.931  -3.617  -6.762  0.00  0.00    +0.102 A 
ENDROOT
BRANCH  12  13
ATOM     13  C   UNL     1      -7.303  -3.774  -7.251  0.00  0.00    +0.347 C 
ATOM     14  O   UNL     1      -7.828  -2.879  -7.885  0.00  0.00    -0.244 OA
BRANCH  13  15
ATOM     15  O   UNL     1      -7.983  -4.911  -6.998  0.00  0.00    -0.457 OA
BRANCH  15  16
ATOM     16  C   UNL     1      -9.316  -4.995  -7.505  0.00  0.00    +0.259 C 
BRANCH  16  17
ATOM     17  C   UNL     1      -9.914  -6.326  -7.128  0.00  0.00    +0.006 C 
ATOM     18  C   UNL     1     -11.134  -6.386  -6.655  0.00  0.00    +0.007 C 
ENDBRANCH  16  17
ENDBRANCH  15  16
ENDBRANCH  13  15
ENDBRANCH  12  13
BRANCH   8  19
ATOM     19  C   UNL     1      -0.043  -3.286  -4.478  0.00  0.00    -0.003 C 
BRANCH  19  20
ATOM     20  N   UNL     1       0.003  -4.671  -3.991  0.00  0.00    +0.386 N 
ATOM     21  H   UNL     1      -0.809  -4.853  -3.419  0.00  0.00    -0.081 HD
BRANCH  20  22
ATOM     22  C   UNL     1       1.219  -4.869  -3.191  0.00  0.00    -0.078 C 
BRANCH  22  23
ATOM     23  C   UNL     1       1.148  -4.003  -1.931  0.00  0.00    -0.016 C 
BRANCH  23  24
ATOM     24  C   UNL     1       2.350  -4.307  -1.035  0.00  0.00    -0.019 C 
ATOM     25  C   UNL     1       2.347  -3.355   0.162  0.00  0.00    +0.007 C 
ATOM     26  C   UNL     1       2.264  -5.752  -0.539  0.00  0.00    +0.007 C 
ENDBRANCH  23  24
ENDBRANCH  22  23
ENDBRANCH  20  22
BRANCH  20  27
ATOM     27  C   UNL     1       0.013  -5.592  -5.135  0.00  0.00    -0.044 C 
BRANCH  27  28
ATOM     28  C   UNL     1      -0.065  -7.034  -4.629  0.00  0.00    +0.124 C 
BRANCH  28  29
ATOM     29  O   UNL     1      -1.323  -7.245  -3.986  0.00  0.00    -0.391 OA
ATOM     30  H   UNL     1      -2.088  -7.102  -4.560  0.00  0.00    +0.210 HD
ENDBRANCH  28  29
BRANCH  28  31
ATOM     31  C   UNL     1       0.071  -7.997  -5.810  0.00  0.00    +0.189 C 
BRANCH  31  32
ATOM     32  O   UNL     1       0.115  -9.341  -5.327  0.00  0.00    -0.372 OA
BRANCH  32  33
ATOM     33  C   UNL     1       0.242 -10.325  -6.356  0.00  0.00    +0.061 C 
ATOM     34  C   UNL     1       1.536 -10.083  -7.135  0.00  0.00    +0.041 C 
ATOM     35  C   UNL     1       0.278 -11.719  -5.726  0.00  0.00    +0.041 C 
ATOM     36  C   UNL     1      -0.952 -10.225  -7.307  0.00  0.00    +0.041 C 
ENDBRANCH  32  33
ENDBRANCH  31  32
ENDBRANCH  28  31
ENDBRANCH  27  28
ENDBRANCH  20  27
ENDBRANCH  19  20
ENDBRANCH   8  19
TORSDOF 15
