REMARK  Name = ZINC17908808
REMARK  7 active torsions:
REMARK  status: ('A' for Active; 'I' for Inactive)
REMARK    1  A    between atoms: C_3  and  S_12
REMARK    2  A    between atoms: C_6  and  O_7
REMARK    3  A    between atoms: O_7  and  C_8
REMARK    4  A    between atoms: S_12  and  N_15
REMARK    5  A    between atoms: C_21  and  C_23
REMARK    6  A    between atoms: C_26  and  N_32
REMARK    7  A    between atoms: C_27  and  N_29
REMARK                            x       y       z     vdW  Elec       q    Type
REMARK                         _______ _______ _______ _____ _____    ______ ____
ROOT
ATOM      1  N   UNL     1      -0.468   1.820  -1.927  0.00  0.00    -0.174 NA
ATOM      2  C   UNL     1      -1.457   0.915  -2.530  0.00  0.00    +0.128 C 
ATOM      3  C   UNL     1      -2.859   1.504  -2.301  0.00  0.00    +0.125 C 
ATOM      4  N   UNL     1      -2.846   2.915  -2.713  0.00  0.00    -0.295 N 
ATOM      5  C   UNL     1      -1.855   3.819  -2.114  0.00  0.00    +0.125 C 
ATOM      6  C   UNL     1      -0.456   3.231  -2.339  0.00  0.00    +0.128 C 
ATOM      7  C   UNL     1      -3.729   3.371  -3.624  0.00  0.00    +0.247 C 
ATOM      8  O   UNL     1      -3.760   4.554  -3.901  0.00  0.00    -0.270 OA
ENDROOT
BRANCH   7   9
ATOM      9  C   UNL     1      -4.657   2.434  -4.285  0.00  0.00    +0.039 A 
ATOM     10  C   UNL     1      -4.844   2.494  -5.670  0.00  0.00    +0.015 A 
ATOM     11  C   UNL     1      -5.706   1.615  -6.284  0.00  0.00    +0.026 A 
ATOM     12  C   UNL     1      -6.400   0.674  -5.528  0.00  0.00    +0.055 A 
ATOM     13  C   UNL     1      -6.220   0.616  -4.149  0.00  0.00    +0.147 A 
ATOM     14  C   UNL     1      -5.355   1.488  -3.529  0.00  0.00    +0.047 A 
BRANCH  13  15
ATOM     15  N   UNL     1      -6.960  -0.386  -3.349  0.00  0.00    +0.058 N 
ATOM     16  O   UNL     1      -6.889  -0.366  -2.133  0.00  0.00    -0.126 OA
ATOM     17  O   UNL     1      -7.639  -1.229  -3.906  0.00  0.00    -0.126 OA
ENDBRANCH  13  15
BRANCH  12  18
ATOM     18  N   UNL     1      -7.275  -0.208  -6.152  0.00  0.00    -0.356 N 
ATOM     19  H   UNL     1      -8.008  -0.600  -5.651  0.00  0.00    +0.142 HD
ATOM     20  H   UNL     1      -7.153  -0.432  -7.087  0.00  0.00    +0.142 HD
ENDBRANCH  12  18
ENDBRANCH   7   9
BRANCH   1  21
ATOM     21  S   UNL     1       0.617   1.260  -0.808  0.00  0.00    +0.061 S 
ATOM     22  O   UNL     1       0.742  -0.139  -1.030  0.00  0.00    -0.153 OA
ATOM     23  O   UNL     1       1.731   2.140  -0.847  0.00  0.00    -0.153 OA
BRANCH  21  26
ATOM     24  C   UNL     1      -1.472   0.583   2.556  0.00  0.00    +0.048 A 
ATOM     25  C   UNL     1      -0.890   0.433   1.312  0.00  0.00    +0.032 A 
ATOM     26  C   UNL     1      -0.124   1.454   0.778  0.00  0.00    +0.106 A 
ATOM     27  C   UNL     1       0.066   2.623   1.490  0.00  0.00    +0.032 A 
ATOM     28  C   UNL     1      -0.518   2.780   2.732  0.00  0.00    +0.048 A 
ATOM     29  C   UNL     1      -1.287   1.758   3.270  0.00  0.00    +0.130 A 
BRANCH  29  30
ATOM     30  O   UNL     1      -1.859   1.908   4.494  0.00  0.00    -0.406 OA
BRANCH  30  31
ATOM     31  C   UNL     1      -1.626   3.144   5.172  0.00  0.00    +0.575 C 
ATOM     32  F   UNL     1      -2.116   4.201   4.396  0.00  0.00    -0.133 F 
ATOM     33  F   UNL     1      -2.282   3.129   6.407  0.00  0.00    -0.133 F 
ATOM     34  F   UNL     1      -0.252   3.313   5.375  0.00  0.00    -0.133 F 
ENDBRANCH  30  31
ENDBRANCH  29  30
ENDBRANCH  21  26
ENDBRANCH   1  21
TORSDOF 7
