REMARK  Name = ZINC22698229
REMARK  12 active torsions:
REMARK  status: ('A' for Active; 'I' for Inactive)
REMARK    1  A    between atoms: C_1  and  C_2
REMARK    2  A    between atoms: C_2  and  O_3
REMARK    3  A    between atoms: O_3  and  C_4
REMARK    4  A    between atoms: C_4  and  C_6
REMARK    5  A    between atoms: C_7  and  C_31
REMARK    6  A    between atoms: C_8  and  C_27
REMARK    7  A    between atoms: C_10  and  N_11
REMARK    8  A    between atoms: C_12  and  C_14
REMARK    9  A    between atoms: C_14  and  O_15
REMARK   10  A    between atoms: O_15  and  C_16
REMARK   11  A    between atoms: C_19  and  C_22
REMARK   12  A    between atoms: N_29  and  C_30
REMARK                            x       y       z     vdW  Elec       q    Type
REMARK                         _______ _______ _______ _____ _____    ______ ____
ROOT
ATOM      1  N   UNL     1       0.002  -0.004   0.002  0.00  0.00    -0.277 N 
ATOM      2  C   UNL     1      -1.156  -0.694   0.009  0.00  0.00    +0.255 C 
ATOM      3  O   UNL     1      -2.214  -0.102   0.023  0.00  0.00    -0.272 OA
ATOM      4  H   UNL     1       0.962  -0.541  -0.010  0.00  0.00    +0.155 HD
ENDROOT
BRANCH   1   9
ATOM      5  C   UNL     1       1.065   2.264   0.004  0.00  0.00    +0.091 A 
ATOM      6  C   UNL     1       0.786   3.622   0.013  0.00  0.00    -0.015 A 
ATOM      7  C   UNL     1      -0.528   4.001   0.028  0.00  0.00    +0.079 A 
ATOM      8  S   UNL     1      -1.387   2.439   0.021  0.00  0.00    -0.068 S 
ATOM      9  C   UNL     1      -0.017   1.377   0.010  0.00  0.00    +0.087 A 
ATOM     10  C   UNL     1       1.893   4.645   0.009  0.00  0.00    +0.046 C 
BRANCH   7  11
ATOM     11  C   UNL     1      -1.090   5.353   0.040  0.00  0.00    +0.251 C 
ATOM     12  O   UNL     1      -0.350   6.320   0.038  0.00  0.00    -0.270 OA
ATOM     13  N   UNL     1      -2.426   5.527   0.053  0.00  0.00    -0.314 N 
ATOM     14  C   UNL     1      -2.989   6.880   0.065  0.00  0.00    +0.128 C 
ATOM     15  H   UNL     1      -3.095   4.654   0.055  0.00  0.00    +0.149 HD
ENDBRANCH   7  11
BRANCH   5  16
ATOM     16  C   UNL     1       2.448   1.773  -0.011  0.00  0.00    +0.342 C 
ATOM     17  O   UNL     1       3.012   1.575  -1.070  0.00  0.00    -0.245 OA
BRANCH  16  18
ATOM     18  O   UNL     1       3.094   1.542   1.150  0.00  0.00    -0.461 OA
BRANCH  18  20
ATOM     19  C   UNL     1       5.023   0.854   2.467  0.00  0.00    +0.048 C 
ATOM     20  C   UNL     1       4.460   1.057   1.059  0.00  0.00    +0.229 C 
ENDBRANCH  18  20
ENDBRANCH  16  18
ENDBRANCH   5  16
ENDBRANCH   1   9
BRANCH   2  21
ATOM     21  C   UNL     1      -1.135  -2.201   0.001  0.00  0.00    +0.324 C 
BRANCH  21  22
ATOM     22  O   UNL     1      -2.476  -2.695   0.011  0.00  0.00    -0.483 OA
BRANCH  22  23
ATOM     23  C   UNL     1      -2.636  -4.044   0.005  0.00  0.00    +0.121 A 
ATOM     24  C   UNL     1      -1.522  -4.873  -0.015  0.00  0.00    +0.046 A 
ATOM     25  C   UNL     1      -1.679  -6.242  -0.015  0.00  0.00    +0.017 A 
ATOM     26  C   UNL     1      -2.961  -6.796  -0.006  0.00  0.00    +0.039 A 
ATOM     27  C   UNL     1      -4.079  -5.959   0.009  0.00  0.00    +0.017 A 
ATOM     28  C   UNL     1      -3.913  -4.590   0.015  0.00  0.00    +0.046 A 
BRANCH  26  29
ATOM     29  C   UNL     1      -3.135  -8.263  -0.011  0.00  0.00    +0.248 A 
ATOM     30  N   UNL     1      -4.276  -8.912   0.003  0.00  0.00    -0.108 NA
ATOM     31  N   UNL     1      -4.044 -10.178  -0.010  0.00  0.00    -0.116 NA
ATOM     32  C   UNL     1      -2.757 -10.385  -0.024  0.00  0.00    +0.332 A 
ATOM     33  O   UNL     1      -2.151  -9.185  -0.025  0.00  0.00    -0.423 OA
ENDBRANCH  26  29
ENDBRANCH  22  23
ENDBRANCH  21  22
ENDBRANCH   2  21
TORSDOF 9
