REMARK  Name = ZINC23055370
REMARK  6 active torsions:
REMARK  status: ('A' for Active; 'I' for Inactive)
REMARK    1  A    between atoms: C_4  and  N_7
REMARK    2  A    between atoms: C_8  and  C_10
REMARK    3  A    between atoms: C_17  and  C_19
REMARK    4  A    between atoms: C_19  and  C_20
REMARK    5  A    between atoms: C_20  and  N_21
REMARK    6  A    between atoms: N_24  and  C_25
REMARK                            x       y       z     vdW  Elec       q    Type
REMARK                         _______ _______ _______ _____ _____    ______ ____
ROOT
ATOM      1  C   UNL     1       2.448   1.219  -0.076  0.00  0.00    +0.093 C 
ATOM      2  C   UNL     1       3.462   2.339  -0.321  0.00  0.00    +0.016 C 
ATOM      3  C   UNL     1       4.881   1.782  -0.189  0.00  0.00    +0.020 C 
ATOM      4  C   UNL     1       5.099   0.693  -1.244  0.00  0.00    +0.108 C 
ATOM      5  N   UNL     1       4.039  -0.316  -1.108  0.00  0.00    -0.301 N 
ATOM      6  C   UNL     1       2.638   0.124  -1.130  0.00  0.00    +0.120 C 
ATOM      7  C   UNL     1       4.348  -1.620  -0.965  0.00  0.00    +0.217 C 
ATOM      8  O   UNL     1       3.464  -2.443  -0.853  0.00  0.00    -0.276 OA
ENDROOT
BRANCH   1  10
ATOM      9  N   UNL     1      -0.011   0.966   0.007  0.00  0.00    -0.285 N 
ATOM     10  C   UNL     1       1.051   1.776  -0.174  0.00  0.00    +0.222 C 
ATOM     11  O   UNL     1       0.882   2.952  -0.417  0.00  0.00    -0.275 OA
ATOM     12  H   UNL     1       0.139  -0.115   0.144  0.00  0.00    +0.155 HD
BRANCH   9  16
ATOM     13  C   UNL     1      -3.861   2.558   0.050  0.00  0.00    +0.000 A 
ATOM     14  C   UNL     1      -3.644   1.290  -0.457  0.00  0.00    +0.002 A 
ATOM     15  C   UNL     1      -2.369   0.759  -0.472  0.00  0.00    +0.023 A 
ATOM     16  C   UNL     1      -1.304   1.500   0.022  0.00  0.00    +0.033 A 
ATOM     17  C   UNL     1      -1.526   2.771   0.536  0.00  0.00    +0.023 A 
ATOM     18  C   UNL     1      -2.802   3.299   0.543  0.00  0.00    +0.002 A 
ENDBRANCH   9  16
ENDBRANCH   1  10
BRANCH   7  19
ATOM     19  C   UNL     1       5.790  -2.055  -0.945  0.00  0.00    +0.114 C 
BRANCH  19  20
ATOM     20  C   UNL     1       5.862  -3.574  -0.773  0.00  0.00    +0.115 C 
BRANCH  20  21
ATOM     21  N   UNL     1       7.265  -3.997  -0.753  0.00  0.00    -0.299 N 
ATOM     22  C   UNL     1       7.573  -5.302  -0.610  0.00  0.00    +0.300 C 
ATOM     23  O   UNL     1       6.687  -6.127  -0.498  0.00  0.00    -0.253 OA
ATOM     24  N   UNL     1       8.863  -5.691  -0.591  0.00  0.00    -0.297 N 
ATOM     25  H   UNL     1       8.066  -3.251  -0.854  0.00  0.00    +0.150 HD
ATOM     26  H   UNL     1       9.664  -4.944  -0.693  0.00  0.00    +0.151 HD
BRANCH  24  27
ATOM     27  C   UNL     1       9.198  -7.109  -0.436  0.00  0.00    +0.074 C 
ATOM     28  C   UNL     1       9.221  -7.468   1.051  0.00  0.00    +0.022 C 
ATOM     29  C   UNL     1       9.571  -8.948   1.213  0.00  0.00    +0.002 C 
ATOM     30  C   UNL     1      10.948  -9.217   0.602  0.00  0.00    +0.000 C 
ATOM     31  C   UNL     1      10.925  -8.858  -0.885  0.00  0.00    +0.002 C 
ATOM     32  C   UNL     1      10.575  -7.377  -1.047  0.00  0.00    +0.022 C 
ENDBRANCH  24  27
ENDBRANCH  20  21
ENDBRANCH  19  20
ENDBRANCH   7  19
TORSDOF 6
