REMARK  Name = ZINC66280012
REMARK  5 active torsions:
REMARK  status: ('A' for Active; 'I' for Inactive)
REMARK    1  A    between atoms: C_1  and  C_2
REMARK    2  A    between atoms: N_11  and  C_15
REMARK    3  A    between atoms: C_15  and  C_16
REMARK    4  A    between atoms: C_16  and  O_18
REMARK    5  A    between atoms: O_18  and  C_19
REMARK                            x       y       z     vdW  Elec       q    Type
REMARK                         _______ _______ _______ _____ _____    ______ ____
ROOT
ATOM      1  C   UNL     1      -0.019   1.526   0.010  0.00  0.00    +0.010 C 
ATOM      2  C   UNL     1       0.002  -0.004   0.002  0.00  0.00    +0.018 C 
ATOM      3  C   UNL     1      -1.434  -0.534   0.012  0.00  0.00    +0.006 C 
ATOM      4  C   UNL     1      -1.412  -2.064   0.024  0.00  0.00    +0.000 C 
ATOM      5  C   UNL     1      -0.687  -2.556   1.279  0.00  0.00    +0.003 C 
ATOM      6  C   UNL     1       0.752  -2.033   1.273  0.00  0.00    +0.035 C 
ATOM      7  C   UNL     1       0.740  -0.509   1.237  0.00  0.00    +0.115 C 
ATOM      8  C   UNL     1       2.151   0.030   1.266  0.00  0.00    +0.247 C 
ATOM      9  O   UNL     1       3.026  -0.158   0.448  0.00  0.00    -0.273 OA
ATOM     10  N   UNL     1       2.233   0.767   2.394  0.00  0.00    -0.213 N 
ATOM     11  C   UNL     1       1.077   0.763   3.069  0.00  0.00    +0.310 C 
ATOM     12  O   UNL     1       0.904   1.356   4.116  0.00  0.00    -0.252 OA
ATOM     13  N   UNL     1       0.127   0.030   2.458  0.00  0.00    -0.285 N 
ATOM     14  H   UNL     1      -0.782  -0.114   2.764  0.00  0.00    +0.151 HD
ENDROOT
BRANCH  10  15
ATOM     15  C   UNL     1       3.436   1.482   2.825  0.00  0.00    +0.238 C 
BRANCH  15  16
ATOM     16  C   UNL     1       3.425   2.876   2.253  0.00  0.00    +0.325 C 
ATOM     17  O   UNL     1       2.506   3.236   1.556  0.00  0.00    -0.249 OA
BRANCH  16  18
ATOM     18  O   UNL     1       4.436   3.718   2.518  0.00  0.00    -0.460 OA
BRANCH  18  19
ATOM     19  C   UNL     1       4.361   5.024   1.943  0.00  0.00    +0.176 C 
ATOM     20  C   UNL     1       4.978   4.984   0.530  0.00  0.00    +0.044 C 
ATOM     21  C   UNL     1       4.458   6.160  -0.252  0.00  0.00    +0.004 C 
ATOM     22  C   UNL     1       5.402   7.376  -0.185  0.00  0.00    +0.000 C 
ATOM     23  C   UNL     1       5.979   7.607   1.224  0.00  0.00    +0.000 C 
ATOM     24  C   UNL     1       4.951   7.417   2.306  0.00  0.00    +0.004 C 
ATOM     25  C   UNL     1       5.042   5.965   2.819  0.00  0.00    +0.044 C 
ENDBRANCH  18  19
ENDBRANCH  16  18
ENDBRANCH  15  16
ENDBRANCH  10  15
TORSDOF 4
