REMARK  Name = ZINC39668139
REMARK  4 active torsions:
REMARK  status: ('A' for Active; 'I' for Inactive)
REMARK    1  A    between atoms: C_6  and  C_7
REMARK    2  A    between atoms: C_7  and  N_8
REMARK    3  A    between atoms: C_9  and  C_11
REMARK    4  A    between atoms: C_22  and  C_24
REMARK                            x       y       z     vdW  Elec       q    Type
REMARK                         _______ _______ _______ _____ _____    ______ ____
ROOT
ATOM      1  C   UNL     1      -3.310  -1.916  -3.703  0.00  0.00    +0.100 C 
ATOM      2  C   UNL     1      -2.105  -2.772  -4.154  0.00  0.00    +0.121 C 
ATOM      3  N   UNL     1      -2.548  -4.173  -3.962  0.00  0.00    -0.296 N 
ATOM      4  C   UNL     1      -3.968  -4.173  -4.389  0.00  0.00    +0.115 C 
ATOM      5  C   UNL     1      -4.531  -2.838  -3.861  0.00  0.00    -0.004 C 
ATOM      6  C   UNL     1      -5.513  -2.245  -4.867  0.00  0.00    -0.010 C 
ATOM      7  C   UNL     1      -6.745  -3.150  -4.965  0.00  0.00    -0.082 C 
ATOM      8  N   UNL     1      -7.375  -3.265  -3.644  0.00  0.00    +0.379 N 
ATOM      9  C   UNL     1      -6.456  -3.921  -2.706  0.00  0.00    -0.082 C 
ATOM     10  C   UNL     1      -5.212  -3.050  -2.513  0.00  0.00    -0.010 C 
ATOM     11  C   UNL     1      -1.823  -5.212  -3.503  0.00  0.00    +0.247 C 
ATOM     12  O   UNL     1      -0.702  -5.028  -3.071  0.00  0.00    -0.270 OA
ATOM     13  H   UNL     1      -7.604  -2.345  -3.300  0.00  0.00    -0.086 HD
ATOM     14  H   UNL     1      -8.220  -3.812  -3.723  0.00  0.00    -0.086 HD
ENDROOT
BRANCH  11  15
ATOM     15  C   UNL     1      -2.392  -6.576  -3.523  0.00  0.00    +0.038 A 
ATOM     16  C   UNL     1      -3.452  -6.880  -4.380  0.00  0.00    +0.014 A 
ATOM     17  C   UNL     1      -3.979  -8.154  -4.396  0.00  0.00    +0.022 A 
ATOM     18  C   UNL     1      -3.460  -9.132  -3.563  0.00  0.00    +0.059 A 
ATOM     19  C   UNL     1      -2.409  -8.836  -2.710  0.00  0.00    +0.060 A 
ATOM     20  C   UNL     1      -1.869  -7.566  -2.690  0.00  0.00    +0.034 A 
ATOM     21 CL   UNL     1      -1.765 -10.068  -1.669  0.00  0.00    -0.082 Cl
ATOM     22 CL   UNL     1      -4.130 -10.733  -3.587  0.00  0.00    -0.082 Cl
ENDBRANCH  11  15
BRANCH   1  24
ATOM     23  N   UNL     1      -3.785  -0.407  -1.801  0.00  0.00    -0.311 N 
ATOM     24  C   UNL     1      -3.149  -1.502  -2.262  0.00  0.00    +0.218 C 
ATOM     25  O   UNL     1      -2.448  -2.155  -1.518  0.00  0.00    -0.275 OA
ATOM     26  H   UNL     1      -4.346   0.115  -2.396  0.00  0.00    +0.149 HD
BRANCH  23  27
ATOM     27  C   UNL     1      -3.629  -0.004  -0.401  0.00  0.00    +0.139 C 
BRANCH  27  33
ATOM     28  C   UNL     1      -5.751   1.142   0.274  0.00  0.00    +0.009 A 
ATOM     29  C   UNL     1      -6.493   2.280   0.515  0.00  0.00    +0.046 A 
ATOM     30  C   UNL     1      -5.925   3.539   0.340  0.00  0.00    +0.124 A 
ATOM     31  C   UNL     1      -4.606   3.626  -0.088  0.00  0.00    -0.002 A 
ATOM     32  C   UNL     1      -3.865   2.489  -0.323  0.00  0.00    +0.012 A 
ATOM     33  C   UNL     1      -4.436   1.242  -0.143  0.00  0.00    -0.030 A 
ATOM     34  C   UNL     1      -4.275   5.101  -0.211  0.00  0.00    +0.080 C 
ATOM     35  C   UNL     1      -5.680   5.747  -0.184  0.00  0.00    +0.234 C 
ATOM     36  O   UNL     1      -6.464   4.774   0.529  0.00  0.00    -0.491 OA
ENDBRANCH  27  33
ENDBRANCH  23  27
ENDBRANCH   1  24
TORSDOF 4
