REMARK  Name = ZINC38701670
REMARK  7 active torsions:
REMARK  status: ('A' for Active; 'I' for Inactive)
REMARK    1  A    between atoms: C_4  and  C_7
REMARK    2  A    between atoms: C_7  and  O_8
REMARK    3  A    between atoms: O_8  and  C_9
REMARK    4  A    between atoms: C_12  and  C_15
REMARK    5  A    between atoms: C_18  and  C_34
REMARK    6  A    between atoms: N_25  and  C_26
REMARK    7  A    between atoms: C_39  and  O_40
REMARK                            x       y       z     vdW  Elec       q    Type
REMARK                         _______ _______ _______ _____ _____    ______ ____
ROOT
ATOM      1  C   UNL     1       8.727  -3.322   2.203  0.00  0.00    +0.142 C 
ATOM      2  C   UNL     1      10.008  -2.542   2.321  0.00  0.00    +0.035 A 
ATOM      3  C   UNL     1      10.878  -1.609   1.746  0.00  0.00    +0.102 A 
ATOM      4  N   UNL     1      11.889  -1.448   2.577  0.00  0.00    -0.173 NA
ATOM      5  N   UNL     1      11.743  -2.186   3.620  0.00  0.00    -0.272 N 
ATOM      6  H   UNL     1      12.365  -2.229   4.363  0.00  0.00    +0.189 HD
ATOM      7  C   UNL     1      10.582  -2.900   3.525  0.00  0.00    +0.126 A 
ATOM      8  C   UNL     1       9.713  -3.883   4.182  0.00  0.00    +0.266 C 
ATOM      9  O   UNL     1       9.939  -4.397   5.261  0.00  0.00    -0.268 OA
ATOM     10  N   UNL     1       8.632  -4.136   3.421  0.00  0.00    -0.280 N 
ENDROOT
BRANCH  10  11
ATOM     11  C   UNL     1       7.546  -5.063   3.752  0.00  0.00    +0.100 C 
ATOM     12  C   UNL     1       6.894  -4.647   5.081  0.00  0.00    +0.047 C 
ATOM     13  C   UNL     1       5.977  -5.781   5.597  0.00  0.00    +0.168 C 
ATOM     14  S   UNL     1       6.761  -7.287   4.890  0.00  0.00    -0.029 S 
ATOM     15  O   UNL     1       7.331  -8.050   5.945  0.00  0.00    -0.174 OA
ATOM     16  O   UNL     1       5.848  -7.907   3.994  0.00  0.00    -0.174 OA
ATOM     17  C   UNL     1       8.115  -6.500   3.921  0.00  0.00    +0.188 C 
ENDBRANCH  10  11
BRANCH   1  21
ATOM     18  C   UNL     1       5.399  -0.653   1.952  0.00  0.00    +0.121 A 
ATOM     19  C   UNL     1       6.119  -0.757   3.134  0.00  0.00    +0.046 A 
ATOM     20  C   UNL     1       7.194  -1.621   3.212  0.00  0.00    +0.009 A 
ATOM     21  C   UNL     1       7.553  -2.381   2.115  0.00  0.00    -0.022 A 
ATOM     22  C   UNL     1       6.838  -2.279   0.936  0.00  0.00    +0.009 A 
ATOM     23  C   UNL     1       5.758  -1.422   0.854  0.00  0.00    +0.046 A 
BRANCH  18  24
ATOM     24  O   UNL     1       4.340   0.195   1.872  0.00  0.00    -0.487 OA
BRANCH  24  25
ATOM     25  C   UNL     1       4.028   0.955   3.042  0.00  0.00    +0.264 C 
BRANCH  25  29
ATOM     26  C   UNL     1       0.644   3.443   2.265  0.00  0.00    +0.000 A 
ATOM     27  C   UNL     1       0.463   2.166   2.763  0.00  0.00    +0.000 A 
ATOM     28  C   UNL     1       1.558   1.361   3.014  0.00  0.00    +0.007 A 
ATOM     29  C   UNL     1       2.834   1.832   2.767  0.00  0.00    -0.010 A 
ATOM     30  C   UNL     1       3.015   3.109   2.268  0.00  0.00    +0.007 A 
ATOM     31  C   UNL     1       1.920   3.915   2.018  0.00  0.00    +0.000 A 
ENDBRANCH  25  29
ENDBRANCH  24  25
ENDBRANCH  18  24
ENDBRANCH   1  21
BRANCH   3  32
ATOM     32  C   UNL     1      10.697  -0.927   0.441  0.00  0.00    +0.044 A 
ATOM     33  C   UNL     1       9.641  -1.284  -0.395  0.00  0.00    +0.014 A 
ATOM     34  C   UNL     1       9.477  -0.647  -1.608  0.00  0.00    +0.001 A 
ATOM     35  C   UNL     1      10.358   0.346  -1.998  0.00  0.00    +0.004 A 
ATOM     36  C   UNL     1      11.409   0.708  -1.177  0.00  0.00    +0.046 A 
ATOM     37  C   UNL     1      11.582   0.081   0.046  0.00  0.00    +0.126 A 
BRANCH  37  38
ATOM     38  O   UNL     1      12.611   0.440   0.857  0.00  0.00    -0.506 OA
ATOM     39  H   UNL     1      13.425  -0.061   0.705  0.00  0.00    +0.292 HD
ENDBRANCH  37  38
ENDBRANCH   3  32
TORSDOF 7
