REMARK  Name = ZINC06163031
REMARK  7 active torsions:
REMARK  status: ('A' for Active; 'I' for Inactive)
REMARK    1  A    between atoms: C_3  and  C_10
REMARK    2  A    between atoms: C_5  and  N_7
REMARK    3  A    between atoms: C_10  and  C_12
REMARK    4  A    between atoms: C_10  and  N_15
REMARK    5  A    between atoms: C_12  and  C_13
REMARK    6  A    between atoms: N_15  and  S_16
REMARK    7  A    between atoms: S_16  and  C_19
REMARK                            x       y       z     vdW  Elec       q    Type
REMARK                         _______ _______ _______ _____ _____    ______ ____
ROOT
ATOM      1  C   UNL     1       2.141  -2.568  -2.518  0.00  0.00    +0.117 C 
ENDROOT
BRANCH   1   4
ATOM      2  C   UNL     1       1.308  -5.039  -5.248  0.00  0.00    +0.003 A 
ATOM      3  C   UNL     1       1.170  -4.101  -4.241  0.00  0.00    +0.005 A 
ATOM      4  C   UNL     1       2.291  -3.590  -3.615  0.00  0.00    -0.026 A 
ATOM      5  C   UNL     1       3.550  -4.014  -3.998  0.00  0.00    +0.038 A 
ATOM      6  C   UNL     1       3.688  -4.955  -5.000  0.00  0.00    +0.127 A 
ATOM      7  C   UNL     1       2.566  -5.466  -5.627  0.00  0.00    +0.033 A 
BRANCH   6   8
ATOM      8  N   UNL     1       5.036  -5.412  -5.406  0.00  0.00    +0.056 N 
ATOM      9  O   UNL     1       5.157  -6.239  -6.293  0.00  0.00    -0.126 OA
ATOM     10  O   UNL     1       6.024  -4.963  -4.854  0.00  0.00    -0.126 OA
ENDBRANCH   6   8
ENDBRANCH   1   4
BRANCH   1  11
ATOM     11  N   UNL     1       1.001  -2.924  -1.670  0.00  0.00    -0.182 NA
ATOM     12  H   UNL     1       0.108  -2.629  -1.909  0.00  0.00    +0.149 HD
BRANCH  11  13
ATOM     13  S   UNL     1       1.236  -3.831  -0.305  0.00  0.00    +0.059 S 
ATOM     14  O   UNL     1       2.006  -4.960  -0.694  0.00  0.00    -0.153 OA
ATOM     15  O   UNL     1      -0.032  -3.954   0.325  0.00  0.00    -0.153 OA
BRANCH  13  16
ATOM     16  C   UNL     1       2.248  -2.882   0.783  0.00  0.00    +0.105 A 
ATOM     17  C   UNL     1       1.669  -1.966   1.641  0.00  0.00    +0.029 A 
ATOM     18  C   UNL     1       2.462  -1.222   2.494  0.00  0.00    +0.017 A 
ATOM     19  C   UNL     1       3.835  -1.394   2.489  0.00  0.00    +0.018 A 
ATOM     20  C   UNL     1       4.413  -2.311   1.629  0.00  0.00    +0.017 A 
ATOM     21  C   UNL     1       3.619  -3.054   0.777  0.00  0.00    +0.029 A 
ATOM     22 BR   UNL     1       4.920  -0.377   3.656  0.00  0.00    -0.050 Br
ENDBRANCH  13  16
ENDBRANCH  11  13
ENDBRANCH   1  11
BRANCH   1  23
ATOM     23  C   UNL     1       1.905  -1.188  -3.136  0.00  0.00    +0.150 C 
BRANCH  23  24
ATOM     24  C   UNL     1       1.896  -0.145  -2.049  0.00  0.00    +0.358 C 
ATOM     25  O   UNL     1       2.166  -0.455  -0.912  0.00  0.00    -0.246 OA
ATOM     26  O   UNL     1       1.589   1.128  -2.342  0.00  0.00    -0.246 OA
ENDBRANCH  23  24
ENDBRANCH   1  23
TORSDOF 7
