REMARK  Name = ZINC07435588
REMARK  5 active torsions:
REMARK  status: ('A' for Active; 'I' for Inactive)
REMARK    1  A    between atoms: C_8  and  C_10
REMARK    2  A    between atoms: C_13  and  C_16
REMARK    3  A    between atoms: C_21  and  C_23
REMARK    4  A    between atoms: C_23  and  N_55
REMARK    5  A    between atoms: C_26  and  C_29
REMARK                            x       y       z     vdW  Elec       q    Type
REMARK                         _______ _______ _______ _____ _____    ______ ____
ROOT
ATOM      1  C   UNL     1       0.907  -5.920   2.637  0.00  0.00    +0.104 C 
ATOM      2  N   UNL     1       0.773  -4.747   2.115  0.00  0.00    -0.178 NA
ATOM      3  N   UNL     1       1.216  -3.708   2.931  0.00  0.00    -0.184 N 
ATOM      4  C   UNL     1       1.714  -4.274   4.195  0.00  0.00    +0.173 C 
ATOM      5  C   UNL     1       1.512  -5.792   4.017  0.00  0.00    +0.093 C 
ATOM      6  C   UNL     1       1.189  -2.398   2.616  0.00  0.00    +0.219 C 
ATOM      7  O   UNL     1       1.598  -1.575   3.408  0.00  0.00    -0.276 OA
ENDROOT
BRANCH   1  15
ATOM      8  C   UNL     1      -0.814 -10.841  -0.411  0.00  0.00    +0.001 A 
ATOM      9  C   UNL     1      -0.371 -11.475   0.741  0.00  0.00    +0.004 A 
ATOM     10  C   UNL     1       0.142 -10.746   1.793  0.00  0.00    +0.047 A 
ATOM     11  C   UNL     1       0.219  -9.362   1.703  0.00  0.00    +0.136 A 
ATOM     12  C   UNL     1      -0.232  -8.725   0.533  0.00  0.00    +0.021 A 
ATOM     13  C   UNL     1      -0.749  -9.480  -0.522  0.00  0.00    +0.011 A 
ATOM     14  C   UNL     1      -0.023  -7.294   0.755  0.00  0.00    +0.059 A 
ATOM     15  C   UNL     1       0.526  -7.182   1.994  0.00  0.00    +0.152 A 
ATOM     16  O   UNL     1       0.660  -8.405   2.545  0.00  0.00    -0.454 OA
ENDBRANCH   1  15
BRANCH   4  17
ATOM     17  C   UNL     1       3.173  -3.949   4.384  0.00  0.00    +0.128 A 
ATOM     18  C   UNL     1       3.762  -3.625   5.549  0.00  0.00    +0.046 A 
ATOM     19  C   UNL     1       5.130  -3.401   5.268  0.00  0.00    +0.041 A 
ATOM     20  C   UNL     1       5.294  -3.601   3.948  0.00  0.00    +0.195 A 
ATOM     21  O   UNL     1       4.106  -3.938   3.419  0.00  0.00    -0.466 OA
ENDBRANCH   4  17
BRANCH   6  22
ATOM     22  C   UNL     1       0.651  -1.955   1.280  0.00  0.00    +0.021 C 
BRANCH  22  28
ATOM     23  C   UNL     1       0.002  -0.004   0.002  0.00  0.00    -0.077 C 
ATOM     24  C   UNL     1      -0.019   1.526   0.010  0.00  0.00    -0.006 C 
ATOM     25  C   UNL     1       1.420   2.051  -0.001  0.00  0.00    +0.071 C 
ATOM     26  C   UNL     1       2.169   1.490   1.211  0.00  0.00    -0.006 C 
ATOM     27  C   UNL     1       2.126  -0.039   1.168  0.00  0.00    -0.077 C 
ATOM     28  N   UNL     1       0.716  -0.481   1.206  0.00  0.00    +0.385 N 
ATOM     29  H   UNL     1       0.265  -0.085   2.039  0.00  0.00    -0.081 HD
BRANCH  25  30
ATOM     30  C   UNL     1       1.407   3.557   0.068  0.00  0.00    +0.213 C 
ATOM     31  O   UNL     1       0.351   4.152   0.121  0.00  0.00    -0.276 OA
ATOM     32  N   UNL     1       2.568   4.241   0.071  0.00  0.00    -0.329 N 
ATOM     33  H   UNL     1       3.412   3.765   0.029  0.00  0.00    +0.145 HD
ATOM     34  H   UNL     1       2.559   5.210   0.116  0.00  0.00    +0.145 HD
ENDBRANCH  25  30
ENDBRANCH  22  28
ENDBRANCH   6  22
TORSDOF 5
