REMARK  Name = ZINC36277843
REMARK  5 active torsions:
REMARK  status: ('A' for Active; 'I' for Inactive)
REMARK    1  A    between atoms: C_1  and  C_2
REMARK    2  A    between atoms: C_10  and  C_11
REMARK    3  A    between atoms: C_11  and  O_13
REMARK    4  A    between atoms: O_13  and  C_14
REMARK    5  A    between atoms: N_16  and  C_17
REMARK                            x       y       z     vdW  Elec       q    Type
REMARK                         _______ _______ _______ _____ _____    ______ ____
ROOT
ATOM      1  C   UNL     1      -0.081   1.502   0.015  0.00  0.00    +0.046 C 
ATOM      2  C   UNL     1      -0.055  -0.005   0.007  0.00  0.00    -0.017 A 
ATOM      3  C   UNL     1      -0.128  -0.701  -1.206  0.00  0.00    +0.051 A 
ATOM      4  C   UNL     1      -0.231  -0.191  -2.535  0.00  0.00    +0.132 A 
ATOM      5  N   UNL     1      -0.288  -1.038  -3.549  0.00  0.00    -0.202 NA
ATOM      6  C   UNL     1      -0.252  -2.348  -3.377  0.00  0.00    +0.225 A 
ATOM      7  N   UNL     1      -0.157  -2.883  -2.173  0.00  0.00    -0.210 NA
ATOM      8  C   UNL     1      -0.095  -2.114  -1.105  0.00  0.00    +0.116 A 
ATOM      9  S   UNL     1       0.034  -2.395   0.642  0.00  0.00    -0.062 S 
ATOM     10  C   UNL     1       0.046  -0.693   1.178  0.00  0.00    +0.102 A 
ATOM     11 CL   UNL     1      -0.332  -3.389  -4.764  0.00  0.00    -0.041 Cl
ATOM     12  N   UNL     1      -0.272   1.170  -2.760  0.00  0.00    -0.326 N 
ATOM     13  H   UNL     1      -0.139   1.787  -2.023  0.00  0.00    +0.148 HD
ENDROOT
BRANCH  12  14
ATOM     14  C   UNL     1      -0.516   1.683  -4.110  0.00  0.00    +0.072 C 
ATOM     15  C   UNL     1       0.818   1.817  -4.873  0.00  0.00    +0.022 C 
ATOM     16  C   UNL     1       0.646   3.107  -5.714  0.00  0.00    +0.002 C 
ATOM     17  C   UNL     1      -0.139   4.037  -4.756  0.00  0.00    +0.002 C 
ATOM     18  C   UNL     1      -1.124   3.095  -4.035  0.00  0.00    +0.022 C 
ENDBRANCH  12  14
BRANCH  10  19
ATOM     19  C   UNL     1       0.139  -0.165   2.543  0.00  0.00    +0.346 C 
ATOM     20  O   UNL     1       0.131   1.036   2.732  0.00  0.00    -0.244 OA
BRANCH  19  21
ATOM     21  O   UNL     1       0.232  -1.012   3.588  0.00  0.00    -0.464 OA
ATOM     22  C   UNL     1       0.320  -0.429   4.890  0.00  0.00    +0.280 C 
ENDBRANCH  19  21
ENDBRANCH  10  19
TORSDOF 3
