REMARK  Name = ZINC58758411
REMARK  8 active torsions:
REMARK  status: ('A' for Active; 'I' for Inactive)
REMARK    1  A    between atoms: C_1  and  C_2
REMARK    2  A    between atoms: C_2  and  C_3
REMARK    3  A    between atoms: C_2  and  C_4
REMARK    4  A    between atoms: C_2  and  C_5
REMARK    5  A    between atoms: C_8  and  C_11
REMARK    6  A    between atoms: C_17  and  C_19
REMARK    7  A    between atoms: C_19  and  C_20
REMARK    8  A    between atoms: C_23  and  N_26
REMARK                            x       y       z     vdW  Elec       q    Type
REMARK                         _______ _______ _______ _____ _____    ______ ____
ROOT
ATOM      1  C   UNL     1       2.697  -1.861  -4.736  0.00  0.00    +0.080 A 
ATOM      2  C   UNL     1       4.003  -1.524  -4.964  0.00  0.00    +0.076 A 
ATOM      3  S   UNL     1       4.291  -2.353  -6.522  0.00  0.00    -0.060 S 
ATOM      4  C   UNL     1       2.658  -3.056  -6.707  0.00  0.00    +0.165 A 
ATOM      5  N   UNL     1       2.061  -2.624  -5.612  0.00  0.00    -0.225 NA
ATOM      6  N   UNL     1       2.153  -3.851  -7.729  0.00  0.00    -0.264 N 
ATOM      7  C   UNL     1       2.939  -4.189  -8.770  0.00  0.00    +0.223 C 
ATOM      8  O   UNL     1       4.087  -3.800  -8.815  0.00  0.00    -0.275 OA
ATOM      9  H   UNL     1       1.235  -4.162  -7.693  0.00  0.00    +0.157 HD
ENDROOT
BRANCH   1  13
ATOM     10  C   UNL     1       0.707  -0.490  -1.238  0.00  0.00    -0.042 A 
ATOM     11  C   UNL     1       0.033  -1.285  -2.147  0.00  0.00    +0.005 A 
ATOM     12  C   UNL     1       0.674  -1.733  -3.285  0.00  0.00    +0.010 A 
ATOM     13  C   UNL     1       2.003  -1.383  -3.516  0.00  0.00    +0.001 A 
ATOM     14  C   UNL     1       2.678  -0.581  -2.596  0.00  0.00    +0.010 A 
ATOM     15  C   UNL     1       2.025  -0.135  -1.465  0.00  0.00    +0.005 A 
BRANCH  10  17
ATOM     16  C   UNL     1      -0.019   1.526   0.010  0.00  0.00    +0.015 C 
ATOM     17  C   UNL     1       0.002  -0.004   0.002  0.00  0.00    -0.013 C 
ATOM     18  C   UNL     1       0.742  -0.511   1.242  0.00  0.00    +0.015 C 
ATOM     19  C   UNL     1      -1.433  -0.534   0.013  0.00  0.00    +0.015 C 
ENDBRANCH  10  17
ENDBRANCH   1  13
BRANCH   7  20
ATOM     20  C   UNL     1       2.392  -5.052  -9.878  0.00  0.00    +0.131 C 
BRANCH  20  21
ATOM     21  C   UNL     1       3.464  -5.282 -10.911  0.00  0.00    -0.038 A 
ATOM     22  C   UNL     1       3.603  -4.403 -11.969  0.00  0.00    +0.006 A 
ATOM     23  C   UNL     1       4.586  -4.611 -12.918  0.00  0.00    +0.028 A 
ATOM     24  C   UNL     1       5.434  -5.705 -12.808  0.00  0.00    +0.069 A 
ATOM     25  C   UNL     1       5.292  -6.586 -11.745  0.00  0.00    +0.028 A 
ATOM     26  C   UNL     1       4.311  -6.369 -10.796  0.00  0.00    +0.006 A 
BRANCH  24  27
ATOM     27  N   UNL     1       6.432  -5.919 -13.770  0.00  0.00    -0.200 N 
ATOM     28  C   UNL     1       7.327  -6.930 -13.811  0.00  0.00    +0.250 A 
ATOM     29  N   UNL     1       8.070  -6.747 -14.871  0.00  0.00    -0.116 NA
ATOM     30  N   UNL     1       7.705  -5.690 -15.503  0.00  0.00    -0.023 NA
ATOM     31  N   UNL     1       6.710  -5.132 -14.901  0.00  0.00    -0.039 NA
ENDBRANCH  24  27
ENDBRANCH  20  21
ENDBRANCH   7  20
TORSDOF 5
