REMARK  Name = ZINC03493702
REMARK  6 active torsions:
REMARK  status: ('A' for Active; 'I' for Inactive)
REMARK    1  A    between atoms: C_1  and  C_2
REMARK    2  A    between atoms: C_5  and  N_9
REMARK    3  A    between atoms: C_6  and  C_8
REMARK    4  A    between atoms: C_13  and  C_15
REMARK    5  A    between atoms: C_15  and  O_16
REMARK    6  A    between atoms: O_16  and  C_17
REMARK                            x       y       z     vdW  Elec       q    Type
REMARK                         _______ _______ _______ _____ _____    ______ ____
ROOT
ATOM      1  N   UNL     1      -4.216   7.174   0.061  0.00  0.00    -0.269 N 
ATOM      2  C   UNL     1      -4.014   5.841   0.049  0.00  0.00    +0.310 C 
ATOM      3  O   UNL     1      -4.964   5.083   0.058  0.00  0.00    -0.252 OA
ATOM      4  N   UNL     1      -2.760   5.350   0.028  0.00  0.00    -0.237 N 
ATOM      5  C   UNL     1      -2.558   4.017   0.016  0.00  0.00    +0.258 C 
ATOM      6  O   UNL     1      -3.506   3.261   0.024  0.00  0.00    -0.272 OA
ATOM      7  H   UNL     1      -3.460   7.778   0.137  0.00  0.00    +0.156 HD
ATOM      8  H   UNL     1      -2.002   5.955   0.021  0.00  0.00    +0.159 HD
ENDROOT
BRANCH   1  13
ATOM      9  C   UNL     1      -9.481   9.250  -0.330  0.00  0.00    +0.044 C 
ATOM     10  C   UNL     1      -8.082   8.699  -0.227  0.00  0.00    -0.050 A 
ATOM     11  C   UNL     1      -7.795   7.445  -0.735  0.00  0.00    +0.005 A 
ATOM     12  C   UNL     1      -6.515   6.937  -0.641  0.00  0.00    +0.024 A 
ATOM     13  C   UNL     1      -5.514   7.686  -0.036  0.00  0.00    +0.038 A 
ATOM     14  C   UNL     1      -5.807   8.942   0.478  0.00  0.00    -0.029 A 
ATOM     15  C   UNL     1      -7.088   9.447   0.377  0.00  0.00    +0.008 A 
ATOM     16  C   UNL     1      -4.726   9.756   1.142  0.00  0.00    +0.045 C 
ENDBRANCH   1  13
BRANCH   5  17
ATOM     17  C   UNL     1      -1.155   3.467  -0.008  0.00  0.00    +0.325 C 
BRANCH  17  18
ATOM     18  O   UNL     1      -1.204   2.039  -0.017  0.00  0.00    -0.483 OA
BRANCH  18  19
ATOM     19  C   UNL     1      -0.016   1.382  -0.038  0.00  0.00    +0.125 A 
ATOM     20  C   UNL     1       1.175   2.107  -0.056  0.00  0.00    +0.046 A 
ATOM     21  C   UNL     1       2.377   1.462  -0.083  0.00  0.00    +0.015 A 
ATOM     22  C   UNL     1       2.415   0.063  -0.094  0.00  0.00    +0.018 A 
ATOM     23  C   UNL     1       3.690  -0.656  -0.123  0.00  0.00    +0.018 A 
ATOM     24  C   UNL     1       3.661  -2.014  -0.132  0.00  0.00    +0.092 A 
ATOM     25  C   UNL     1       2.423  -2.689  -0.112  0.00  0.00    +0.337 A 
ATOM     26  O   UNL     1       2.411  -3.907  -0.120  0.00  0.00    -0.245 OA
ATOM     27  O   UNL     1       1.257  -2.024  -0.085  0.00  0.00    -0.422 OA
ATOM     28  C   UNL     1       1.216  -0.675  -0.076  0.00  0.00    +0.143 A 
ATOM     29  C   UNL     1       0.003  -0.003  -0.048  0.00  0.00    +0.092 A 
ENDBRANCH  18  19
ENDBRANCH  17  18
ENDBRANCH   5  17
TORSDOF 4
