REMARK  Name = ZINC39574336
REMARK  9 active torsions:
REMARK  status: ('A' for Active; 'I' for Inactive)
REMARK    1  A    between atoms: C_1  and  C_2
REMARK    2  A    between atoms: C_2  and  C_4
REMARK    3  A    between atoms: C_2  and  O_16
REMARK    4  A    between atoms: N_6  and  C_7
REMARK    5  A    between atoms: C_10  and  C_13
REMARK    6  A    between atoms: O_16  and  C_17
REMARK    7  A    between atoms: C_17  and  C_19
REMARK    8  A    between atoms: C_23  and  N_24
REMARK    9  A    between atoms: C_25  and  C_27
REMARK                            x       y       z     vdW  Elec       q    Type
REMARK                         _______ _______ _______ _____ _____    ______ ____
ROOT
ATOM      1  C   UNL     1      -0.045  -0.707   2.266  0.00  0.00    +0.343 C 
ATOM      2  O   UNL     1      -1.246  -0.512   2.247  0.00  0.00    -0.245 OA
ENDROOT
BRANCH   1   3
ATOM      3  C   UNL     1       0.599  -1.190   3.489  0.00  0.00    +0.091 A 
ATOM      4  C   UNL     1       1.115  -0.262   4.495  0.00  0.00    -0.021 A 
ATOM      5  C   UNL     1       1.679  -0.863   5.558  0.00  0.00    -0.004 A 
ATOM      6  S   UNL     1       1.522  -2.599   5.226  0.00  0.00    -0.077 S 
ATOM      7  C   UNL     1       0.740  -2.542   3.744  0.00  0.00    +0.086 A 
ATOM      8  C   UNL     1       2.196   0.136   6.558  0.00  0.00    +0.043 C 
ATOM      9  C   UNL     1       2.265   1.468   5.779  0.00  0.00    +0.010 C 
ATOM     10  C   UNL     1       1.196   1.251   4.688  0.00  0.00    +0.037 C 
BRANCH   7  11
ATOM     11  N   UNL     1       0.330  -3.606   2.954  0.00  0.00    -0.279 N 
ATOM     12  C   UNL     1       0.550  -4.871   3.362  0.00  0.00    +0.221 C 
ATOM     13  O   UNL     1       1.107  -5.080   4.419  0.00  0.00    -0.275 OA
ATOM     14  H   UNL     1      -0.115  -3.439   2.109  0.00  0.00    +0.155 HD
BRANCH  12  15
ATOM     15  C   UNL     1       0.105  -6.027   2.504  0.00  0.00    +0.075 C 
ATOM     16  C   UNL     1      -1.410  -5.961   2.305  0.00  0.00    +0.013 C 
ATOM     17  C   UNL     1      -1.862  -7.135   1.434  0.00  0.00    +0.001 C 
ATOM     18  C   UNL     1      -1.495  -8.451   2.121  0.00  0.00    +0.000 C 
ATOM     19  C   UNL     1       0.021  -8.518   2.320  0.00  0.00    +0.001 C 
ATOM     20  C   UNL     1       0.473  -7.344   3.191  0.00  0.00    +0.013 C 
ENDBRANCH  12  15
ENDBRANCH   7  11
ENDBRANCH   1   3
BRANCH   1  21
ATOM     21  O   UNL     1       0.693  -0.479   1.160  0.00  0.00    -0.449 OA
BRANCH  21  23
ATOM     22  C   UNL     1      -0.034   1.520   0.013  0.00  0.00    +0.062 C 
ATOM     23  C   UNL     1      -0.002  -0.009   0.002  0.00  0.00    +0.259 C 
BRANCH  23  24
ATOM     24  C   UNL     1       0.709  -0.488  -1.238  0.00  0.00    +0.258 C 
ATOM     25  O   UNL     1       1.759  -1.087  -1.142  0.00  0.00    -0.271 OA
ATOM     26  N   UNL     1       0.176  -0.250  -2.453  0.00  0.00    -0.282 N 
ATOM     27  H   UNL     1      -0.695   0.169  -2.527  0.00  0.00    +0.155 HD
BRANCH  26  28
ATOM     28  C   UNL     1       0.879  -0.607  -3.604  0.00  0.00    +0.034 A 
ATOM     29  C   UNL     1       1.659  -1.759  -3.611  0.00  0.00    +0.024 A 
ATOM     30  C   UNL     1       2.353  -2.114  -4.746  0.00  0.00    +0.015 A 
ATOM     31  C   UNL     1       2.274  -1.316  -5.890  0.00  0.00    +0.037 A 
ATOM     32  C   UNL     1       1.489  -0.160  -5.879  0.00  0.00    +0.015 A 
ATOM     33  C   UNL     1       0.793   0.187  -4.743  0.00  0.00    +0.024 A 
BRANCH  31  34
ATOM     34  C   UNL     1       3.018  -1.694  -7.108  0.00  0.00    +0.242 C 
ATOM     35  O   UNL     1       3.700  -2.700  -7.116  0.00  0.00    -0.270 OA
ATOM     36  N   UNL     1       2.940  -0.923  -8.211  0.00  0.00    -0.325 N 
ATOM     37  H   UNL     1       2.395  -0.121  -8.205  0.00  0.00    +0.145 HD
ATOM     38  H   UNL     1       3.429  -1.171  -9.011  0.00  0.00    +0.145 HD
ENDBRANCH  31  34
ENDBRANCH  26  28
ENDBRANCH  23  24
ENDBRANCH  21  23
ENDBRANCH   1  21
TORSDOF 8
