REMARK  Name = ZINC57401824
REMARK  8 active torsions:
REMARK  status: ('A' for Active; 'I' for Inactive)
REMARK    1  A    between atoms: C_1  and  C_2
REMARK    2  A    between atoms: C_2  and  N_3
REMARK    3  A    between atoms: C_5  and  O_23
REMARK    4  A    between atoms: C_7  and  S_9
REMARK    5  A    between atoms: S_9  and  C_10
REMARK    6  A    between atoms: C_10  and  C_11
REMARK    7  A    between atoms: N_13  and  C_14
REMARK    8  A    between atoms: O_23  and  C_24
REMARK                            x       y       z     vdW  Elec       q    Type
REMARK                         _______ _______ _______ _____ _____    ______ ____
ROOT
ATOM      1  N   UNL     1      -0.202  -0.770  -1.695  0.00  0.00    -0.244 N 
ATOM      2  C   UNL     1       1.248  -1.020  -1.628  0.00  0.00    +0.221 C 
ATOM      3  C   UNL     1       1.862  -0.533  -2.919  0.00  0.00    +0.217 C 
ATOM      4  N   UNL     1       1.149  -0.491  -4.004  0.00  0.00    -0.188 NA
ATOM      5  C   UNL     1      -0.156  -0.871  -4.027  0.00  0.00    +0.208 C 
ATOM      6  N   UNL     1      -0.844  -1.014  -2.925  0.00  0.00    -0.157 NA
ENDROOT
BRANCH   1   8
ATOM      7  C   UNL     1      -0.960   1.237  -0.521  0.00  0.00    +0.026 C 
ATOM      8  C   UNL     1      -0.948  -0.293  -0.528  0.00  0.00    +0.123 C 
ENDBRANCH   1   8
BRANCH   5   9
ATOM      9  S   UNL     1      -0.937  -1.183  -5.576  0.00  0.00    -0.075 S 
BRANCH   9  10
ATOM     10  C   UNL     1      -2.631  -1.649  -5.127  0.00  0.00    +0.173 C 
BRANCH  10  11
ATOM     11  C   UNL     1      -3.419  -1.947  -6.377  0.00  0.00    +0.227 C 
ATOM     12  O   UNL     1      -2.889  -1.854  -7.464  0.00  0.00    -0.275 OA
ATOM     13  N   UNL     1      -4.712  -2.317  -6.287  0.00  0.00    -0.285 N 
ATOM     14  H   UNL     1      -5.158  -2.313  -5.426  0.00  0.00    +0.155 HD
BRANCH  13  15
ATOM     15  C   UNL     1      -5.410  -2.706  -7.437  0.00  0.00    +0.037 A 
ATOM     16  C   UNL     1      -6.759  -2.401  -7.567  0.00  0.00    +0.027 A 
ATOM     17  C   UNL     1      -7.449  -2.783  -8.701  0.00  0.00    +0.051 A 
ATOM     18  C   UNL     1      -6.799  -3.473  -9.711  0.00  0.00    +0.166 A 
ATOM     19  C   UNL     1      -5.446  -3.781  -9.584  0.00  0.00    +0.168 A 
ATOM     20  C   UNL     1      -4.754  -3.392  -8.450  0.00  0.00    +0.072 A 
ATOM     21  O   UNL     1      -5.045  -4.456 -10.701  0.00  0.00    -0.453 OA
ATOM     22  C   UNL     1      -6.257  -4.916 -11.328  0.00  0.00    +0.466 C 
ATOM     23  O   UNL     1      -7.245  -3.956 -10.909  0.00  0.00    -0.453 OA
ENDBRANCH  13  15
ENDBRANCH  10  11
ENDBRANCH   9  10
ENDBRANCH   5   9
BRANCH   3  24
ATOM     24  O   UNL     1       3.152  -0.141  -2.946  0.00  0.00    -0.440 OA
BRANCH  24  25
ATOM     25  C   UNL     1       3.693   0.193  -4.147  0.00  0.00    +0.130 A 
ATOM     26  C   UNL     1       3.231   1.307  -4.832  0.00  0.00    +0.048 A 
ATOM     27  C   UNL     1       3.782   1.645  -6.052  0.00  0.00    +0.023 A 
ATOM     28  C   UNL     1       4.795   0.872  -6.592  0.00  0.00    +0.041 A 
ATOM     29  C   UNL     1       5.258  -0.240  -5.911  0.00  0.00    +0.023 A 
ATOM     30  C   UNL     1       4.713  -0.578  -4.687  0.00  0.00    +0.048 A 
ATOM     31 CL   UNL     1       5.486   1.298  -8.126  0.00  0.00    -0.084 Cl
ENDBRANCH  24  25
ENDBRANCH   3  24
TORSDOF 7
