REMARK  Name = ZINC06300430
REMARK  10 active torsions:
REMARK  status: ('A' for Active; 'I' for Inactive)
REMARK    1  A    between atoms: C_1  and  C_2
REMARK    2  A    between atoms: C_4  and  C_36
REMARK    3  A    between atoms: C_9  and  C_14
REMARK    4  A    between atoms: C_14  and  N_64
REMARK    5  A    between atoms: C_15  and  C_16
REMARK    6  A    between atoms: C_15  and  N_64
REMARK    7  A    between atoms: C_23  and  C_24
REMARK    8  A    between atoms: C_23  and  N_64
REMARK    9  A    between atoms: N_28  and  C_29
REMARK   10  A    between atoms: C_29  and  C_30
REMARK                            x       y       z     vdW  Elec       q    Type
REMARK                         _______ _______ _______ _____ _____    ______ ____
ROOT
ATOM      1  N   UNL     1      -5.221   0.258   1.969  0.00  0.00    +0.390 N 
ATOM      2  H   UNL     1      -4.418  -0.017   2.546  0.00  0.00    -0.080 HD
ENDROOT
BRANCH   1   3
ATOM      3  C   UNL     1      -4.791   0.343   0.557  0.00  0.00    -0.036 C 
BRANCH   3  12
ATOM      4  C   UNL     1       2.605   1.286   0.393  0.00  0.00    +0.044 C 
ATOM      5  C   UNL     1       1.207   1.849   0.366  0.00  0.00    -0.050 A 
ATOM      6  C   UNL     1       1.020   3.221   0.261  0.00  0.00    +0.008 A 
ATOM      7  C   UNL     1      -0.249   3.757   0.234  0.00  0.00    -0.026 A 
ATOM      8  C   UNL     1      -1.355   2.918   0.314  0.00  0.00    +0.052 A 
ATOM      9  C   UNL     1      -1.162   1.527   0.415  0.00  0.00    -0.001 A 
ATOM     10  C   UNL     1       0.136   1.005   0.445  0.00  0.00    +0.013 A 
ATOM     11  C   UNL     1      -2.332   0.652   0.504  0.00  0.00    +0.017 A 
ATOM     12  C   UNL     1      -3.566   1.215   0.474  0.00  0.00    +0.001 A 
ATOM     13  C   UNL     1      -3.705   2.615   0.365  0.00  0.00    +0.251 A 
ATOM     14  O   UNL     1      -4.823   3.101   0.340  0.00  0.00    -0.268 OA
ATOM     15  N   UNL     1      -2.636   3.427   0.289  0.00  0.00    -0.322 N 
ATOM     16  H   UNL     1      -2.768   4.386   0.215  0.00  0.00    +0.169 HD
ATOM     17  C   UNL     1      -0.438   5.248   0.120  0.00  0.00    +0.046 C 
ENDBRANCH   3  12
ENDBRANCH   1   3
BRANCH   1  18
ATOM     18  C   UNL     1      -5.713   1.574   2.427  0.00  0.00    -0.042 C 
BRANCH  18  19
ATOM     19  C   UNL     1      -5.994   1.501   3.906  0.00  0.00    -0.064 A 
ATOM     20  C   UNL     1      -7.282   1.278   4.354  0.00  0.00    +0.004 A 
ATOM     21  C   UNL     1      -7.540   1.206   5.710  0.00  0.00    +0.038 A 
ATOM     22  C   UNL     1      -6.509   1.369   6.620  0.00  0.00    +0.123 A 
ATOM     23  C   UNL     1      -5.220   1.598   6.170  0.00  0.00    +0.038 A 
ATOM     24  C   UNL     1      -4.963   1.664   4.813  0.00  0.00    +0.004 A 
ATOM     25  F   UNL     1      -6.760   1.303   7.946  0.00  0.00    -0.205 F 
ENDBRANCH  18  19
ENDBRANCH   1  18
BRANCH   1  26
ATOM     26  C   UNL     1      -6.286  -0.757   2.113  0.00  0.00    +0.001 C 
BRANCH  26  27
ATOM     27  C   UNL     1      -5.680  -2.125   1.929  0.00  0.00    +0.135 A 
ATOM     28  N   UNL     1      -5.648  -2.825   0.821  0.00  0.00    -0.115 NA
ATOM     29  N   UNL     1      -5.044  -3.935   1.069  0.00  0.00    -0.023 NA
ATOM     30  N   UNL     1      -4.697  -3.966   2.308  0.00  0.00    -0.044 NA
ATOM     31  N   UNL     1      -5.071  -2.867   2.872  0.00  0.00    -0.229 N 
BRANCH  31  32
ATOM     32  C   UNL     1      -4.871  -2.498   4.276  0.00  0.00    +0.178 C 
BRANCH  32  33
ATOM     33  C   UNL     1      -5.997  -3.091   5.125  0.00  0.00    +0.140 C 
ATOM     34  C   UNL     1      -5.860  -2.612   6.586  0.00  0.00    +0.035 C 
ATOM     35  C   UNL     1      -6.240  -3.886   7.388  0.00  0.00    +0.031 C 
ATOM     36  C   UNL     1      -5.676  -4.995   6.463  0.00  0.00    +0.160 C 
ATOM     37  O   UNL     1      -5.903  -4.520   5.127  0.00  0.00    -0.375 OA
ENDBRANCH  32  33
ENDBRANCH  31  32
ENDBRANCH  26  27
ENDBRANCH   1  26
TORSDOF 8
