REMARK  Name = ZINC60564854
REMARK  4 active torsions:
REMARK  status: ('A' for Active; 'I' for Inactive)
REMARK    1  A    between atoms: C_4  and  O_23
REMARK    2  A    between atoms: C_5  and  N_7
REMARK    3  A    between atoms: N_10  and  C_13
REMARK    4  A    between atoms: C_18  and  N_19
REMARK                            x       y       z     vdW  Elec       q    Type
REMARK                         _______ _______ _______ _____ _____    ______ ____
ROOT
ATOM      1  N   UNL     1       1.235  -2.080  -0.021  0.00  0.00    -0.324 N 
ATOM      2  C   UNL     1       1.252  -2.836   1.239  0.00  0.00    +0.124 C 
ATOM      3  C   UNL     1       0.073  -3.816   1.240  0.00  0.00    +0.124 C 
ATOM      4  N   UNL     1       0.078  -4.557  -0.030  0.00  0.00    -0.325 N 
ATOM      5  C   UNL     1       0.060  -3.802  -1.290  0.00  0.00    +0.124 C 
ATOM      6  C   UNL     1       1.234  -2.821  -1.291  0.00  0.00    +0.124 C 
ENDROOT
BRANCH   4   7
ATOM      7  C   UNL     1       0.100  -5.953  -0.038  0.00  0.00    +0.063 A 
ATOM      8  C   UNL     1      -1.092  -6.668  -0.042  0.00  0.00    +0.025 A 
ATOM      9  C   UNL     1      -1.068  -8.049  -0.050  0.00  0.00    +0.005 A 
ATOM     10  C   UNL     1       0.139  -8.722  -0.055  0.00  0.00    +0.041 A 
ATOM     11  C   UNL     1       1.330  -8.014  -0.051  0.00  0.00    +0.155 A 
ATOM     12  C   UNL     1       1.312  -6.630  -0.048  0.00  0.00    +0.182 A 
ATOM     13  F   UNL     1       2.508  -8.674  -0.056  0.00  0.00    -0.203 F 
BRANCH  12  14
ATOM     14  N   UNL     1       2.584  -5.873  -0.051  0.00  0.00    +0.061 N 
ATOM     15  O   UNL     1       3.109  -5.570   0.996  0.00  0.00    -0.126 OA
ATOM     16  O   UNL     1       3.098  -5.557  -1.099  0.00  0.00    -0.126 OA
ENDBRANCH  12  14
ENDBRANCH   4   7
BRANCH   1  21
ATOM     17  C   UNL     1      -0.017   1.378   0.010  0.00  0.00    +0.002 A 
ATOM     18  C   UNL     1       1.169   2.089   0.002  0.00  0.00    +0.004 A 
ATOM     19  C   UNL     1       2.380   1.421  -0.013  0.00  0.00    +0.047 A 
ATOM     20  C   UNL     1       2.407   0.036  -0.021  0.00  0.00    +0.138 A 
ATOM     21  C   UNL     1       1.213  -0.681  -0.013  0.00  0.00    +0.072 A 
ATOM     22  C   UNL     1       0.002  -0.004   0.002  0.00  0.00    +0.027 A 
BRANCH  20  23
ATOM     23  O   UNL     1       3.598  -0.622  -0.036  0.00  0.00    -0.505 OA
ATOM     24  H   UNL     1       3.950  -0.817   0.843  0.00  0.00    +0.292 HD
ENDBRANCH  20  23
ENDBRANCH   1  21
TORSDOF 4
