REMARK  Name = ZINC66660504
REMARK  9 active torsions:
REMARK  status: ('A' for Active; 'I' for Inactive)
REMARK    1  A    between atoms: C_1  and  C_2
REMARK    2  A    between atoms: C_4  and  N_16
REMARK    3  A    between atoms: N_5  and  C_7
REMARK    4  A    between atoms: C_10  and  N_13
REMARK    5  A    between atoms: C_17  and  C_19
REMARK    6  A    between atoms: C_19  and  C_21
REMARK    7  A    between atoms: C_19  and  C_22
REMARK    8  A    between atoms: C_24  and  C_28
REMARK    9  A    between atoms: C_26  and  C_27
REMARK                            x       y       z     vdW  Elec       q    Type
REMARK                         _______ _______ _______ _____ _____    ______ ____
ROOT
ATOM      1  C   UNL     1      -0.018   1.503   0.010  0.00  0.00    +0.067 C 
ATOM      2  C   UNL     1       0.002  -0.004   0.002  0.00  0.00    +0.062 A 
ATOM      3  C   UNL     1       0.008  -0.815  -1.137  0.00  0.00    +0.068 A 
ATOM      4  C   UNL     1       0.028  -2.112  -0.726  0.00  0.00    +0.129 A 
ATOM      5  N   UNL     1       0.035  -2.109   0.635  0.00  0.00    -0.218 N 
ATOM      6  N   UNL     1       0.023  -0.774   1.060  0.00  0.00    -0.170 NA
ENDROOT
BRANCH   5   7
ATOM      7  C   UNL     1       0.055  -3.240   1.463  0.00  0.00    +0.068 A 
ATOM      8  C   UNL     1      -0.615  -4.394   1.081  0.00  0.00    +0.030 A 
ATOM      9  C   UNL     1      -0.593  -5.506   1.899  0.00  0.00    +0.035 A 
ATOM     10  C   UNL     1       0.095  -5.471   3.099  0.00  0.00    +0.126 A 
ATOM     11  C   UNL     1       0.763  -4.323   3.482  0.00  0.00    +0.035 A 
ATOM     12  C   UNL     1       0.750  -3.209   2.665  0.00  0.00    +0.030 A 
BRANCH  10  13
ATOM     13  N   UNL     1       0.116  -6.665   3.973  0.00  0.00    +0.056 N 
ATOM     14  O   UNL     1      -0.468  -7.670   3.639  0.00  0.00    -0.126 OA
ATOM     15  O   UNL     1       0.717  -6.635   5.022  0.00  0.00    -0.126 OA
ENDBRANCH  10  13
ENDBRANCH   5   7
BRANCH   4  16
ATOM     16  N   UNL     1       0.040  -3.238  -1.549  0.00  0.00    -0.270 N 
ATOM     17  C   UNL     1       0.031  -3.093  -2.889  0.00  0.00    +0.226 C 
ATOM     18  O   UNL     1       0.013  -1.984  -3.379  0.00  0.00    -0.275 OA
ATOM     19  H   UNL     1       0.054  -4.125  -1.157  0.00  0.00    +0.156 HD
BRANCH  17  20
ATOM     20  C   UNL     1       0.043  -4.310  -3.778  0.00  0.00    +0.105 C 
ATOM     21  C   UNL     1       1.306  -5.130  -3.502  0.00  0.00    +0.022 C 
BRANCH  20  22
ATOM     22  C   UNL     1       0.030  -3.877  -5.221  0.00  0.00    +0.005 A 
ATOM     23  C   UNL     1       1.003  -3.083  -5.872  0.00  0.00    +0.049 A 
ATOM     24  C   UNL     1       0.600  -2.942  -7.147  0.00  0.00    +0.102 A 
ATOM     25  O   UNL     1      -0.558  -3.604  -7.303  0.00  0.00    -0.465 OA
ATOM     26  C   UNL     1      -0.905  -4.178  -6.140  0.00  0.00    +0.106 A 
ATOM     27  C   UNL     1      -2.137  -5.013  -5.902  0.00  0.00    +0.086 C 
ATOM     28  C   UNL     1       1.326  -2.170  -8.220  0.00  0.00    +0.086 C 
ENDBRANCH  20  22
ENDBRANCH  17  20
ENDBRANCH   4  16
TORSDOF 5
