REMARK  Name = ZINC39736942
REMARK  9 active torsions:
REMARK  status: ('A' for Active; 'I' for Inactive)
REMARK    1  A    between atoms: C_1  and  C_2
REMARK    2  A    between atoms: C_2  and  C_3
REMARK    3  A    between atoms: C_3  and  N_4
REMARK    4  A    between atoms: N_4  and  C_5
REMARK    5  A    between atoms: N_4  and  C_16
REMARK    6  A    between atoms: C_5  and  C_6
REMARK    7  A    between atoms: C_9  and  C_11
REMARK    8  A    between atoms: C_16  and  C_17
REMARK    9  A    between atoms: C_17  and  C_19
REMARK                            x       y       z     vdW  Elec       q    Type
REMARK                         _______ _______ _______ _____ _____    ______ ____
ROOT
ATOM      1  N   UNL     1      -1.207  -2.204  -0.013  0.00  0.00    +0.390 N 
ATOM      2  H   UNL     1      -0.515  -2.575  -0.646  0.00  0.00    -0.081 HD
ENDROOT
BRANCH   1   3
ATOM      3  C   UNL     1      -1.395  -0.772  -0.279  0.00  0.00    -0.078 C 
BRANCH   3   5
ATOM      4  C   UNL     1      -2.657   1.278   0.391  0.00  0.00    +0.002 C 
ATOM      5  C   UNL     1      -2.482  -0.220   0.646  0.00  0.00    -0.022 C 
ENDBRANCH   3   5
ENDBRANCH   1   3
BRANCH   1   6
ATOM      6  C   UNL     1      -0.754  -2.390   1.372  0.00  0.00    +0.021 C 
BRANCH   6   7
ATOM      7  C   UNL     1       0.608  -1.767   1.542  0.00  0.00    +0.202 A 
ATOM      8  N   UNL     1       0.854  -0.570   1.997  0.00  0.00    -0.114 NA
ATOM      9  N   UNL     1       2.124  -0.366   2.008  0.00  0.00    -0.104 NA
ATOM     10  C   UNL     1       2.739  -1.438   1.557  0.00  0.00    +0.284 A 
ATOM     11  O   UNL     1       1.788  -2.347   1.259  0.00  0.00    -0.420 OA
BRANCH  10  12
ATOM     12  C   UNL     1       4.191  -1.615   1.410  0.00  0.00    +0.191 A 
ATOM     13  C   UNL     1       5.146  -0.694   1.725  0.00  0.00    +0.055 A 
ATOM     14  C   UNL     1       6.389  -1.282   1.428  0.00  0.00    +0.042 A 
ATOM     15  C   UNL     1       6.139  -2.518   0.951  0.00  0.00    +0.196 A 
ATOM     16  O   UNL     1       4.812  -2.718   0.946  0.00  0.00    -0.458 OA
ENDBRANCH  10  12
ENDBRANCH   6   7
ENDBRANCH   1   6
BRANCH   1  17
ATOM     17  C   UNL     1      -2.480  -2.910  -0.210  0.00  0.00    +0.003 C 
BRANCH  17  18
ATOM     18  C   UNL     1      -2.884  -2.823  -1.659  0.00  0.00    +0.145 C 
ATOM     19  O   UNL     1      -2.179  -2.230  -2.451  0.00  0.00    -0.294 OA
BRANCH  18  20
ATOM     20  C   UNL     1      -4.080  -3.430  -2.097  0.00  0.00    +0.021 C 
ATOM     21  C   UNL     1      -4.588  -3.447  -3.383  0.00  0.00    +0.006 A 
ATOM     22  C   UNL     1      -4.127  -2.908  -4.607  0.00  0.00    +0.010 A 
ATOM     23  C   UNL     1      -4.843  -3.081  -5.741  0.00  0.00    +0.001 A 
ATOM     24  C   UNL     1      -6.056  -3.788  -5.766  0.00  0.00    +0.002 A 
ATOM     25  C   UNL     1      -6.583  -4.341  -4.653  0.00  0.00    +0.026 A 
ATOM     26  C   UNL     1      -5.866  -4.200  -3.374  0.00  0.00    +0.043 A 
ATOM     27  N   UNL     1      -6.139  -4.623  -2.173  0.00  0.00    -0.380 N 
ATOM     28  C   UNL     1      -5.073  -4.204  -1.257  0.00  0.00    +0.152 C 
ATOM     29  H   UNL     1      -6.923  -5.138  -1.924  0.00  0.00    +0.160 HD
ENDBRANCH  18  20
ENDBRANCH  17  18
ENDBRANCH   1  17
TORSDOF 8
