REMARK  Name = ZINC65250623
REMARK  6 active torsions:
REMARK  status: ('A' for Active; 'I' for Inactive)
REMARK    1  A    between atoms: C_1  and  C_2
REMARK    2  A    between atoms: C_2  and  C_3
REMARK    3  A    between atoms: C_5  and  C_8
REMARK    4  A    between atoms: C_13  and  N_14
REMARK    5  A    between atoms: N_14  and  C_15
REMARK    6  A    between atoms: C_23  and  C_25
REMARK                            x       y       z     vdW  Elec       q    Type
REMARK                         _______ _______ _______ _____ _____    ______ ____
ROOT
ATOM      1  C   UNL     1       1.657  -0.239   3.928  0.00  0.00    +0.079 A 
ATOM      2  C   UNL     1       1.679   0.937   3.165  0.00  0.00    +0.128 A 
ATOM      3  N   UNL     1       2.790   1.591   2.938  0.00  0.00    -0.235 NA
ATOM      4  C   UNL     1       3.970   1.177   3.419  0.00  0.00    +0.162 A 
ATOM      5  C   UNL     1       4.041  -0.002   4.199  0.00  0.00    +0.041 A 
ATOM      6  C   UNL     1       2.857  -0.728   4.466  0.00  0.00    +0.052 A 
ATOM      7  C   UNL     1       5.284  -0.424   4.697  0.00  0.00    +0.015 A 
ATOM      8  C   UNL     1       6.387   0.331   4.403  0.00  0.00    +0.024 A 
ATOM      9  C   UNL     1       6.251   1.480   3.631  0.00  0.00    +0.041 A 
ATOM     10  N   UNL     1       5.086   1.868   3.169  0.00  0.00    -0.232 NA
ATOM     11  C   UNL     1       7.475   2.300   3.318  0.00  0.00    +0.065 C 
ENDROOT
BRANCH   1  14
ATOM     12  C   UNL     1      -1.727  -1.434   4.177  0.00  0.00    +0.172 A 
ATOM     13  N   UNL     1      -0.808  -0.543   3.801  0.00  0.00    -0.192 NA
ATOM     14  C   UNL     1       0.389  -0.952   4.165  0.00  0.00    +0.262 A 
ATOM     15  O   UNL     1       0.251  -2.134   4.792  0.00  0.00    -0.333 OA
ATOM     16  N   UNL     1      -1.139  -2.422   4.791  0.00  0.00    -0.061 NA
BRANCH  12  18
ATOM     17  C   UNL     1      -3.860  -0.582   5.111  0.00  0.00    +0.012 C 
ATOM     18  C   UNL     1      -3.210  -1.315   3.936  0.00  0.00    +0.076 C 
ENDBRANCH  12  18
ENDBRANCH   1  14
BRANCH   6  19
ATOM     19  N   UNL     1       2.881  -1.878   5.226  0.00  0.00    -0.340 N 
ATOM     20  H   UNL     1       2.710  -2.738   4.811  0.00  0.00    +0.146 HD
BRANCH  19  21
ATOM     21  C   UNL     1       3.167  -1.802   6.661  0.00  0.00    +0.070 C 
ATOM     22  C   UNL     1       3.573  -3.185   7.174  0.00  0.00    +0.022 C 
ATOM     23  C   UNL     1       3.871  -3.106   8.673  0.00  0.00    +0.002 C 
ATOM     24  C   UNL     1       2.620  -2.633   9.417  0.00  0.00    +0.000 C 
ATOM     25  C   UNL     1       2.214  -1.250   8.904  0.00  0.00    +0.002 C 
ATOM     26  C   UNL     1       1.916  -1.330   7.405  0.00  0.00    +0.022 C 
ENDBRANCH  19  21
ENDBRANCH   6  19
TORSDOF 4
