REMARK  Name = ZINC66286075
REMARK  6 active torsions:
REMARK  status: ('A' for Active; 'I' for Inactive)
REMARK    1  A    between atoms: C_1  and  C_2
REMARK    2  A    between atoms: C_3  and  N_24
REMARK    3  A    between atoms: C_5  and  C_9
REMARK    4  A    between atoms: N_11  and  C_12
REMARK    5  A    between atoms: C_14  and  N_20
REMARK    6  A    between atoms: C_21  and  C_23
REMARK                            x       y       z     vdW  Elec       q    Type
REMARK                         _______ _______ _______ _____ _____    ______ ____
ROOT
ATOM      1  C   UNL     1       0.111  -3.759  -0.009  0.00  0.00    +0.248 C 
ATOM      2  O   UNL     1       0.023  -4.252  -1.117  0.00  0.00    -0.270 OA
ATOM      3  N   UNL     1       0.196  -4.552   1.077  0.00  0.00    -0.279 N 
ATOM      4  H   UNL     1       0.181  -4.162   1.965  0.00  0.00    +0.155 HD
ENDROOT
BRANCH   1   9
ATOM      5  C   UNL     1       0.168   1.965   0.592  0.00  0.00    +0.049 C 
ATOM      6  C   UNL     1       0.153   0.467   0.435  0.00  0.00    +0.015 A 
ATOM      7  C   UNL     1       0.054  -0.093  -0.826  0.00  0.00    +0.133 A 
ATOM      8  C   UNL     1       0.040  -1.464  -0.977  0.00  0.00    +0.046 A 
ATOM      9  C   UNL     1       0.127  -2.289   0.146  0.00  0.00    +0.042 A 
ATOM     10  C   UNL     1       0.228  -1.720   1.417  0.00  0.00    +0.051 A 
ATOM     11  C   UNL     1       0.245  -0.345   1.554  0.00  0.00    +0.129 A 
ATOM     12  F   UNL     1       0.348   0.209   2.782  0.00  0.00    -0.205 F 
BRANCH   7  13
ATOM     13  N   UNL     1      -0.038   0.781  -2.017  0.00  0.00    +0.057 N 
ATOM     14  O   UNL     1      -0.723   0.452  -2.957  0.00  0.00    -0.126 OA
ATOM     15  O   UNL     1       0.571   1.825  -2.049  0.00  0.00    -0.126 OA
ENDBRANCH   7  13
ENDBRANCH   1   9
BRANCH   3  16
ATOM     16  C   UNL     1       0.304  -5.941   0.924  0.00  0.00    +0.071 A 
ATOM     17  C   UNL     1       0.828  -6.471  -0.246  0.00  0.00    +0.052 A 
ATOM     18  C   UNL     1       0.935  -7.846  -0.395  0.00  0.00    +0.071 A 
ATOM     19  C   UNL     1       0.516  -8.690   0.628  0.00  0.00    +0.147 A 
ATOM     20  C   UNL     1      -0.008  -8.159   1.793  0.00  0.00    +0.080 A 
ATOM     21  C   UNL     1      -0.110  -6.788   1.946  0.00  0.00    +0.147 A 
ATOM     22  F   UNL     1      -0.615  -6.272   3.088  0.00  0.00    -0.203 F 
ATOM     23  F   UNL     1       0.619 -10.029   0.483  0.00  0.00    -0.203 F 
BRANCH  18  24
ATOM     24  N   UNL     1       1.464  -8.384  -1.576  0.00  0.00    -0.283 N 
ATOM     25  C   UNL     1       2.449  -7.737  -2.229  0.00  0.00    +0.214 C 
ATOM     26  O   UNL     1       2.945  -6.740  -1.746  0.00  0.00    -0.276 OA
ATOM     27  C   UNL     1       2.936  -8.251  -3.560  0.00  0.00    +0.109 C 
ATOM     28  H   UNL     1       1.121  -9.223  -1.923  0.00  0.00    +0.155 HD
ENDBRANCH  18  24
ENDBRANCH   3  16
TORSDOF 4
