REMARK  Name = ZINC09231542
REMARK  11 active torsions:
REMARK  status: ('A' for Active; 'I' for Inactive)
REMARK    1  A    between atoms: C_1  and  C_2
REMARK    2  A    between atoms: C_2  and  C_3
REMARK    3  A    between atoms: C_4  and  C_26
REMARK    4  A    between atoms: C_6  and  N_11
REMARK    5  A    between atoms: C_7  and  C_8
REMARK    6  A    between atoms: C_12  and  C_14
REMARK    7  A    between atoms: C_14  and  O_15
REMARK    8  A    between atoms: O_15  and  C_16
REMARK    9  A    between atoms: C_21  and  C_22
REMARK   10  A    between atoms: C_22  and  C_23
REMARK   11  A    between atoms: C_22  and  C_24
REMARK                            x       y       z     vdW  Elec       q    Type
REMARK                         _______ _______ _______ _____ _____    ______ ____
ROOT
ATOM      1  N   UNL     1      -4.776  -1.941   4.592  0.00  0.00    -0.277 N 
ATOM      2  C   UNL     1      -3.998  -1.172   3.805  0.00  0.00    +0.255 C 
ATOM      3  O   UNL     1      -4.450  -0.697   2.784  0.00  0.00    -0.272 OA
ATOM      4  H   UNL     1      -4.415  -2.320   5.409  0.00  0.00    +0.155 HD
ENDROOT
BRANCH   1   8
ATOM      5  C   UNL     1      -8.349  -3.041   4.306  0.00  0.00    -0.024 A 
ATOM      6  C   UNL     1      -8.537  -2.385   3.147  0.00  0.00    -0.008 A 
ATOM      7  S   UNL     1      -6.956  -1.623   2.845  0.00  0.00    -0.078 S 
ATOM      8  C   UNL     1      -6.093  -2.190   4.235  0.00  0.00    +0.084 A 
ATOM      9  C   UNL     1      -7.041  -2.949   4.910  0.00  0.00    +0.068 A 
ATOM     10  C   UNL     1      -9.787  -2.309   2.307  0.00  0.00    +0.052 C 
BRANCH   9  11
ATOM     11  C   UNL     1      -6.728  -3.626   6.173  0.00  0.00    +0.244 C 
ATOM     12  O   UNL     1      -6.905  -3.051   7.231  0.00  0.00    -0.270 OA
ATOM     13  N   UNL     1      -6.245  -4.884   6.162  0.00  0.00    -0.325 N 
ATOM     14  H   UNL     1      -6.105  -5.342   5.319  0.00  0.00    +0.145 HD
ATOM     15  H   UNL     1      -6.039  -5.331   6.997  0.00  0.00    +0.145 HD
ENDBRANCH   9  11
BRANCH   5  17
ATOM     16  C   UNL     1     -10.250  -2.935   5.894  0.00  0.00    +0.009 C 
ATOM     17  C   UNL     1      -9.457  -3.837   4.947  0.00  0.00    +0.033 C 
ENDBRANCH   5  17
ENDBRANCH   1   8
BRANCH   2  18
ATOM     18  C   UNL     1      -2.567  -0.901   4.192  0.00  0.00    +0.324 C 
BRANCH  18  19
ATOM     19  O   UNL     1      -1.956  -0.068   3.206  0.00  0.00    -0.482 OA
BRANCH  19  20
ATOM     20  C   UNL     1      -0.656   0.273   3.406  0.00  0.00    +0.125 A 
ATOM     21  C   UNL     1       0.019  -0.190   4.526  0.00  0.00    +0.047 A 
ATOM     22  C   UNL     1       1.339   0.163   4.731  0.00  0.00    +0.019 A 
ATOM     23  C   UNL     1       1.990   0.972   3.817  0.00  0.00    +0.018 A 
ATOM     24  C   UNL     1       1.320   1.430   2.696  0.00  0.00    +0.022 A 
ATOM     25  C   UNL     1       0.000   1.080   2.488  0.00  0.00    -0.002 A 
ATOM     26 BR   UNL     1       3.796   1.454   4.099  0.00  0.00    -0.050 Br
BRANCH  25  27
ATOM     27  C   UNL     1      -0.729   1.579   1.267  0.00  0.00    +0.016 C 
ATOM     28  C   UNL     1      -0.013   1.086   0.008  0.00  0.00    +0.012 C 
ATOM     29  C   UNL     1      -0.750   3.109   1.275  0.00  0.00    +0.012 C 
ENDBRANCH  25  27
ENDBRANCH  19  20
ENDBRANCH  18  19
ENDBRANCH   2  18
TORSDOF 7
