REMARK  Name = ZINC05538366
REMARK  9 active torsions:
REMARK  status: ('A' for Active; 'I' for Inactive)
REMARK    1  A    between atoms: C_1  and  C_2
REMARK    2  A    between atoms: C_3  and  C_13
REMARK    3  A    between atoms: C_5  and  C_7
REMARK    4  A    between atoms: C_13  and  O_15
REMARK    5  A    between atoms: O_15  and  C_16
REMARK    6  A    between atoms: C_16  and  C_18
REMARK    7  A    between atoms: C_16  and  C_19
REMARK    8  A    between atoms: N_21  and  C_22
REMARK    9  A    between atoms: C_27  and  N_28
REMARK                            x       y       z     vdW  Elec       q    Type
REMARK                         _______ _______ _______ _____ _____    ______ ____
ROOT
ATOM      1  O   UNL     1      -0.781   5.295   1.322  0.00  0.00    -0.448 OA
ENDROOT
BRANCH   1   2
ATOM      2  C   UNL     1      -0.514   4.065   0.839  0.00  0.00    +0.362 C 
ATOM      3  O   UNL     1       0.070   3.942  -0.219  0.00  0.00    -0.243 OA
BRANCH   2   6
ATOM      4  C   UNL     1      -0.037   1.091  -0.019  0.00  0.00    +0.089 C 
ATOM      5  C   UNL     1      -0.727   1.573   1.231  0.00  0.00    +0.137 A 
ATOM      6  C   UNL     1      -0.929   2.871   1.595  0.00  0.00    +0.189 A 
ATOM      7  N   UNL     1      -1.588   2.858   2.783  0.00  0.00    -0.202 NA
ATOM      8  C   UNL     1      -1.775   1.613   3.139  0.00  0.00    +0.228 A 
ATOM      9  O   UNL     1      -1.253   0.805   2.199  0.00  0.00    -0.440 OA
BRANCH   8  10
ATOM     10  C   UNL     1      -2.452   1.166   4.375  0.00  0.00    +0.037 A 
ATOM     11  C   UNL     1      -2.595  -0.196   4.642  0.00  0.00    +0.013 A 
ATOM     12  C   UNL     1      -3.223  -0.607   5.800  0.00  0.00    +0.001 A 
ATOM     13  C   UNL     1      -3.718   0.328   6.691  0.00  0.00    +0.000 A 
ATOM     14  C   UNL     1      -3.584   1.680   6.430  0.00  0.00    +0.001 A 
ATOM     15  C   UNL     1      -2.954   2.104   5.278  0.00  0.00    +0.013 A 
ENDBRANCH   8  10
ENDBRANCH   2   6
ENDBRANCH   1   2
BRANCH   1  16
ATOM     16  C   UNL     1      -0.343   6.426   0.524  0.00  0.00    +0.259 C 
ATOM     17  C   UNL     1      -1.452   6.822  -0.453  0.00  0.00    +0.062 C 
BRANCH  16  18
ATOM     18  C   UNL     1      -0.032   7.590   1.430  0.00  0.00    +0.258 C 
ATOM     19  O   UNL     1      -0.167   7.477   2.630  0.00  0.00    -0.271 OA
ATOM     20  N   UNL     1       0.396   8.756   0.906  0.00  0.00    -0.281 N 
ATOM     21  H   UNL     1       0.581   8.822  -0.043  0.00  0.00    +0.155 HD
BRANCH  20  22
ATOM     22  C   UNL     1       0.573   9.870   1.733  0.00  0.00    +0.064 A 
ATOM     23  C   UNL     1      -0.144   9.979   2.918  0.00  0.00    +0.025 A 
ATOM     24  C   UNL     1       0.037  11.078   3.734  0.00  0.00    +0.002 A 
ATOM     25  C   UNL     1       0.923  12.075   3.368  0.00  0.00    +0.002 A 
ATOM     26  C   UNL     1       1.634  11.972   2.187  0.00  0.00    +0.034 A 
ATOM     27  C   UNL     1       1.462  10.873   1.369  0.00  0.00    +0.147 A 
BRANCH  27  28
ATOM     28  N   UNL     1       2.223  10.764   0.104  0.00  0.00    +0.058 N 
ATOM     29  O   UNL     1       3.068  11.597  -0.172  0.00  0.00    -0.126 OA
ATOM     30  O   UNL     1       2.005   9.842  -0.661  0.00  0.00    -0.126 OA
ENDBRANCH  27  28
ENDBRANCH  20  22
ENDBRANCH  16  18
ENDBRANCH   1  16
TORSDOF 7
