REMARK  Name = ZINC43171696
REMARK  12 active torsions:
REMARK  status: ('A' for Active; 'I' for Inactive)
REMARK    1  A    between atoms: C_1  and  C_2
REMARK    2  A    between atoms: N_8  and  C_9
REMARK    3  A    between atoms: C_9  and  C_10
REMARK    4  A    between atoms: N_15  and  C_17
REMARK    5  A    between atoms: C_20  and  C_23
REMARK    6  A    between atoms: C_23  and  CA_24
REMARK    7  A    between atoms: CA_24  and  C_26
REMARK    8  A    between atoms: CA_24  and  N_29
REMARK    9  A    between atoms: C_30  and  C_32
REMARK   10  A    between atoms: C_33  and  C_40
REMARK   11  A    between atoms: C_35  and  C_39
REMARK   12  A    between atoms: C_37  and  C_38
REMARK                            x       y       z     vdW  Elec       q    Type
REMARK                         _______ _______ _______ _____ _____    ______ ____
ROOT
ATOM      1  C   UNL     1      -0.683  -3.240   8.405  0.00  0.00    +0.036 A 
ATOM      2  C   UNL     1       0.239  -2.422   9.044  0.00  0.00    +0.024 A 
ATOM      3  C   UNL     1       0.268  -2.363  10.424  0.00  0.00    +0.005 A 
ATOM      4  C   UNL     1      -0.620  -3.118  11.169  0.00  0.00    -0.045 A 
ATOM      5  C   UNL     1      -1.539  -3.934  10.535  0.00  0.00    +0.005 A 
ATOM      6  C   UNL     1      -1.577  -3.993   9.156  0.00  0.00    +0.024 A 
ENDROOT
BRANCH   1  11
ATOM      7  C   UNL     1      -1.599  -3.643   4.804  0.00  0.00    +0.033 C 
ATOM      8  C   UNL     1      -0.267  -2.860   4.750  0.00  0.00    +0.103 C 
ATOM      9  C   UNL     1       0.031  -2.533   6.197  0.00  0.00    +0.220 C 
ATOM     10  O   UNL     1       0.827  -1.698   6.571  0.00  0.00    -0.275 OA
ATOM     11  N   UNL     1      -0.716  -3.302   7.008  0.00  0.00    -0.271 N 
ATOM     12  C   UNL     1      -1.570  -4.216   6.239  0.00  0.00    +0.119 C 
BRANCH   7  13
ATOM     13  C   UNL     1      -1.616  -4.766   3.766  0.00  0.00    +0.108 C 
BRANCH  13  21
ATOM     14  C   UNL     1      -1.661  -8.715   0.501  0.00  0.00    +0.044 C 
ATOM     15  C   UNL     1      -1.704  -7.215   0.361  0.00  0.00    -0.046 A 
ATOM     16  C   UNL     1      -1.773  -6.621  -0.893  0.00  0.00    +0.021 A 
ATOM     17  C   UNL     1      -1.811  -5.244  -0.987  0.00  0.00    +0.084 A 
ATOM     18  N   UNL     1      -1.783  -4.491   0.096  0.00  0.00    -0.350 N 
ATOM     19  C   UNL     1      -1.717  -5.020   1.308  0.00  0.00    +0.096 A 
ATOM     20  C   UNL     1      -1.681  -6.400   1.478  0.00  0.00    +0.045 A 
ATOM     21  N   UNL     1      -1.689  -4.188   2.422  0.00  0.00    -0.330 N 
ATOM     22  H   UNL     1      -1.718  -3.225   2.309  0.00  0.00    +0.147 HD
ATOM     23  H   UNL     1      -1.811  -3.526   0.002  0.00  0.00    +0.166 HD
ENDBRANCH  13  21
ENDBRANCH   7  13
ENDBRANCH   1  11
BRANCH   4  24
ATOM     24  C   UNL     1      -0.585  -3.051  12.674  0.00  0.00    +0.069 C 
BRANCH  24  25
ATOM     25  CA  UNL     1      -1.520  -1.941  13.157  0.00  0.00    +0.191 C 
BRANCH  25  26
ATOM     26  N   UNL     1      -1.015  -0.644  12.700  0.00  0.00    -0.298 N 
ATOM     27  C   UNL     1      -1.863   0.393  12.546  0.00  0.00    +0.245 C 
ATOM     28  O   UNL     1      -3.046   0.252  12.788  0.00  0.00    -0.270 OA
ATOM     29  H   UNL     1      -0.071  -0.532  12.507  0.00  0.00    +0.150 HD
BRANCH  27  30
ATOM     30  C   UNL     1      -1.353   1.702  12.085  0.00  0.00    +0.043 A 
ATOM     31  C   UNL     1      -1.311   1.996  10.722  0.00  0.00    -0.038 A 
ATOM     32  C   UNL     1      -0.835   3.220  10.298  0.00  0.00    +0.007 A 
ATOM     33  C   UNL     1      -0.400   4.154  11.221  0.00  0.00    -0.050 A 
ATOM     34  C   UNL     1      -0.438   3.868  12.574  0.00  0.00    +0.007 A 
ATOM     35  C   UNL     1      -0.917   2.650  13.012  0.00  0.00    -0.038 A 
ATOM     36  C   UNL     1      -0.965   2.343  14.486  0.00  0.00    +0.044 C 
ATOM     37  C   UNL     1       0.120   5.488  10.751  0.00  0.00    +0.044 C 
ATOM     38  C   UNL     1      -1.785   0.980   9.714  0.00  0.00    +0.044 C 
ENDBRANCH  27  30
ENDBRANCH  25  26
BRANCH  25  39
ATOM     39  C   UNL     1      -1.580  -1.955  14.663  0.00  0.00    +0.376 C 
ATOM     40  O   UNL     1      -1.067  -1.051  15.301  0.00  0.00    -0.244 OA
ATOM     41  OXT UNL     1      -2.141  -2.869  15.242  0.00  0.00    -0.244 OA
ENDBRANCH  25  39
ENDBRANCH  24  25
ENDBRANCH   4  24
TORSDOF 8
