REMARK  Name = ZINC19294395
REMARK  16 active torsions:
REMARK  status: ('A' for Active; 'I' for Inactive)
REMARK    1  A    between atoms: C_1  and  C_2
REMARK    2  A    between atoms: C_2  and  C_3
REMARK    3  A    between atoms: C_3  and  N_4
REMARK    4  A    between atoms: N_4  and  C_5
REMARK    5  A    between atoms: C_6  and  N_21
REMARK    6  A    between atoms: N_7  and  C_14
REMARK    7  A    between atoms: C_14  and  C_15
REMARK    8  A    between atoms: C_22  and  C_24
REMARK    9  A    between atoms: C_24  and  S_25
REMARK   10  A    between atoms: S_25  and  C_26
REMARK   11  A    between atoms: C_28  and  C_36
REMARK   12  A    between atoms: C_29  and  C_35
REMARK   13  A    between atoms: N_30  and  C_31
REMARK   14  A    between atoms: C_31  and  C_32
REMARK   15  A    between atoms: C_32  and  C_33
REMARK   16  A    between atoms: C_32  and  C_34
REMARK                            x       y       z     vdW  Elec       q    Type
REMARK                         _______ _______ _______ _____ _____    ______ ____
ROOT
ATOM      1  N   UNL     1       4.710   4.606   4.902  0.00  0.00    -0.264 N 
ATOM      2  C   UNL     1       3.629   4.529   4.099  0.00  0.00    +0.230 C 
ATOM      3  O   UNL     1       3.348   5.457   3.369  0.00  0.00    -0.274 OA
ENDROOT
BRANCH   1   4
ATOM      4  C   UNL     1       5.569   5.722   4.823  0.00  0.00    +0.140 A 
ATOM      5  C   UNL     1       6.272   5.987   3.665  0.00  0.00    +0.128 A 
ATOM      6  N   UNL     1       7.099   7.085   3.618  0.00  0.00    -0.276 N 
ATOM      7  C   UNL     1       7.229   7.886   4.691  0.00  0.00    +0.331 A 
ATOM      8  O   UNL     1       7.969   8.849   4.630  0.00  0.00    -0.246 OA
ATOM      9  N   UNL     1       6.556   7.641   5.829  0.00  0.00    -0.273 N 
ATOM     10  H   UNL     1       6.677   8.310   6.694  0.00  0.00    +0.173 HD
ATOM     11  C   UNL     1       5.730   6.582   5.926  0.00  0.00    +0.277 A 
ATOM     12  O   UNL     1       5.124   6.369   6.963  0.00  0.00    -0.266 OA
BRANCH   5  13
ATOM     13  N   UNL     1       6.144   5.165   2.571  0.00  0.00    -0.343 N 
ATOM     14  H   UNL     1       6.707   5.382   1.651  0.00  0.00    +0.144 HD
ATOM     15  H   UNL     1       5.478   4.291   2.615  0.00  0.00    +0.144 HD
ENDBRANCH   5  13
BRANCH   6  16
ATOM     16  C   UNL     1       7.847   7.380   2.393  0.00  0.00    +0.163 C 
BRANCH  16  17
ATOM     17  C   UNL     1       9.182   6.683   2.440  0.00  0.00    -0.028 A 
ATOM     18  C   UNL     1      10.279   7.325   2.983  0.00  0.00    +0.005 A 
ATOM     19  C   UNL     1      11.502   6.683   3.030  0.00  0.00    +0.000 A 
ATOM     20  C   UNL     1      11.631   5.403   2.524  0.00  0.00    +0.000 A 
ATOM     21  C   UNL     1      10.535   4.763   1.976  0.00  0.00    +0.000 A 
ATOM     22  C   UNL     1       9.311   5.403   1.934  0.00  0.00    +0.005 A 
ENDBRANCH  16  17
ENDBRANCH   6  16
ENDBRANCH   1   4
BRANCH   1  23
ATOM     23  C   UNL     1       4.992   3.530   5.856  0.00  0.00    +0.114 C 
BRANCH  23  25
ATOM     24  C   UNL     1       6.210   1.376   6.199  0.00  0.00    +0.005 C 
ATOM     25  C   UNL     1       5.915   2.499   5.203  0.00  0.00    +0.016 C 
ENDBRANCH  23  25
ENDBRANCH   1  23
BRANCH   2  26
ATOM     26  C   UNL     1       2.769   3.292   4.109  0.00  0.00    +0.173 C 
BRANCH  26  27
ATOM     27  S   UNL     1       1.407   3.493   2.933  0.00  0.00    -0.078 S 
BRANCH  27  28
ATOM     28  C   UNL     1       0.589   1.947   3.145  0.00  0.00    +0.170 A 
ATOM     29  N   UNL     1       0.958   0.988   3.962  0.00  0.00    -0.227 NA
ATOM     30  C   UNL     1       0.099  -0.040   3.857  0.00  0.00    +0.060 A 
ATOM     31  C   UNL     1      -0.840   0.284   2.952  0.00  0.00    +0.039 A 
ATOM     32  N   UNL     1      -0.534   1.544   2.489  0.00  0.00    -0.322 N 
ATOM     33  C   UNL     1      -2.005  -0.570   2.524  0.00  0.00    +0.065 C 
ATOM     34  C   UNL     1       0.173  -1.333   4.628  0.00  0.00    +0.067 C 
BRANCH  32  35
ATOM     35  C   UNL     1      -1.279   2.309   1.486  0.00  0.00    +0.127 C 
BRANCH  35  36
ATOM     36  C   UNL     1      -0.724   2.000   0.094  0.00  0.00    +0.003 C 
ATOM     37  C   UNL     1       0.718   2.502  -0.003  0.00  0.00    +0.009 C 
ATOM     38  C   UNL     1      -1.580   2.700  -0.963  0.00  0.00    +0.009 C 
ENDBRANCH  35  36
ENDBRANCH  32  35
ENDBRANCH  27  28
ENDBRANCH  26  27
ENDBRANCH   2  26
TORSDOF 11
