REMARK  Name = ZINC12355166
REMARK  6 active torsions:
REMARK  status: ('A' for Active; 'I' for Inactive)
REMARK    1  A    between atoms: C_6  and  O_7
REMARK    2  A    between atoms: O_7  and  C_8
REMARK    3  A    between atoms: C_8  and  C_9
REMARK    4  A    between atoms: C_9  and  C_10
REMARK    5  A    between atoms: C_10  and  C_21
REMARK    6  A    between atoms: N_13  and  C_16
REMARK                            x       y       z     vdW  Elec       q    Type
REMARK                         _______ _______ _______ _____ _____    ______ ____
ROOT
ATOM      1  O   UNL     1       1.236  -2.878   3.680  0.00  0.00    -0.492 OA
ENDROOT
BRANCH   1   7
ATOM      2  C   UNL     1      -0.211  -2.725   1.796  0.00  0.00    +0.046 A 
ATOM      3  C   UNL     1      -0.713  -1.991   0.743  0.00  0.00    +0.007 A 
ATOM      4  C   UNL     1      -0.283  -0.688   0.519  0.00  0.00    -0.041 A 
ATOM      5  C   UNL     1       0.647  -0.124   1.364  0.00  0.00    -0.023 A 
ATOM      6  C   UNL     1       1.158  -0.862   2.421  0.00  0.00    +0.051 A 
ATOM      7  C   UNL     1       0.733  -2.161   2.642  0.00  0.00    +0.121 A 
ATOM      8  C   UNL     1       1.134   1.294   1.196  0.00  0.00    +0.143 C 
ATOM      9  N   UNL     1       0.692   1.818  -0.100  0.00  0.00    -0.301 N 
ATOM     10  C   UNL     1      -0.703   1.557  -0.494  0.00  0.00    +0.112 C 
ATOM     11  C   UNL     1      -0.869   0.047  -0.658  0.00  0.00    +0.054 C 
ATOM     12  C   UNL     1       1.544   2.525  -0.914  0.00  0.00    +0.151 C 
ATOM     13  N   UNL     1       2.841   2.754  -0.519  0.00  0.00    -0.333 N 
ATOM     14  H   UNL     1       1.649   3.489  -2.706  0.00  0.00    +0.158 HD
ATOM     15  H   UNL     1       3.154   2.416   0.335  0.00  0.00    +0.145 HD
ATOM     16  H   UNL     1       3.443   3.253  -1.093  0.00  0.00    +0.145 HD
ATOM     17  N   UNL     1       1.056   2.959  -2.067  0.00  0.00    -0.375 N 
ATOM     18  H   UNL     1       0.080   2.763  -2.317  0.00  0.00    +0.158 HD
ENDBRANCH   1   7
BRANCH   1  19
ATOM     19  C   UNL     1       0.748  -4.211   3.845  0.00  0.00    +0.230 C 
BRANCH  19  20
ATOM     20  C   UNL     1       1.424  -4.856   5.056  0.00  0.00    +0.059 C 
BRANCH  20  21
ATOM     21  C   UNL     1       0.902  -6.284   5.232  0.00  0.00    +0.078 C 
ATOM     22  C   UNL     1      -0.612  -6.250   5.459  0.00  0.00    +0.037 C 
ATOM     23  C   UNL     1      -0.912  -5.483   6.749  0.00  0.00    +0.106 C 
ATOM     24  N   UNL     1      -0.244  -6.141   7.878  0.00  0.00    -0.330 N 
ATOM     25  C   UNL     1       1.214  -6.143   7.705  0.00  0.00    +0.106 C 
ATOM     26  C   UNL     1       1.578  -6.930   6.444  0.00  0.00    +0.037 C 
BRANCH  24  27
ATOM     27  C   UNL     1      -0.602  -5.547   9.085  0.00  0.00    +0.032 A 
ATOM     28  C   UNL     1       0.370  -5.052   9.955  0.00  0.00    +0.040 A 
ATOM     29  C   UNL     1      -0.027  -4.465  11.138  0.00  0.00    +0.084 A 
ATOM     30  C   UNL     1      -2.254  -4.840  10.662  0.00  0.00    +0.084 A 
ATOM     31  C   UNL     1      -1.941  -5.436   9.458  0.00  0.00    +0.040 A 
ATOM     32  N   UNL     1      -1.326  -4.344  11.525  0.00  0.00    -0.367 N 
ATOM     33  H   UNL     1      -1.590  -3.906  12.415  0.00  0.00    +0.165 HD
ENDBRANCH  24  27
BRANCH  21  34
ATOM     34  C   UNL     1       1.210  -7.088   3.995  0.00  0.00    +0.362 C 
ATOM     35  O   UNL     1       1.901  -8.076   4.074  0.00  0.00    -0.246 OA
ATOM     36  O   UNL     1       0.716  -6.707   2.807  0.00  0.00    -0.246 OA
ENDBRANCH  21  34
ENDBRANCH  20  21
ENDBRANCH  19  20
ENDBRANCH   1  19
TORSDOF 6
