REMARK  Name = ZINC63277032
REMARK  5 active torsions:
REMARK  status: ('A' for Active; 'I' for Inactive)
REMARK    1  A    between atoms: C_1  and  N_2
REMARK    2  A    between atoms: C_4  and  C_16
REMARK    3  A    between atoms: C_5  and  C_7
REMARK    4  A    between atoms: C_10  and  N_13
REMARK    5  A    between atoms: N_22  and  C_23
REMARK                            x       y       z     vdW  Elec       q    Type
REMARK                         _______ _______ _______ _____ _____    ______ ____
ROOT
ATOM      1  C   UNL     1      -0.018   1.461   0.010  0.00  0.00    +0.172 C 
ATOM      2  N   UNL     1       0.002  -0.004   0.002  0.00  0.00    -0.273 N 
ATOM      3  C   UNL     1       0.007  -0.771  -1.101  0.00  0.00    +0.116 A 
ATOM      4  C   UNL     1       0.027  -2.094  -0.696  0.00  0.00    +0.022 A 
ATOM      5  C   UNL     1       0.034  -2.076   0.772  0.00  0.00    +0.100 A 
ATOM      6  N   UNL     1       0.024  -0.815   1.140  0.00  0.00    -0.171 NA
ENDROOT
BRANCH   4   7
ATOM      7  C   UNL     1       0.039  -3.278  -1.561  0.00  0.00    +0.032 C 
ATOM      8  C   UNL     1       0.031  -3.133  -2.911  0.00  0.00    +0.080 C 
ATOM      9  C   UNL     1       0.033  -4.161  -3.975  0.00  0.00    +0.276 C 
ATOM     10  O   UNL     1       0.044  -5.354  -3.717  0.00  0.00    -0.267 OA
ATOM     11  N   UNL     1       0.024  -3.720  -5.214  0.00  0.00    -0.154 NA
ATOM     12  C   UNL     1       0.012  -2.429  -5.508  0.00  0.00    +0.152 C 
ATOM     13  N   UNL     1       0.001  -1.838  -6.744  0.00  0.00    -0.322 N 
ATOM     14  S   UNL     1       0.006  -1.645  -3.903  0.00  0.00    -0.052 S 
ATOM     15  H   UNL     1      -0.008  -0.871  -6.819  0.00  0.00    +0.148 HD
BRANCH  13  16
ATOM     16  C   UNL     1       0.002  -2.667  -7.952  0.00  0.00    +0.072 C 
ATOM     17  C   UNL     1       1.451  -2.999  -8.364  0.00  0.00    +0.022 C 
ATOM     18  C   UNL     1       1.424  -2.961  -9.912  0.00  0.00    +0.002 C 
ATOM     19  C   UNL     1       0.470  -1.776 -10.209  0.00  0.00    +0.002 C 
ATOM     20  C   UNL     1      -0.622  -1.890  -9.125  0.00  0.00    +0.022 C 
ENDBRANCH  13  16
ENDBRANCH   4   7
BRANCH   5  21
ATOM     21  C   UNL     1       0.054  -3.256   1.668  0.00  0.00    +0.003 A 
ATOM     22  C   UNL     1      -0.619  -4.422   1.305  0.00  0.00    +0.012 A 
ATOM     23  C   UNL     1      -0.596  -5.518   2.143  0.00  0.00    +0.033 A 
ATOM     24  C   UNL     1       0.092  -5.462   3.342  0.00  0.00    +0.126 A 
ATOM     25  C   UNL     1       0.761  -4.307   3.707  0.00  0.00    +0.033 A 
ATOM     26  C   UNL     1       0.750  -3.207   2.875  0.00  0.00    +0.012 A 
BRANCH  24  27
ATOM     27  N   UNL     1       0.113  -6.641   4.236  0.00  0.00    +0.056 N 
ATOM     28  O   UNL     1      -0.471  -7.650   3.919  0.00  0.00    -0.126 OA
ATOM     29  O   UNL     1       0.714  -6.594   5.284  0.00  0.00    -0.126 OA
ENDBRANCH  24  27
ENDBRANCH   5  21
TORSDOF 4
