REMARK  Name = ZINC56721461
REMARK  6 active torsions:
REMARK  status: ('A' for Active; 'I' for Inactive)
REMARK    1  A    between atoms: C_1  and  C_2
REMARK    2  A    between atoms: C_2  and  C_4
REMARK    3  A    between atoms: C_2  and  N_14
REMARK    4  A    between atoms: C_8  and  N_10
REMARK    5  A    between atoms: C_11  and  C_13
REMARK    6  A    between atoms: N_17  and  C_18
REMARK                            x       y       z     vdW  Elec       q    Type
REMARK                         _______ _______ _______ _____ _____    ______ ____
ROOT
ATOM      1  N   UNL     1       0.498  -0.175   1.174  0.00  0.00    -0.293 N 
ATOM      2  C   UNL     1       1.790  -0.117   0.792  0.00  0.00    +0.304 C 
ATOM      3  O   UNL     1       2.082   0.334  -0.298  0.00  0.00    -0.252 OA
ATOM      4  N   UNL     1       2.757  -0.558   1.620  0.00  0.00    -0.266 N 
ATOM      5  H   UNL     1       0.265  -0.535   2.044  0.00  0.00    +0.151 HD
ATOM      6  H   UNL     1       2.521  -0.995   2.454  0.00  0.00    +0.156 HD
ENDROOT
BRANCH   4   7
ATOM      7  C   UNL     1       4.106  -0.387   1.277  0.00  0.00    +0.080 A 
ATOM      8  C   UNL     1       4.466   0.565   0.333  0.00  0.00    +0.027 A 
ATOM      9  C   UNL     1       5.795   0.734  -0.006  0.00  0.00    +0.006 A 
ATOM     10  C   UNL     1       6.769  -0.044   0.592  0.00  0.00    +0.049 A 
ATOM     11  C   UNL     1       6.417  -0.998   1.537  0.00  0.00    +0.164 A 
ATOM     12  C   UNL     1       5.085  -1.166   1.887  0.00  0.00    +0.183 A 
ATOM     13  O   UNL     1       4.719  -2.088   2.821  0.00  0.00    -0.483 OA
ATOM     14  C   UNL     1       5.681  -3.101   3.135  0.00  0.00    +0.270 C 
ATOM     15  C   UNL     1       7.044  -2.425   3.334  0.00  0.00    +0.270 C 
ATOM     16  O   UNL     1       7.389  -1.757   2.113  0.00  0.00    -0.485 OA
ENDBRANCH   4   7
BRANCH   1  18
ATOM     17  C   UNL     1      -0.723   1.815   0.448  0.00  0.00    +0.033 C 
ATOM     18  C   UNL     1      -0.554   0.304   0.274  0.00  0.00    +0.102 C 
BRANCH  18  19
ATOM     19  C   UNL     1      -1.851  -0.388   0.603  0.00  0.00    -0.026 A 
ATOM     20  C   UNL     1      -2.201  -0.608   1.923  0.00  0.00    +0.005 A 
ATOM     21  C   UNL     1      -3.390  -1.243   2.229  0.00  0.00    +0.002 A 
ATOM     22  C   UNL     1      -4.233  -1.659   1.217  0.00  0.00    +0.023 A 
ATOM     23  C   UNL     1      -3.885  -1.439  -0.109  0.00  0.00    +0.034 A 
ATOM     24  C   UNL     1      -2.692  -0.797  -0.413  0.00  0.00    +0.028 A 
BRANCH  23  25
ATOM     25  N   UNL     1      -4.737  -1.860  -1.136  0.00  0.00    -0.286 N 
ATOM     26  C   UNL     1      -6.072  -1.830  -0.959  0.00  0.00    +0.214 C 
ATOM     27  O   UNL     1      -6.539  -1.354   0.054  0.00  0.00    -0.276 OA
ATOM     28  C   UNL     1      -6.986  -2.387  -2.020  0.00  0.00    +0.109 C 
ATOM     29  H   UNL     1      -4.366  -2.174  -1.976  0.00  0.00    +0.155 HD
ENDBRANCH  23  25
ENDBRANCH  18  19
ENDBRANCH   1  18
TORSDOF 4
