REMARK  Name = ZINC23492715
REMARK  6 active torsions:
REMARK  status: ('A' for Active; 'I' for Inactive)
REMARK    1  A    between atoms: C_1  and  N_2
REMARK    2  A    between atoms: C_3  and  C_22
REMARK    3  A    between atoms: C_6  and  S_7
REMARK    4  A    between atoms: S_7  and  C_8
REMARK    5  A    between atoms: C_8  and  C_10
REMARK    6  A    between atoms: C_8  and  C_16
REMARK                            x       y       z     vdW  Elec       q    Type
REMARK                         _______ _______ _______ _____ _____    ______ ____
ROOT
ATOM      1  C   UNL     1       1.504  -6.906  -0.695  0.00  0.00    +0.170 C 
ENDROOT
BRANCH   1   2
ATOM      2  C   UNL     1       2.104  -8.273  -0.898  0.00  0.00    +0.238 C 
ATOM      3  O   UNL     1       3.215  -8.383  -1.372  0.00  0.00    -0.274 OA
ATOM      4  N   UNL     1       1.407  -9.373  -0.553  0.00  0.00    -0.239 N 
ATOM      5  C   UNL     1       1.944 -10.596  -0.735  0.00  0.00    +0.303 C 
ATOM      6  O   UNL     1       3.058 -10.706  -1.209  0.00  0.00    -0.253 OA
ATOM      7  N   UNL     1       1.247 -11.696  -0.390  0.00  0.00    -0.313 N 
ATOM      8  H   UNL     1       0.399  -9.274  -0.123  0.00  0.00    +0.159 HD
ATOM      9  H   UNL     1       1.685 -12.694  -0.538  0.00  0.00    +0.146 HD
ATOM     10  H   UNL     1       0.239 -11.597   0.040  0.00  0.00    +0.146 HD
ENDBRANCH   1   2
BRANCH   1  11
ATOM     11  C   UNL     1       0.546  -6.606  -1.820  0.00  0.00    -0.025 A 
ATOM     12  C   UNL     1       1.001  -6.575  -3.125  0.00  0.00    +0.005 A 
ATOM     13  C   UNL     1       0.122  -6.304  -4.157  0.00  0.00    +0.000 A 
ATOM     14  C   UNL     1      -1.210  -6.054  -3.883  0.00  0.00    +0.000 A 
ATOM     15  C   UNL     1      -1.663  -6.080  -2.577  0.00  0.00    +0.000 A 
ATOM     16  C   UNL     1      -0.785  -6.355  -1.546  0.00  0.00    +0.005 A 
ENDBRANCH   1  11
BRANCH   1  17
ATOM     17  S   UNL     1       2.821  -5.665  -0.677  0.00  0.00    -0.068 S 
BRANCH  17  23
ATOM     18  C   UNL     1       3.755  -2.518  -0.279  0.00  0.00    +0.153 C 
ATOM     19  N   UNL     1       2.364  -2.957  -0.139  0.00  0.00    -0.305 N 
ATOM     20  C   UNL     1       1.273  -2.178   0.168  0.00  0.00    +0.167 A 
ATOM     21  N   UNL     1       0.227  -2.970   0.186  0.00  0.00    -0.128 NA
ATOM     22  N   UNL     1       0.584  -4.175  -0.079  0.00  0.00    -0.122 NA
ATOM     23  C   UNL     1       1.881  -4.227  -0.283  0.00  0.00    +0.193 A 
BRANCH  20  24
ATOM     24  C   UNL     1       1.278  -0.721   0.422  0.00  0.00    +0.054 A 
ATOM     25  C   UNL     1       2.225  -0.162   1.281  0.00  0.00    +0.014 A 
ATOM     26  C   UNL     1       2.223   1.197   1.514  0.00  0.00    +0.001 A 
ATOM     27  C   UNL     1       1.286   2.008   0.899  0.00  0.00    +0.003 A 
ATOM     28  C   UNL     1       0.343   1.463   0.047  0.00  0.00    +0.039 A 
ATOM     29  C   UNL     1       0.333   0.102  -0.197  0.00  0.00    +0.134 A 
ATOM     30  F   UNL     1      -0.588  -0.430  -1.030  0.00  0.00    -0.205 F 
ENDBRANCH  20  24
ENDBRANCH  17  23
ENDBRANCH   1  17
TORSDOF 5
