REMARK  Name = ZINC56945853
REMARK  7 active torsions:
REMARK  status: ('A' for Active; 'I' for Inactive)
REMARK    1  A    between atoms: C_5  and  N_7
REMARK    2  A    between atoms: N_10  and  C_13
REMARK    3  A    between atoms: C_13  and  C_15
REMARK    4  A    between atoms: C_13  and  C_28
REMARK    5  A    between atoms: C_15  and  N_16
REMARK    6  A    between atoms: C_17  and  C_19
REMARK    7  A    between atoms: C_22  and  N_25
REMARK                            x       y       z     vdW  Elec       q    Type
REMARK                         _______ _______ _______ _____ _____    ______ ____
ROOT
ATOM      1  C   UNL     1       3.250  -5.761  -0.052  0.00  0.00    +0.140 C 
ENDROOT
BRANCH   1   5
ATOM      2  N   UNL     1       1.236  -2.079  -0.021  0.00  0.00    -0.325 N 
ATOM      3  C   UNL     1       1.254  -2.841   1.237  0.00  0.00    +0.120 C 
ATOM      4  C   UNL     1       2.403  -3.854   1.175  0.00  0.00    +0.104 C 
ATOM      5  N   UNL     1       2.270  -4.667  -0.041  0.00  0.00    -0.288 NA
ATOM      6  C   UNL     1       2.391  -3.840  -1.250  0.00  0.00    +0.104 C 
ATOM      7  C   UNL     1       1.236  -2.827  -1.288  0.00  0.00    +0.120 C 
BRANCH   2  12
ATOM      8  C   UNL     1      -0.017   1.377   0.010  0.00  0.00    +0.002 A 
ATOM      9  C   UNL     1       1.170   2.087   0.002  0.00  0.00    +0.003 A 
ATOM     10  C   UNL     1       2.380   1.418  -0.013  0.00  0.00    +0.040 A 
ATOM     11  C   UNL     1       2.406   0.035  -0.021  0.00  0.00    +0.144 A 
ATOM     12  C   UNL     1       1.214  -0.681  -0.013  0.00  0.00    +0.065 A 
ATOM     13  C   UNL     1       0.002  -0.004   0.002  0.00  0.00    +0.026 A 
ATOM     14  F   UNL     1       3.588  -0.619  -0.036  0.00  0.00    -0.204 F 
ENDBRANCH   2  12
ENDBRANCH   1   5
BRANCH   1  15
ATOM     15  C   UNL     1       4.642  -5.189  -0.126  0.00  0.00    +0.123 A 
ATOM     16  C   UNL     1       5.717  -5.647   0.539  0.00  0.00    +0.046 A 
ATOM     17  C   UNL     1       6.806  -4.821   0.177  0.00  0.00    +0.041 A 
ATOM     18  C   UNL     1       6.331  -3.908  -0.688  0.00  0.00    +0.195 A 
ATOM     19  O   UNL     1       5.021  -4.139  -0.873  0.00  0.00    -0.466 OA
ENDBRANCH   1  15
BRANCH   1  20
ATOM     20  C   UNL     1       3.001  -6.656  -1.268  0.00  0.00    +0.131 C 
BRANCH  20  21
ATOM     21  N   UNL     1       1.610  -7.117  -1.259  0.00  0.00    -0.309 N 
ATOM     22  C   UNL     1       1.160  -7.923  -2.241  0.00  0.00    +0.244 C 
ATOM     23  O   UNL     1       1.909  -8.268  -3.134  0.00  0.00    -0.270 OA
ATOM     24  H   UNL     1       1.013  -6.841  -0.546  0.00  0.00    +0.149 HD
BRANCH  22  25
ATOM     25  C   UNL     1      -0.243  -8.387  -2.232  0.00  0.00    +0.037 A 
ATOM     26  C   UNL     1      -1.107  -7.989  -1.210  0.00  0.00    +0.015 A 
ATOM     27  C   UNL     1      -2.415  -8.425  -1.208  0.00  0.00    +0.033 A 
ATOM     28  C   UNL     1      -2.872  -9.257  -2.215  0.00  0.00    +0.126 A 
ATOM     29  C   UNL     1      -2.021  -9.657  -3.229  0.00  0.00    +0.033 A 
ATOM     30  C   UNL     1      -0.712  -9.222  -3.247  0.00  0.00    +0.015 A 
BRANCH  28  31
ATOM     31  N   UNL     1      -4.277  -9.723  -2.205  0.00  0.00    +0.056 N 
ATOM     32  O   UNL     1      -5.023  -9.375  -1.319  0.00  0.00    -0.126 OA
ATOM     33  O   UNL     1      -4.679 -10.450  -3.083  0.00  0.00    -0.126 OA
ENDBRANCH  28  31
ENDBRANCH  22  25
ENDBRANCH  20  21
ENDBRANCH   1  20
TORSDOF 7
