REMARK  Name = ZINC23263016
REMARK  6 active torsions:
REMARK  status: ('A' for Active; 'I' for Inactive)
REMARK    1  A    between atoms: C_1  and  C_2
REMARK    2  A    between atoms: C_8  and  N_10
REMARK    3  A    between atoms: C_14  and  C_16
REMARK    4  A    between atoms: C_16  and  N_17
REMARK    5  A    between atoms: N_20  and  C_23
REMARK    6  A    between atoms: C_23  and  C_24
REMARK                            x       y       z     vdW  Elec       q    Type
REMARK                         _______ _______ _______ _____ _____    ______ ____
ROOT
ATOM      1  N   UNL     1       7.470  -0.525   3.860  0.00  0.00    -0.296 N 
ATOM      2  C   UNL     1       6.560  -0.151   2.939  0.00  0.00    +0.306 C 
ATOM      3  O   UNL     1       6.907   0.491   1.967  0.00  0.00    -0.252 OA
ATOM      4  N   UNL     1       5.264  -0.487   3.097  0.00  0.00    -0.242 N 
ATOM      5  C   UNL     1       4.354  -0.112   2.176  0.00  0.00    +0.204 C 
ATOM      6  O   UNL     1       4.701   0.528   1.206  0.00  0.00    -0.277 OA
ATOM      7  H   UNL     1       7.156  -1.106   4.739  0.00  0.00    +0.151 HD
ATOM      8  H   UNL     1       4.950  -1.067   3.977  0.00  0.00    +0.159 HD
ENDROOT
BRANCH   1  15
ATOM      9  C   UNL     1       9.527  -2.565   3.885  0.00  0.00    +0.009 C 
ATOM     10  C   UNL     1       9.760  -1.159   4.441  0.00  0.00    +0.006 C 
ATOM     11  C   UNL     1       9.404  -1.133   5.929  0.00  0.00    +0.005 C 
ATOM     12  C   UNL     1       9.637   0.273   6.485  0.00  0.00    +0.000 C 
ATOM     13  C   UNL     1       8.756   1.272   5.732  0.00  0.00    +0.002 C 
ATOM     14  C   UNL     1       9.112   1.246   4.244  0.00  0.00    +0.022 C 
ATOM     15  C   UNL     1       8.879  -0.160   3.688  0.00  0.00    +0.077 C 
ENDBRANCH   1  15
BRANCH   5  16
ATOM     16  C   UNL     1       2.905  -0.488   2.352  0.00  0.00    +0.019 C 
BRANCH  16  17
ATOM     17  N   UNL     1       2.123   0.034   1.224  0.00  0.00    +0.387 N 
ATOM     18  C   UNL     1       0.757  -0.508   1.234  0.00  0.00    -0.063 C 
ATOM     19  C   UNL     1       0.002  -0.004   0.002  0.00  0.00    +0.066 C 
ATOM     20  N   UNL     1      -0.018   1.465   0.010  0.00  0.00    -0.301 NA
ATOM     21  C   UNL     1       1.348   2.008   0.000  0.00  0.00    +0.066 C 
ATOM     22  C   UNL     1       2.103   1.504   1.232  0.00  0.00    -0.063 C 
ATOM     23  H   UNL     1       2.612  -0.294   0.295  0.00  0.00    -0.081 HD
BRANCH  20  24
ATOM     24  C   UNL     1      -0.800   1.987  -1.118  0.00  0.00    +0.126 C 
BRANCH  24  25
ATOM     25  C   UNL     1      -1.005   3.470  -0.944  0.00  0.00    +0.004 A 
ATOM     26  C   UNL     1      -0.229   4.496  -1.371  0.00  0.00    +0.012 A 
ATOM     27  C   UNL     1      -0.620   5.793  -1.097  0.00  0.00    +0.008 A 
ATOM     28  C   UNL     1      -1.764   6.000  -0.399  0.00  0.00    +0.045 A 
ATOM     29  S   UNL     1      -2.330   4.332  -0.114  0.00  0.00    -0.100 S 
ENDBRANCH  24  25
ENDBRANCH  20  24
ENDBRANCH  16  17
ENDBRANCH   5  16
TORSDOF 5
