REMARK  Name = ZINC05545985
REMARK  10 active torsions:
REMARK  status: ('A' for Active; 'I' for Inactive)
REMARK    1  A    between atoms: C_4  and  C_7
REMARK    2  A    between atoms: C_7  and  O_8
REMARK    3  A    between atoms: O_8  and  C_9
REMARK    4  A    between atoms: C_12  and  C_26
REMARK    5  A    between atoms: C_13  and  N_23
REMARK    6  A    between atoms: C_14  and  O_15
REMARK    7  A    between atoms: O_15  and  C_16
REMARK    8  A    between atoms: C_16  and  C_17
REMARK    9  A    between atoms: C_26  and  CA_27
REMARK   10  A    between atoms: CA_27  and  C_28
REMARK                            x       y       z     vdW  Elec       q    Type
REMARK                         _______ _______ _______ _____ _____    ______ ____
ROOT
ATOM      1  C   UNL     1       0.563  -0.079  -0.920  0.00  0.00    +0.165 A 
ATOM      2  C   UNL     1       1.698  -0.870  -0.798  0.00  0.00    +0.050 A 
ATOM      3  C   UNL     1       1.577  -2.222  -0.565  0.00  0.00    +0.010 A 
ATOM      4  C   UNL     1       0.308  -2.804  -0.461  0.00  0.00    -0.007 A 
ATOM      5  C   UNL     1      -0.835  -2.006  -0.589  0.00  0.00    +0.175 A 
ATOM      6  C   UNL     1      -0.704  -0.650  -0.818  0.00  0.00    +0.193 A 
ENDROOT
BRANCH   5   7
ATOM      7  N   UNL     1      -2.180  -2.615  -0.480  0.00  0.00    +0.060 N 
ATOM      8  O   UNL     1      -2.738  -3.040  -1.476  0.00  0.00    -0.126 OA
ATOM      9  O   UNL     1      -2.728  -2.689   0.605  0.00  0.00    -0.126 OA
ENDBRANCH   5   7
BRANCH   1  10
ATOM     10  O   UNL     1       0.689   1.255  -1.145  0.00  0.00    -0.484 OA
BRANCH  10  11
ATOM     11  C   UNL     1       2.016   1.775  -1.239  0.00  0.00    +0.264 C 
BRANCH  11  15
ATOM     12  C   UNL     1       1.850   5.985  -1.946  0.00  0.00    +0.000 A 
ATOM     13  C   UNL     1       1.883   5.502  -0.651  0.00  0.00    +0.000 A 
ATOM     14  C   UNL     1       1.936   4.140  -0.422  0.00  0.00    +0.007 A 
ATOM     15  C   UNL     1       1.957   3.260  -1.488  0.00  0.00    -0.010 A 
ATOM     16  C   UNL     1       1.930   3.743  -2.783  0.00  0.00    +0.007 A 
ATOM     17  C   UNL     1       1.871   5.105  -3.012  0.00  0.00    +0.000 A 
ENDBRANCH  11  15
ENDBRANCH  10  11
ENDBRANCH   1  10
BRANCH   6  18
ATOM     18  O   UNL     1      -1.813   0.128  -0.943  0.00  0.00    -0.481 OA
BRANCH  18  19
ATOM     19  C   UNL     1      -2.347   0.287  -2.259  0.00  0.00    +0.264 C 
BRANCH  19  20
ATOM     20  C   UNL     1      -3.564   1.175  -2.202  0.00  0.00    -0.010 A 
ATOM     21  C   UNL     1      -4.816   0.620  -2.016  0.00  0.00    +0.007 A 
ATOM     22  C   UNL     1      -5.932   1.434  -1.959  0.00  0.00    +0.000 A 
ATOM     23  C   UNL     1      -5.796   2.803  -2.098  0.00  0.00    +0.000 A 
ATOM     24  C   UNL     1      -4.545   3.357  -2.289  0.00  0.00    +0.000 A 
ATOM     25  C   UNL     1      -3.429   2.543  -2.341  0.00  0.00    +0.007 A 
ENDBRANCH  19  20
ENDBRANCH  18  19
ENDBRANCH   6  18
BRANCH   4  26
ATOM     26  C   UNL     1       0.176  -4.247  -0.217  0.00  0.00    +0.099 C 
BRANCH  26  27
ATOM     27  CA  UNL     1       1.143  -4.911   0.461  0.00  0.00    +0.125 C 
ATOM     28  N   UNL     1       2.189  -4.202   1.061  0.00  0.00    -0.297 NA
ATOM     29  H   UNL     1       2.222  -3.235   0.991  0.00  0.00    +0.187 HD
BRANCH  27  30
ATOM     30  C   UNL     1       1.094  -6.373   0.565  0.00  0.00    +0.400 C 
ATOM     31  O   UNL     1       0.184  -6.990   0.043  0.00  0.00    -0.239 OA
ATOM     32  OXT UNL     1       2.057  -7.035   1.240  0.00  0.00    -0.239 OA
ENDBRANCH  27  30
ENDBRANCH  26  27
ENDBRANCH   4  26
TORSDOF 10
