REMARK  Name = ZINC23956778
REMARK  9 active torsions:
REMARK  status: ('A' for Active; 'I' for Inactive)
REMARK    1  A    between atoms: C_1  and  C_2
REMARK    2  A    between atoms: C_2  and  C_3
REMARK    3  A    between atoms: C_3  and  C_4
REMARK    4  A    between atoms: C_4  and  N_5
REMARK    5  A    between atoms: C_9  and  S_32
REMARK    6  A    between atoms: C_13  and  C_14
REMARK    7  A    between atoms: C_14  and  N_15
REMARK    8  A    between atoms: C_18  and  N_21
REMARK    9  A    between atoms: S_32  and  N_35
REMARK                            x       y       z     vdW  Elec       q    Type
REMARK                         _______ _______ _______ _____ _____    ______ ____
ROOT
ATOM      1  N   UNL     1      -6.614   6.179   1.832  0.00  0.00    -0.326 N 
ATOM      2  C   UNL     1      -6.780   6.564   3.147  0.00  0.00    +0.069 A 
ATOM      3  C   UNL     1      -7.826   6.474   4.057  0.00  0.00    +0.030 A 
ATOM      4  C   UNL     1      -7.668   6.977   5.330  0.00  0.00    +0.030 A 
ATOM      5  C   UNL     1      -6.472   7.573   5.708  0.00  0.00    +0.107 A 
ATOM      6  C   UNL     1      -5.433   7.670   4.827  0.00  0.00    +0.058 A 
ATOM      7  C   UNL     1      -5.570   7.167   3.531  0.00  0.00    +0.091 A 
ATOM      8  N   UNL     1      -4.744   7.114   2.454  0.00  0.00    -0.231 NA
ATOM      9  C   UNL     1      -5.354   6.534   1.463  0.00  0.00    +0.125 A 
ENDROOT
BRANCH   5  10
ATOM     10  S   UNL     1      -6.293   8.209   7.341  0.00  0.00    +0.056 S 
ATOM     11  O   UNL     1      -5.279   9.203   7.281  0.00  0.00    -0.153 OA
ATOM     12  O   UNL     1      -7.604   8.486   7.815  0.00  0.00    -0.153 OA
BRANCH  10  13
ATOM     13  N   UNL     1      -5.699   6.983   8.283  0.00  0.00    -0.204 NA
ATOM     14  H   UNL     1      -5.572   7.341   9.315  0.00  0.00    +0.144 HD
ATOM     15  H   UNL     1      -4.727   6.655   7.886  0.00  0.00    +0.144 HD
ENDBRANCH  10  13
ENDBRANCH   5  10
BRANCH   1  16
ATOM     16  C   UNL     1      -7.610   5.510   0.991  0.00  0.00    +0.123 C 
BRANCH  16  17
ATOM     17  C   UNL     1      -7.466   3.994   1.140  0.00  0.00    +0.021 C 
BRANCH  17  19
ATOM     18  C   UNL     1      -8.363   1.779   0.410  0.00  0.00    +0.004 C 
ATOM     19  C   UNL     1      -8.506   3.295   0.262  0.00  0.00    -0.002 C 
ENDBRANCH  17  19
ENDBRANCH  16  17
ENDBRANCH   1  16
BRANCH   9  20
ATOM     20  C   UNL     1      -4.754   6.294   0.101  0.00  0.00    +0.158 C 
BRANCH  20  21
ATOM     21  N   UNL     1      -4.083   4.987   0.085  0.00  0.00    -0.295 NA
ATOM     22  C   UNL     1      -3.288   4.819  -1.139  0.00  0.00    +0.087 C 
ATOM     23  C   UNL     1      -2.723   3.398  -1.190  0.00  0.00    +0.040 C 
ATOM     24  C   UNL     1      -1.852   3.155   0.045  0.00  0.00    +0.095 C 
ATOM     25  C   UNL     1      -2.689   3.384   1.306  0.00  0.00    +0.040 C 
ATOM     26  C   UNL     1      -3.256   4.805   1.284  0.00  0.00    +0.087 C 
BRANCH  24  27
ATOM     27  N   UNL     1      -1.355   1.776   0.030  0.00  0.00    -0.289 N 
ATOM     28  C   UNL     1      -0.017   1.392   0.010  0.00  0.00    +0.070 A 
ATOM     29  C   UNL     1       1.176   2.099   0.002  0.00  0.00    +0.028 A 
ATOM     30  C   UNL     1       2.378   1.419  -0.012  0.00  0.00    +0.002 A 
ATOM     31  C   UNL     1       2.397   0.035  -0.020  0.00  0.00    +0.002 A 
ATOM     32  C   UNL     1       1.214  -0.678  -0.013  0.00  0.00    +0.028 A 
ATOM     33  C   UNL     1       0.002  -0.004   0.002  0.00  0.00    +0.067 A 
ATOM     34  N   UNL     1      -1.326  -0.425   0.012  0.00  0.00    -0.306 N 
ATOM     35  H   UNL     1      -1.562  -1.499   0.009  0.00  0.00    +0.170 HD
ATOM     36  C   UNL     1      -2.116   0.665   0.026  0.00  0.00    +0.328 A 
ATOM     37  O   UNL     1      -3.333   0.649   0.037  0.00  0.00    -0.247 OA
ENDBRANCH  24  27
ENDBRANCH  20  21
ENDBRANCH   9  20
TORSDOF 8
