REMARK  Name = ZINC67378306
REMARK  10 active torsions:
REMARK  status: ('A' for Active; 'I' for Inactive)
REMARK    1  A    between atoms: C_1  and  C_2
REMARK    2  A    between atoms: C_4  and  C_7
REMARK    3  A    between atoms: C_7  and  N_12
REMARK    4  A    between atoms: N_12  and  C_13
REMARK    5  A    between atoms: C_13  and  C_14
REMARK    6  A    between atoms: C_21  and  O_23
REMARK    7  A    between atoms: O_23  and  C_24
REMARK    8  A    between atoms: C_24  and  C_25
REMARK    9  A    between atoms: C_24  and  C_26
REMARK   10  A    between atoms: C_24  and  C_27
REMARK                            x       y       z     vdW  Elec       q    Type
REMARK                         _______ _______ _______ _____ _____    ______ ____
ROOT
ATOM      1  N   UNL     1      -0.807  -4.499  -0.002  0.00  0.00    +0.388 N 
ATOM      2  H   UNL     1      -1.434  -5.289   0.009  0.00  0.00    -0.084 HD
ATOM      3  H   UNL     1      -0.230  -4.538  -0.829  0.00  0.00    -0.084 HD
ENDROOT
BRANCH   1   4
ATOM      4  C   UNL     1      -1.588  -3.254  -0.008  0.00  0.00    -0.004 C 
ATOM      5  C   UNL     1      -2.514  -3.205   1.224  0.00  0.00    -0.005 C 
ATOM      6  C   UNL     1      -3.810  -2.538   0.699  0.00  0.00    -0.001 C 
ATOM      7  C   UNL     1      -3.950  -3.136  -0.723  0.00  0.00    -0.001 C 
ATOM      8  C   UNL     1      -2.500  -3.211  -1.246  0.00  0.00    -0.005 C 
BRANCH   4  12
ATOM      9  C   UNL     1      -0.018   1.503   0.010  0.00  0.00    +0.112 C 
ATOM     10  C   UNL     1       0.002  -0.004   0.002  0.00  0.00    +0.224 A 
ATOM     11  N   UNL     1      -1.044  -0.783   0.003  0.00  0.00    -0.198 NA
ATOM     12  C   UNL     1      -0.663  -2.065  -0.006  0.00  0.00    +0.161 A 
ATOM     13  N   UNL     1       0.638  -2.118  -0.012  0.00  0.00    -0.063 NA
ATOM     14  O   UNL     1       1.097  -0.774  -0.013  0.00  0.00    -0.338 OA
ENDBRANCH   4  12
ENDBRANCH   1   4
BRANCH   1  15
ATOM     15  C   UNL     1       0.047  -4.535   1.193  0.00  0.00    -0.076 C 
BRANCH  15  16
ATOM     16  C   UNL     1       0.860  -5.831   1.200  0.00  0.00    -0.011 C 
ATOM     17  C   UNL     1       1.838  -5.814   2.376  0.00  0.00    +0.005 C 
ATOM     18  C   UNL     1       2.675  -7.096   2.365  0.00  0.00    +0.019 C 
ATOM     19  C   UNL     1       1.750  -8.306   2.522  0.00  0.00    +0.111 C 
ATOM     20  N   UNL     1       0.717  -8.251   1.479  0.00  0.00    -0.267 N 
ATOM     21  C   UNL     1      -0.086  -7.027   1.343  0.00  0.00    +0.112 C 
ATOM     22  C   UNL     1       0.509  -9.302   0.661  0.00  0.00    +0.403 C 
ATOM     23  O   UNL     1      -0.349  -9.244  -0.198  0.00  0.00    -0.226 OA
BRANCH  22  24
ATOM     24  O   UNL     1       1.251 -10.417   0.796  0.00  0.00    -0.445 OA
BRANCH  24  25
ATOM     25  C   UNL     1       0.977 -11.492  -0.104  0.00  0.00    +0.107 C 
ATOM     26  C   UNL     1       1.200 -11.022  -1.543  0.00  0.00    +0.055 C 
ATOM     27  C   UNL     1       1.913 -12.664   0.200  0.00  0.00    +0.055 C 
ATOM     28  C   UNL     1      -0.475 -11.942   0.067  0.00  0.00    +0.055 C 
ENDBRANCH  24  25
ENDBRANCH  22  24
ENDBRANCH  15  16
ENDBRANCH   1  15
TORSDOF 6
