REMARK  Name = ZINC13298941
REMARK  5 active torsions:
REMARK  status: ('A' for Active; 'I' for Inactive)
REMARK    1  A    between atoms: C_4  and  N_7
REMARK    2  A    between atoms: C_8  and  C_10
REMARK    3  A    between atoms: N_13  and  C_16
REMARK    4  A    between atoms: N_19  and  C_24
REMARK    5  A    between atoms: C_27  and  C_30
REMARK                            x       y       z     vdW  Elec       q    Type
REMARK                         _______ _______ _______ _____ _____    ______ ____
ROOT
ATOM      1  C   UNL     1       6.586   8.765   0.879  0.00  0.00    +0.074 A 
ATOM      2  C   UNL     1       7.672   8.490   0.020  0.00  0.00    +0.158 A 
ATOM      3  N   UNL     1       8.740   9.237   0.047  0.00  0.00    -0.170 NA
ATOM      4  N   UNL     1       8.843  10.316   0.931  0.00  0.00    -0.195 N 
ATOM      5  C   UNL     1       7.832  10.612   1.772  0.00  0.00    +0.292 A 
ATOM      6  O   UNL     1       7.929  11.556   2.541  0.00  0.00    -0.264 OA
ATOM      7  C   UNL     1       6.669   9.829   1.759  0.00  0.00    +0.129 A 
ATOM      8 CL   UNL     1       5.354  10.188   2.833  0.00  0.00    -0.076 Cl
ENDROOT
BRANCH   1  12
ATOM      9  C   UNL     1       3.762   5.797  -0.023  0.00  0.00    +0.078 C 
ATOM     10  C   UNL     1       4.456   5.791   1.342  0.00  0.00    +0.031 C 
ATOM     11  C   UNL     1       5.754   6.597   1.252  0.00  0.00    +0.106 C 
ATOM     12  N   UNL     1       5.449   7.974   0.844  0.00  0.00    -0.327 N 
ATOM     13  C   UNL     1       4.825   8.009  -0.485  0.00  0.00    +0.106 C 
ATOM     14  C   UNL     1       3.499   7.245  -0.447  0.00  0.00    +0.031 C 
BRANCH   9  16
ATOM     15  N   UNL     1       2.440   3.757   0.434  0.00  0.00    -0.285 N 
ATOM     16  C   UNL     1       2.454   5.056   0.074  0.00  0.00    +0.220 C 
ATOM     17  O   UNL     1       1.413   5.628  -0.171  0.00  0.00    -0.275 OA
ATOM     18  H   UNL     1       3.263   3.320   0.704  0.00  0.00    +0.155 HD
BRANCH  15  22
ATOM     19  C   UNL     1      -1.138   1.623   0.392  0.00  0.00    +0.000 A 
ATOM     20  C   UNL     1      -0.918   2.619  -0.541  0.00  0.00    +0.002 A 
ATOM     21  C   UNL     1       0.267   3.330  -0.529  0.00  0.00    +0.023 A 
ATOM     22  C   UNL     1       1.239   3.039   0.419  0.00  0.00    +0.033 A 
ATOM     23  C   UNL     1       1.017   2.034   1.351  0.00  0.00    +0.023 A 
ATOM     24  C   UNL     1      -0.169   1.327   1.333  0.00  0.00    +0.002 A 
ENDBRANCH  15  22
ENDBRANCH   9  16
ENDBRANCH   1  12
BRANCH   4  25
ATOM     25  C   UNL     1      10.002  11.095   0.941  0.00  0.00    +0.069 A 
ATOM     26  C   UNL     1      10.529  11.570  -0.256  0.00  0.00    +0.029 A 
ATOM     27  C   UNL     1      11.668  12.342  -0.249  0.00  0.00    +0.017 A 
ATOM     28  C   UNL     1      12.303  12.639   0.961  0.00  0.00    +0.063 A 
ATOM     29  C   UNL     1      11.773  12.155   2.160  0.00  0.00    +0.017 A 
ATOM     30  C   UNL     1      10.630  11.389   2.147  0.00  0.00    +0.029 A 
BRANCH  28  31
ATOM     31  C   UNL     1      13.528  13.461   0.971  0.00  0.00    +0.387 C 
ATOM     32  O   UNL     1      14.078  13.718   2.024  0.00  0.00    -0.241 OA
ATOM     33  O   UNL     1      14.037  13.927  -0.186  0.00  0.00    -0.241 OA
ENDBRANCH  28  31
ENDBRANCH   4  25
TORSDOF 5
