REMARK  Name = ZINC12051996
REMARK  7 active torsions:
REMARK  status: ('A' for Active; 'I' for Inactive)
REMARK    1  A    between atoms: C_1  and  C_2
REMARK    2  A    between atoms: N_4  and  C_5
REMARK    3  A    between atoms: C_5  and  C_6
REMARK    4  A    between atoms: C_9  and  C_11
REMARK    5  A    between atoms: C_17  and  C_19
REMARK    6  A    between atoms: C_22  and  N_28
REMARK    7  A    between atoms: C_23  and  N_25
REMARK                            x       y       z     vdW  Elec       q    Type
REMARK                         _______ _______ _______ _____ _____    ______ ____
ROOT
ATOM      1  C   UNL     1      -7.158   4.051   0.190  0.00  0.00    +0.115 A 
ATOM      2  C   UNL     1      -6.909   5.512   0.091  0.00  0.00    +0.080 A 
ATOM      3  S   UNL     1      -5.174   5.551   0.030  0.00  0.00    -0.060 S 
ATOM      4  C   UNL     1      -4.876   3.795   0.119  0.00  0.00    +0.165 A 
ATOM      5  N   UNL     1      -6.089   3.279   0.197  0.00  0.00    -0.221 NA
ATOM      6  N   UNL     1      -3.677   3.139   0.114  0.00  0.00    -0.261 N 
ATOM      7  C   UNL     1      -2.527   3.837   0.027  0.00  0.00    +0.250 C 
ATOM      8  O   UNL     1      -2.557   5.050  -0.047  0.00  0.00    -0.270 OA
ATOM      9  H   UNL     1      -3.653   2.171   0.172  0.00  0.00    +0.157 HD
ENDROOT
BRANCH   7  10
ATOM     10  C   UNL     1      -1.234   3.129   0.021  0.00  0.00    +0.039 A 
ATOM     11  C   UNL     1      -1.198   1.733   0.100  0.00  0.00    +0.015 A 
ATOM     12  C   UNL     1       0.000   1.079   0.099  0.00  0.00    +0.026 A 
ATOM     13  C   UNL     1       1.190   1.796   0.010  0.00  0.00    +0.060 A 
ATOM     14  C   UNL     1       1.165   3.186  -0.075  0.00  0.00    +0.148 A 
ATOM     15  C   UNL     1      -0.040   3.852  -0.069  0.00  0.00    +0.047 A 
BRANCH  13  16
ATOM     16  N   UNL     1       2.407   1.123   0.004  0.00  0.00    -0.328 N 
ATOM     17  C   UNL     1       2.518   0.213   1.172  0.00  0.00    +0.105 C 
ATOM     18  C   UNL     1       3.615  -0.790   0.737  0.00  0.00    +0.020 C 
ATOM     19  C   UNL     1       3.327  -0.986  -0.769  0.00  0.00    +0.020 C 
ATOM     20  C   UNL     1       2.530   0.262  -1.192  0.00  0.00    +0.105 C 
ENDBRANCH  13  16
BRANCH  14  21
ATOM     21  N   UNL     1       2.431   3.946  -0.169  0.00  0.00    +0.058 N 
ATOM     22  O   UNL     1       2.413   5.262  -0.142  0.00  0.00    -0.126 OA
ATOM     23  O   UNL     1       3.576   3.305  -0.281  0.00  0.00    -0.126 OA
ENDBRANCH  14  21
ENDBRANCH   7  10
BRANCH   1  27
ATOM     24  C   UNL     1     -10.638   3.395   0.362  0.00  0.00    +0.123 A 
ATOM     25  C   UNL     1     -10.166   2.091   0.425  0.00  0.00    +0.047 A 
ATOM     26  C   UNL     1      -8.790   2.150   0.364  0.00  0.00    +0.052 A 
ATOM     27  C   UNL     1      -8.449   3.525   0.272  0.00  0.00    +0.154 A 
ATOM     28  O   UNL     1      -9.600   4.233   0.271  0.00  0.00    -0.457 OA
BRANCH  24  29
ATOM     29  C   UNL     1     -12.089   3.802   0.392  0.00  0.00    +0.178 C 
BRANCH  29  33
ATOM     30  C   UNL     1     -14.203   4.616   3.478  0.00  0.00    +0.109 C 
ATOM     31  C   UNL     1     -13.773   4.392   2.051  0.00  0.00    +0.210 C 
ATOM     32  O   UNL     1     -14.567   4.548   1.147  0.00  0.00    -0.276 OA
ATOM     33  N   UNL     1     -12.507   4.019   1.779  0.00  0.00    -0.308 N 
ATOM     34  H   UNL     1     -11.872   3.895   2.502  0.00  0.00    +0.149 HD
ENDBRANCH  29  33
ENDBRANCH  24  29
ENDBRANCH   1  27
TORSDOF 6
