REMARK  Name = ZINC15924517
REMARK  6 active torsions:
REMARK  status: ('A' for Active; 'I' for Inactive)
REMARK    1  A    between atoms: C_5  and  N_7
REMARK    2  A    between atoms: N_7  and  S_8
REMARK    3  A    between atoms: S_8  and  C_11
REMARK    4  A    between atoms: C_15  and  C_17
REMARK    5  A    between atoms: N_22  and  C_25
REMARK    6  A    between atoms: C_28  and  N_31
REMARK                            x       y       z     vdW  Elec       q    Type
REMARK                         _______ _______ _______ _____ _____    ______ ____
ROOT
ATOM      1  C   UNL     1       0.946  -4.690  -0.153  0.00  0.00    +0.111 A 
ATOM      2  C   UNL     1       0.306  -5.317  -1.207  0.00  0.00    +0.029 A 
ATOM      3  C   UNL     1      -0.136  -6.622  -1.079  0.00  0.00    +0.003 A 
ATOM      4  C   UNL     1       0.059  -7.306   0.104  0.00  0.00    +0.013 A 
ATOM      5  C   UNL     1       0.704  -6.679   1.171  0.00  0.00    +0.039 A 
ATOM      6  C   UNL     1       1.152  -5.364   1.032  0.00  0.00    +0.042 A 
ENDROOT
BRANCH   5   7
ATOM      7  C   UNL     1       0.915  -7.406   2.441  0.00  0.00    +0.247 C 
ATOM      8  O   UNL     1       0.892  -6.804   3.497  0.00  0.00    -0.270 OA
ATOM      9  N   UNL     1       1.135  -8.736   2.428  0.00  0.00    -0.295 N 
ATOM     10  C   UNL     1       1.291  -9.456   1.156  0.00  0.00    +0.127 C 
ATOM     11  C   UNL     1       2.626 -10.211   1.182  0.00  0.00    +0.124 C 
ATOM     12  N   UNL     1       2.713 -10.967   2.439  0.00  0.00    -0.327 N 
ATOM     13  C   UNL     1       2.556 -10.248   3.711  0.00  0.00    +0.124 C 
ATOM     14  C   UNL     1       1.227  -9.491   3.685  0.00  0.00    +0.127 C 
BRANCH  12  15
ATOM     15  C   UNL     1       2.940 -12.345   2.425  0.00  0.00    +0.030 A 
ATOM     16  C   UNL     1       3.212 -12.994   1.228  0.00  0.00    +0.025 A 
ATOM     17  C   UNL     1       3.437 -14.357   1.218  0.00  0.00    +0.034 A 
ATOM     18  C   UNL     1       3.391 -15.075   2.399  0.00  0.00    +0.126 A 
ATOM     19  C   UNL     1       3.120 -14.433   3.593  0.00  0.00    +0.034 A 
ATOM     20  C   UNL     1       2.900 -13.069   3.610  0.00  0.00    +0.025 A 
BRANCH  18  21
ATOM     21  N   UNL     1       3.632 -16.536   2.384  0.00  0.00    +0.056 N 
ATOM     22  O   UNL     1       3.869 -17.099   1.341  0.00  0.00    -0.126 OA
ATOM     23  O   UNL     1       3.592 -17.165   3.416  0.00  0.00    -0.126 OA
ENDBRANCH  18  21
ENDBRANCH  12  15
ENDBRANCH   5   7
BRANCH   1  24
ATOM     24  S   UNL     1       1.505  -3.028  -0.328  0.00  0.00    +0.092 S 
ATOM     25  O   UNL     1       1.592  -2.489   0.984  0.00  0.00    -0.148 OA
ATOM     26  O   UNL     1       0.708  -2.436  -1.343  0.00  0.00    -0.148 OA
BRANCH  24  27
ATOM     27  N   UNL     1       3.052  -3.092  -0.917  0.00  0.00    -0.095 NA
BRANCH  27  32
ATOM     28  C   UNL     1       3.862   0.487  -1.144  0.00  0.00    +0.002 A 
ATOM     29  C   UNL     1       5.153   0.434  -1.635  0.00  0.00    +0.003 A 
ATOM     30  C   UNL     1       5.750  -0.787  -1.890  0.00  0.00    +0.040 A 
ATOM     31  C   UNL     1       5.056  -1.960  -1.652  0.00  0.00    +0.148 A 
ATOM     32  C   UNL     1       3.757  -1.908  -1.158  0.00  0.00    +0.109 A 
ATOM     33  C   UNL     1       3.163  -0.680  -0.904  0.00  0.00    +0.029 A 
ATOM     34  F   UNL     1       5.639  -3.153  -1.901  0.00  0.00    -0.203 F 
ENDBRANCH  27  32
ENDBRANCH  24  27
ENDBRANCH   1  24
TORSDOF 6
