REMARK  Name = ZINC17014752
REMARK  11 active torsions:
REMARK  status: ('A' for Active; 'I' for Inactive)
REMARK    1  A    between atoms: C_1  and  C_2
REMARK    2  A    between atoms: C_2  and  C_4
REMARK    3  A    between atoms: C_2  and  O_14
REMARK    4  A    between atoms: N_9  and  C_10
REMARK    5  A    between atoms: C_10  and  C_11
REMARK    6  A    between atoms: C_10  and  C_12
REMARK    7  A    between atoms: C_10  and  C_13
REMARK    8  A    between atoms: O_14  and  C_15
REMARK    9  A    between atoms: C_15  and  C_17
REMARK   10  A    between atoms: N_25  and  C_28
REMARK   11  A    between atoms: C_28  and  C_29
REMARK                            x       y       z     vdW  Elec       q    Type
REMARK                         _______ _______ _______ _____ _____    ______ ____
ROOT
ATOM      1  C   UNL     1      -0.014   1.210   0.009  0.00  0.00    +0.340 C 
ATOM      2  O   UNL     1       0.002  -0.004   0.002  0.00  0.00    -0.245 OA
ENDROOT
BRANCH   1   3
ATOM      3  C   UNL     1       1.256   1.967   0.001  0.00  0.00    +0.060 A 
ATOM      4  C   UNL     1       1.236   3.362   0.003  0.00  0.00    +0.016 A 
ATOM      5  C   UNL     1       2.420   4.078   0.001  0.00  0.00    +0.014 A 
ATOM      6  C   UNL     1       3.633   3.408  -0.014  0.00  0.00    +0.049 A 
ATOM      7  C   UNL     1       3.661   1.998  -0.022  0.00  0.00    +0.050 A 
ATOM      8  C   UNL     1       2.476   1.283  -0.015  0.00  0.00    +0.028 A 
ATOM      9  C   UNL     1       5.090   1.621  -0.037  0.00  0.00    +0.254 C 
ATOM     10  O   UNL     1       5.524   0.487  -0.048  0.00  0.00    -0.270 OA
ATOM     11  N   UNL     1       5.830   2.745  -0.038  0.00  0.00    -0.232 N 
ATOM     12  C   UNL     1       5.049   3.840  -0.025  0.00  0.00    +0.254 C 
ATOM     13  O   UNL     1       5.440   4.989  -0.023  0.00  0.00    -0.270 OA
BRANCH  11  14
ATOM     14  C   UNL     1       7.295   2.772  -0.052  0.00  0.00    +0.148 C 
BRANCH  14  15
ATOM     15  C   UNL     1       7.791   2.789  -1.500  0.00  0.00    +0.136 C 
ATOM     16  C   UNL     1       9.332   2.702  -1.526  0.00  0.00    +0.035 C 
ATOM     17  C   UNL     1       9.698   3.678  -2.678  0.00  0.00    +0.031 C 
ATOM     18  C   UNL     1       8.591   4.750  -2.517  0.00  0.00    +0.160 C 
ATOM     19  O   UNL     1       7.416   4.022  -2.127  0.00  0.00    -0.375 OA
ENDBRANCH  14  15
ENDBRANCH  11  14
ENDBRANCH   1   3
BRANCH   1  20
ATOM     20  O   UNL     1      -1.190   1.868   0.018  0.00  0.00    -0.449 OA
BRANCH  20  22
ATOM     21  C   UNL     1      -2.814   0.769   1.462  0.00  0.00    +0.062 C 
ATOM     22  C   UNL     1      -2.397   1.060   0.019  0.00  0.00    +0.259 C 
BRANCH  22  23
ATOM     23  C   UNL     1      -3.502   1.808  -0.682  0.00  0.00    +0.261 C 
ATOM     24  O   UNL     1      -3.293   2.912  -1.138  0.00  0.00    -0.271 OA
ATOM     25  N   UNL     1      -4.722   1.249  -0.802  0.00  0.00    -0.237 N 
ATOM     26  C   UNL     1      -5.710   1.917  -1.429  0.00  0.00    +0.306 C 
ATOM     27  O   UNL     1      -5.501   3.024  -1.886  0.00  0.00    -0.252 OA
ATOM     28  N   UNL     1      -6.931   1.359  -1.550  0.00  0.00    -0.294 N 
ATOM     29  H   UNL     1      -4.889   0.366  -0.438  0.00  0.00    +0.159 HD
ATOM     30  H   UNL     1      -7.098   0.475  -1.185  0.00  0.00    +0.151 HD
BRANCH  28  31
ATOM     31  C   UNL     1      -8.005   2.085  -2.231  0.00  0.00    +0.028 C 
ATOM     32  C   UNL     1      -7.588   2.377  -3.674  0.00  0.00    +0.031 C 
ATOM     33  C   UNL     1      -9.277   1.234  -2.230  0.00  0.00    +0.031 C 
ATOM     34  C   UNL     1      -8.273   3.403  -1.502  0.00  0.00    +0.031 C 
ENDBRANCH  28  31
ENDBRANCH  22  23
ENDBRANCH  20  22
ENDBRANCH   1  20
TORSDOF 7
