REMARK  Name = ZINC46132977
REMARK  8 active torsions:
REMARK  status: ('A' for Active; 'I' for Inactive)
REMARK    1  A    between atoms: C_1  and  O_2
REMARK    2  A    between atoms: O_2  and  C_3
REMARK    3  A    between atoms: C_3  and  C_5
REMARK    4  A    between atoms: C_8  and  C_11
REMARK    5  A    between atoms: C_11  and  N_13
REMARK    6  A    between atoms: N_15  and  C_16
REMARK    7  A    between atoms: N_25  and  C_26
REMARK    8  A    between atoms: C_26  and  C_27
REMARK                            x       y       z     vdW  Elec       q    Type
REMARK                         _______ _______ _______ _____ _____    ______ ____
ROOT
ATOM      1  N   UNL     1      -3.008  -7.608   1.759  0.00  0.00    -0.143 NA
ATOM      2  C   UNL     1      -2.860  -8.658   0.964  0.00  0.00    +0.194 C 
ATOM      3  N   UNL     1      -3.900  -9.078   0.187  0.00  0.00    -0.328 N 
ATOM      4  N   UNL     1      -1.668  -9.320   0.923  0.00  0.00    -0.355 N 
ATOM      5  H   UNL     1      -3.809  -9.878  -0.354  0.00  0.00    +0.169 HD
ATOM      6  H   UNL     1      -0.961  -9.085   1.545  0.00  0.00    +0.162 HD
ENDROOT
BRANCH   3   7
ATOM      7  C   UNL     1      -5.098  -8.353   0.171  0.00  0.00    +0.045 A 
ATOM      8  C   UNL     1      -5.070  -6.965   0.146  0.00  0.00    +0.029 A 
ATOM      9  C   UNL     1      -6.252  -6.249   0.129  0.00  0.00    +0.051 A 
ATOM     10  C   UNL     1      -7.467  -6.913   0.138  0.00  0.00    +0.166 A 
ATOM     11  C   UNL     1      -7.499  -8.305   0.163  0.00  0.00    +0.168 A 
ATOM     12  C   UNL     1      -6.314  -9.022   0.173  0.00  0.00    +0.075 A 
ATOM     13  O   UNL     1      -8.802  -8.712   0.167  0.00  0.00    -0.453 OA
ATOM     14  C   UNL     1      -9.565  -7.555   0.557  0.00  0.00    +0.466 C 
ATOM     15  O   UNL     1      -8.752  -6.448   0.126  0.00  0.00    -0.453 OA
ENDBRANCH   3   7
BRANCH   1  16
ATOM     16  C   UNL     1      -1.948  -7.097   2.397  0.00  0.00    +0.270 C 
ATOM     17  O   UNL     1      -0.869  -7.658   2.332  0.00  0.00    -0.268 OA
BRANCH  16  21
ATOM     18  C   UNL     1      -2.347  -3.509   4.652  0.00  0.00    +0.059 A 
ATOM     19  C   UNL     1      -1.111  -4.153   4.577  0.00  0.00    +0.016 A 
ATOM     20  C   UNL     1      -0.982  -5.315   3.847  0.00  0.00    +0.014 A 
ATOM     21  C   UNL     1      -2.087  -5.847   3.182  0.00  0.00    +0.039 A 
ATOM     22  C   UNL     1      -3.322  -5.204   3.256  0.00  0.00    +0.014 A 
ATOM     23  C   UNL     1      -3.454  -4.046   3.991  0.00  0.00    +0.016 A 
BRANCH  18  24
ATOM     24  C   UNL     1      -2.486  -2.263   5.435  0.00  0.00    +0.339 C 
ATOM     25  O   UNL     1      -3.563  -1.705   5.503  0.00  0.00    -0.245 OA
BRANCH  24  27
ATOM     26  C   UNL     1      -1.625  -0.539   6.810  0.00  0.00    +0.280 C 
ATOM     27  O   UNL     1      -1.418  -1.745   6.072  0.00  0.00    -0.464 OA
ENDBRANCH  24  27
ENDBRANCH  18  24
ENDBRANCH  16  21
ENDBRANCH   1  16
BRANCH   4  28
ATOM     28  C   UNL     1      -1.454 -10.385  -0.060  0.00  0.00    +0.147 C 
BRANCH  28  29
ATOM     29  C   UNL     1      -0.095 -11.041   0.186  0.00  0.00    +0.137 C 
ATOM     30  C   UNL     1       0.088 -12.240  -0.769  0.00  0.00    +0.035 C 
ATOM     31  C   UNL     1       0.792 -13.283   0.142  0.00  0.00    +0.031 C 
ATOM     32  C   UNL     1       0.135 -12.969   1.510  0.00  0.00    +0.160 C 
ATOM     33  O   UNL     1      -0.032 -11.540   1.527  0.00  0.00    -0.375 OA
ENDBRANCH  28  29
ENDBRANCH   4  28
TORSDOF 7
