REMARK  Name = ZINC39546662
REMARK  10 active torsions:
REMARK  status: ('A' for Active; 'I' for Inactive)
REMARK    1  A    between atoms: C_4  and  S_23
REMARK    2  A    between atoms: C_5  and  C_7
REMARK    3  A    between atoms: C_7  and  O_9
REMARK    4  A    between atoms: O_9  and  C_10
REMARK    5  A    between atoms: C_10  and  C_11
REMARK    6  A    between atoms: N_13  and  C_14
REMARK    7  A    between atoms: C_19  and  N_20
REMARK    8  A    between atoms: S_23  and  C_24
REMARK    9  A    between atoms: C_24  and  C_25
REMARK   10  A    between atoms: N_27  and  C_28
REMARK                            x       y       z     vdW  Elec       q    Type
REMARK                         _______ _______ _______ _____ _____    ______ ____
ROOT
ATOM      1  C   UNL     1      -1.620   1.790  -0.613  0.00  0.00    +0.001 A 
ATOM      2  C   UNL     1      -0.671   2.794  -0.734  0.00  0.00    +0.001 A 
ATOM      3  C   UNL     1       0.672   2.485  -0.774  0.00  0.00    +0.015 A 
ATOM      4  C   UNL     1       1.085   1.159  -0.695  0.00  0.00    +0.022 A 
ATOM      5  C   UNL     1       0.126   0.140  -0.572  0.00  0.00    +0.072 A 
ATOM      6  C   UNL     1      -1.232   0.471  -0.532  0.00  0.00    +0.016 A 
ENDROOT
BRANCH   5   7
ATOM      7  C   UNL     1       0.548  -1.268  -0.487  0.00  0.00    +0.341 C 
ATOM      8  O   UNL     1       1.730  -1.552  -0.523  0.00  0.00    -0.245 OA
BRANCH   7   9
ATOM      9  O   UNL     1      -0.375  -2.243  -0.369  0.00  0.00    -0.452 OA
BRANCH   9  10
ATOM     10  C   UNL     1       0.106  -3.586  -0.292  0.00  0.00    +0.328 C 
BRANCH  10  11
ATOM     11  C   UNL     1      -1.061  -4.531  -0.165  0.00  0.00    +0.255 C 
ATOM     12  O   UNL     1      -2.193  -4.097  -0.143  0.00  0.00    -0.272 OA
ATOM     13  N   UNL     1      -0.847  -5.859  -0.076  0.00  0.00    -0.281 N 
ATOM     14  H   UNL     1       0.053  -6.212  -0.160  0.00  0.00    +0.155 HD
BRANCH  13  15
ATOM     15  C   UNL     1      -1.922  -6.728   0.137  0.00  0.00    +0.064 A 
ATOM     16  C   UNL     1      -3.160  -6.456  -0.430  0.00  0.00    +0.025 A 
ATOM     17  C   UNL     1      -4.220  -7.316  -0.218  0.00  0.00    +0.002 A 
ATOM     18  C   UNL     1      -4.049  -8.448   0.559  0.00  0.00    +0.002 A 
ATOM     19  C   UNL     1      -2.817  -8.721   1.126  0.00  0.00    +0.034 A 
ATOM     20  C   UNL     1      -1.752  -7.868   0.912  0.00  0.00    +0.147 A 
BRANCH  20  21
ATOM     21  N   UNL     1      -0.433  -8.165   1.513  0.00  0.00    +0.058 N 
ATOM     22  O   UNL     1      -0.259  -9.204   2.106  0.00  0.00    -0.126 OA
ATOM     23  O   UNL     1       0.471  -7.369   1.411  0.00  0.00    -0.126 OA
ENDBRANCH  20  21
ENDBRANCH  13  15
ENDBRANCH  10  11
ENDBRANCH   9  10
ENDBRANCH   7   9
ENDBRANCH   5   7
BRANCH   4  24
ATOM     24  S   UNL     1       2.800   0.761  -0.747  0.00  0.00    -0.115 S 
BRANCH  24  25
ATOM     25  C   UNL     1       3.620   2.371  -0.908  0.00  0.00    +0.170 C 
BRANCH  25  26
ATOM     26  C   UNL     1       5.113   2.171  -0.965  0.00  0.00    +0.227 C 
ATOM     27  O   UNL     1       5.578   1.053  -0.903  0.00  0.00    -0.275 OA
ATOM     28  N   UNL     1       5.931   3.236  -1.085  0.00  0.00    -0.285 N 
ATOM     29  H   UNL     1       5.558   4.124  -1.200  0.00  0.00    +0.155 HD
BRANCH  28  30
ATOM     30  C   UNL     1       7.319   3.060  -1.042  0.00  0.00    +0.034 A 
ATOM     31  C   UNL     1       8.124   4.023  -0.448  0.00  0.00    +0.026 A 
ATOM     32  C   UNL     1       9.494   3.847  -0.407  0.00  0.00    +0.040 A 
ATOM     33  C   UNL     1      10.064   2.712  -0.958  0.00  0.00    +0.124 A 
ATOM     34  C   UNL     1       9.263   1.751  -1.551  0.00  0.00    +0.040 A 
ATOM     35  C   UNL     1       7.893   1.919  -1.589  0.00  0.00    +0.026 A 
ATOM     36  F   UNL     1      11.404   2.543  -0.918  0.00  0.00    -0.205 F 
ENDBRANCH  28  30
ENDBRANCH  25  26
ENDBRANCH  24  25
ENDBRANCH   4  24
TORSDOF 10
