REMARK  Name = ZINC08920199
REMARK  13 active torsions:
REMARK  status: ('A' for Active; 'I' for Inactive)
REMARK    1  A    between atoms: C_1  and  C_2
REMARK    2  A    between atoms: C_2  and  C_3
REMARK    3  A    between atoms: C_3  and  C_4
REMARK    4  A    between atoms: C_4  and  N_5
REMARK    5  A    between atoms: N_5  and  C_6
REMARK    6  A    between atoms: N_5  and  S_7
REMARK    7  A    between atoms: S_7  and  C_10
REMARK    8  A    between atoms: C_13  and  C_16
REMARK    9  A    between atoms: N_18  and  C_19
REMARK   10  A    between atoms: C_20  and  C_28
REMARK   11  A    between atoms: C_27  and  N_66
REMARK   12  A    between atoms: N_30  and  N_31
REMARK   13  A    between atoms: C_32  and  C_34
REMARK                            x       y       z     vdW  Elec       q    Type
REMARK                         _______ _______ _______ _____ _____    ______ ____
ROOT
ATOM      1  C   UNL     1      -3.636   4.662   6.555  0.00  0.00    +0.085 A 
ATOM      2  C   UNL     1      -3.570   5.860   7.255  0.00  0.00    +0.070 A 
ATOM      3  C   UNL     1      -4.436   6.008   8.409  0.00  0.00    -0.027 A 
ATOM      4  C   UNL     1      -5.225   4.943   8.681  0.00  0.00    -0.021 A 
ATOM      5  S   UNL     1      -4.836   3.762   7.423  0.00  0.00    -0.079 S 
ATOM      6  C   UNL     1      -6.205   4.827   9.805  0.00  0.00    -0.036 C 
ATOM      7  C   UNL     1      -5.801   7.198  10.096  0.00  0.00    -0.074 C 
ATOM      8  C   UNL     1      -4.500   7.250   9.290  0.00  0.00    +0.018 C 
ATOM      9  C   UNL     1      -6.952   5.950  11.822  0.00  0.00    -0.096 C 
ATOM     10  N   UNL     1      -5.898   5.896  10.787  0.00  0.00    +0.381 N 
ATOM     11  H   UNL     1      -4.998   5.688  11.236  0.00  0.00    -0.082 HD
ENDROOT
BRANCH   1  14
ATOM     12  C   UNL     1      -3.120   3.066   4.884  0.00  0.00    +0.249 C 
ATOM     13  O   UNL     1      -3.929   2.304   5.377  0.00  0.00    -0.270 OA
ATOM     14  N   UNL     1      -2.920   4.281   5.431  0.00  0.00    -0.275 N 
ATOM     15  H   UNL     1      -2.275   4.890   5.039  0.00  0.00    +0.156 HD
BRANCH  12  19
ATOM     16  C   UNL     1      -0.927   1.900   1.439  0.00  0.00    +0.106 A 
ATOM     17  C   UNL     1      -0.715   3.147   2.002  0.00  0.00    +0.029 A 
ATOM     18  C   UNL     1      -1.427   3.534   3.118  0.00  0.00    +0.015 A 
ATOM     19  C   UNL     1      -2.357   2.660   3.686  0.00  0.00    +0.037 A 
ATOM     20  C   UNL     1      -2.562   1.402   3.117  0.00  0.00    +0.015 A 
ATOM     21  C   UNL     1      -1.846   1.030   1.998  0.00  0.00    +0.029 A 
BRANCH  16  22
ATOM     22  S   UNL     1      -0.017   1.417   0.010  0.00  0.00    +0.061 S 
ATOM     23  O   UNL     1       0.002  -0.004   0.002  0.00  0.00    -0.153 OA
ATOM     24  O   UNL     1       1.172   2.195   0.003  0.00  0.00    -0.153 OA
BRANCH  22  25
ATOM     25  N   UNL     1      -0.897   1.885  -1.312  0.00  0.00    -0.180 NA
ATOM     26  C   UNL     1      -0.691   3.213  -1.897  0.00  0.00    +0.131 C 
BRANCH  25  27
ATOM     27  C   UNL     1      -1.883   0.973  -1.897  0.00  0.00    +0.109 C 
BRANCH  27  28
ATOM     28  C   UNL     1      -3.267   1.280  -1.323  0.00  0.00    +0.017 C 
BRANCH  28  30
ATOM     29  C   UNL     1      -5.680   0.634  -1.359  0.00  0.00    +0.004 C 
ATOM     30  C   UNL     1      -4.296   0.327  -1.934  0.00  0.00    -0.002 C 
ENDBRANCH  28  30
ENDBRANCH  27  28
ENDBRANCH  25  27
ENDBRANCH  22  25
ENDBRANCH  16  22
ENDBRANCH  12  19
ENDBRANCH   1  14
BRANCH   2  31
ATOM     31  C   UNL     1      -2.660   6.933   6.843  0.00  0.00    +0.263 C 
ATOM     32  O   UNL     1      -3.037   7.781   6.055  0.00  0.00    -0.269 OA
ATOM     33  N   UNL     1      -1.407   6.982   7.338  0.00  0.00    -0.230 N 
ATOM     34  H   UNL     1      -1.108   6.306   7.966  0.00  0.00    +0.173 HD
BRANCH  33  35
ATOM     35  N   UNL     1      -0.538   8.008   6.944  0.00  0.00    -0.234 N 
ATOM     36  C   UNL     1       0.715   8.056   7.439  0.00  0.00    +0.226 C 
ATOM     37  O   UNL     1       1.089   7.212   8.224  0.00  0.00    -0.275 OA
ATOM     38  C   UNL     1       1.649   9.160   7.016  0.00  0.00    +0.110 C 
ATOM     39  H   UNL     1      -0.838   8.683   6.316  0.00  0.00    +0.173 HD
ENDBRANCH  33  35
ENDBRANCH   2  31
TORSDOF 9
