REMARK  Name = ZINC66908194
REMARK  5 active torsions:
REMARK  status: ('A' for Active; 'I' for Inactive)
REMARK    1  A    between atoms: C_6  and  C_7
REMARK    2  A    between atoms: N_9  and  N_10
REMARK    3  A    between atoms: C_16  and  N_19
REMARK    4  A    between atoms: C_20  and  C_22
REMARK    5  A    between atoms: C_22  and  C_23
REMARK                            x       y       z     vdW  Elec       q    Type
REMARK                         _______ _______ _______ _____ _____    ______ ____
ROOT
ATOM      1  N   UNL     1      -3.582  -4.869   0.015  0.00  0.00    -0.218 N 
ATOM      2  C   UNL     1      -2.429  -4.181  -0.098  0.00  0.00    +0.319 C 
ATOM      3  O   UNL     1      -2.444  -2.965  -0.095  0.00  0.00    -0.251 OA
ATOM      4  N   UNL     1      -1.259  -4.839  -0.215  0.00  0.00    -0.284 N 
ATOM      5  C   UNL     1       0.015  -4.108  -0.219  0.00  0.00    +0.111 C 
ATOM      6  C   UNL     1       0.929  -4.703   0.856  0.00  0.00    +0.041 C 
ATOM      7  C   UNL     1       1.069  -6.210   0.624  0.00  0.00    +0.076 C 
ATOM      8  C   UNL     1      -0.305  -6.874   0.737  0.00  0.00    +0.041 C 
ATOM      9  C   UNL     1      -1.233  -6.304  -0.334  0.00  0.00    +0.111 C 
ATOM     10  H   UNL     1      -3.564  -5.836   0.088  0.00  0.00    +0.174 HD
ENDROOT
BRANCH   1  13
ATOM     11  C   UNL     1      -5.962  -4.881   0.040  0.00  0.00    +0.260 C 
ATOM     12  O   UNL     1      -5.943  -6.096   0.039  0.00  0.00    -0.269 OA
ATOM     13  N   UNL     1      -4.806  -4.188   0.029  0.00  0.00    -0.229 N 
ATOM     14  H   UNL     1      -4.822  -3.219   0.029  0.00  0.00    +0.173 HD
BRANCH  11  20
ATOM     15  C   UNL     1      -8.453  -4.878   0.066  0.00  0.00    +0.016 A 
ATOM     16  C   UNL     1      -9.654  -4.203   0.079  0.00  0.00    +0.039 A 
ATOM     17  C   UNL     1      -9.674  -2.817   0.080  0.00  0.00    +0.123 A 
ATOM     18  C   UNL     1      -8.486  -2.102   0.069  0.00  0.00    +0.039 A 
ATOM     19  C   UNL     1      -7.279  -2.767   0.055  0.00  0.00    +0.016 A 
ATOM     20  C   UNL     1      -7.253  -4.163   0.054  0.00  0.00    +0.038 A 
ATOM     21  F   UNL     1     -10.854  -2.160   0.093  0.00  0.00    -0.205 F 
ENDBRANCH  11  20
ENDBRANCH   1  13
BRANCH   7  22
ATOM     22  N   UNL     1       1.969  -6.777   1.631  0.00  0.00    -0.312 N 
ATOM     23  C   UNL     1       2.640  -7.916   1.370  0.00  0.00    +0.214 C 
ATOM     24  O   UNL     1       2.499  -8.471   0.301  0.00  0.00    -0.276 OA
ATOM     25  H   UNL     1       2.082  -6.333   2.486  0.00  0.00    +0.149 HD
BRANCH  23  26
ATOM     26  C   UNL     1       3.567  -8.500   2.405  0.00  0.00    +0.099 C 
BRANCH  26  27
ATOM     27  C   UNL     1       4.198  -9.783   1.860  0.00  0.00    -0.002 C 
ATOM     28  C   UNL     1       3.122 -10.878   1.710  0.00  0.00    +0.004 C 
ATOM     29  C   UNL     1       3.853 -12.185   2.107  0.00  0.00    +0.000 C 
ATOM     30  C   UNL     1       4.760 -11.727   3.276  0.00  0.00    +0.000 C 
ATOM     31  C   UNL     1       5.239 -10.322   2.856  0.00  0.00    +0.004 C 
ENDBRANCH  26  27
ENDBRANCH  23  26
ENDBRANCH   7  22
TORSDOF 5
