REMARK  Name = ZINC25575703
REMARK  8 active torsions:
REMARK  status: ('A' for Active; 'I' for Inactive)
REMARK    1  A    between atoms: C_1  and  C_2
REMARK    2  A    between atoms: C_6  and  N_9
REMARK    3  A    between atoms: C_7  and  C_8
REMARK    4  A    between atoms: C_11  and  C_16
REMARK    5  A    between atoms: C_21  and  C_33
REMARK    6  A    between atoms: C_22  and  C_24
REMARK    7  A    between atoms: N_29  and  C_30
REMARK    8  A    between atoms: C_30  and  C_31
REMARK                            x       y       z     vdW  Elec       q    Type
REMARK                         _______ _______ _______ _____ _____    ______ ____
ROOT
ATOM      1  C   UNL     1      -5.280   5.040   0.056  0.00  0.00    +0.224 C 
ATOM      2  O   UNL     1      -4.407   5.883   0.057  0.00  0.00    -0.275 OA
ATOM      3  N   UNL     1      -4.954   3.733   0.047  0.00  0.00    -0.264 N 
ATOM      4  C   UNL     1      -3.620   3.350   0.038  0.00  0.00    +0.165 A 
ATOM      5  N   UNL     1      -2.540   4.111   0.037  0.00  0.00    -0.229 NA
ATOM      6  C   UNL     1      -1.335   3.590   0.028  0.00  0.00    +0.058 A 
ATOM      7  C   UNL     1      -1.223   2.222   0.020  0.00  0.00    +0.081 A 
ATOM      8  S   UNL     1      -2.946   1.750   0.018  0.00  0.00    -0.049 S 
ATOM      9  C   UNL     1      -0.111   4.468   0.027  0.00  0.00    +0.067 C 
ATOM     10  H   UNL     1      -5.745   2.969   0.046  0.00  0.00    +0.157 HD
ENDROOT
BRANCH   1  13
ATOM     11  N   UNL     1      -6.956   7.371   1.491  0.00  0.00    -0.270 N 
ATOM     12  C   UNL     1      -6.862   6.995   0.075  0.00  0.00    +0.127 C 
ATOM     13  C   UNL     1      -6.729   5.456   0.066  0.00  0.00    +0.102 C 
ATOM     14  C   UNL     1      -7.405   5.072   1.402  0.00  0.00    +0.110 C 
ATOM     15  C   UNL     1      -7.265   6.311   2.258  0.00  0.00    +0.221 C 
ATOM     16  O   UNL     1      -7.411   6.344   3.462  0.00  0.00    -0.275 OA
BRANCH  11  22
ATOM     17  C   UNL     1      -3.897  10.787   3.262  0.00  0.00    +0.044 C 
ATOM     18  C   UNL     1      -5.276  10.348   2.845  0.00  0.00    -0.046 A 
ATOM     19  C   UNL     1      -6.340  11.226   2.944  0.00  0.00    +0.004 A 
ATOM     20  C   UNL     1      -7.608  10.827   2.563  0.00  0.00    +0.002 A 
ATOM     21  C   UNL     1      -7.815   9.549   2.081  0.00  0.00    +0.024 A 
ATOM     22  C   UNL     1      -6.749   8.665   1.979  0.00  0.00    +0.039 A 
ATOM     23  C   UNL     1      -5.478   9.068   2.368  0.00  0.00    -0.026 A 
ATOM     24  C   UNL     1      -4.319   8.110   2.266  0.00  0.00    +0.046 C 
ENDBRANCH  11  22
ENDBRANCH   1  13
BRANCH   7  25
ATOM     25  C   UNL     1      -0.017   1.378   0.010  0.00  0.00    +0.174 A 
ATOM     26  N   UNL     1       1.217   1.809   0.000  0.00  0.00    -0.128 NA
ATOM     27  N   UNL     1       2.065   0.693  -0.014  0.00  0.00    -0.121 NA
ATOM     28  C   UNL     1       1.288  -0.409  -0.012  0.00  0.00    +0.203 A 
ATOM     29  S   UNL     1       1.835  -2.031  -0.026  0.00  0.00    -0.009 SA
ATOM     30  N   UNL     1       0.002  -0.004   0.002  0.00  0.00    -0.297 N 
BRANCH  30  31
ATOM     31  C   UNL     1      -1.173  -0.878   0.009  0.00  0.00    +0.152 C 
BRANCH  31  32
ATOM     32  C   UNL     1      -1.591  -1.171  -1.409  0.00  0.00    -0.013 C 
ATOM     33  C   UNL     1      -1.708  -2.411  -1.815  0.00  0.00    +0.005 C 
ENDBRANCH  31  32
ENDBRANCH  30  31
ENDBRANCH   7  25
TORSDOF 5
