REMARK  Name = ZINC04813211
REMARK  6 active torsions:
REMARK  status: ('A' for Active; 'I' for Inactive)
REMARK    1  A    between atoms: C_1  and  N_2
REMARK    2  A    between atoms: N_7  and  N_8
REMARK    3  A    between atoms: C_9  and  C_10
REMARK    4  A    between atoms: N_16  and  C_29
REMARK    5  A    between atoms: N_19  and  C_22
REMARK    6  A    between atoms: C_22  and  C_23
REMARK                            x       y       z     vdW  Elec       q    Type
REMARK                         _______ _______ _______ _____ _____    ______ ____
ROOT
ATOM      1  C   UNL     1       2.509  -0.302  -0.035  0.00  0.00    +0.152 C 
ATOM      2  N   UNL     1       1.122  -0.775  -0.018  0.00  0.00    -0.308 N 
ATOM      3  C   UNL     1       0.698  -2.096  -0.017  0.00  0.00    +0.153 A 
ATOM      4  C   UNL     1      -0.692  -2.061  -0.004  0.00  0.00    +0.170 A 
ATOM      5  N   UNL     1      -1.063  -0.780   0.008  0.00  0.00    -0.195 NA
ATOM      6  C   UNL     1       0.002  -0.004   0.002  0.00  0.00    +0.218 A 
ATOM      7  N   UNL     1      -0.017   1.372   0.010  0.00  0.00    -0.206 N 
ATOM      8  N   UNL     1      -1.390  -3.259  -0.004  0.00  0.00    -0.279 N 
ATOM      9  C   UNL     1      -0.723  -4.428  -0.018  0.00  0.00    +0.334 A 
ATOM     10  O   UNL     1      -1.351  -5.469  -0.018  0.00  0.00    -0.246 OA
ATOM     11  N   UNL     1       0.620  -4.473  -0.031  0.00  0.00    -0.255 N 
ATOM     12  C   UNL     1       1.354  -3.341  -0.031  0.00  0.00    +0.283 A 
ATOM     13  O   UNL     1       2.571  -3.395  -0.043  0.00  0.00    -0.265 OA
ATOM     14  C   UNL     1      -2.855  -3.252   0.009  0.00  0.00    +0.155 C 
ATOM     15  H   UNL     1       0.817   1.869   0.004  0.00  0.00    +0.177 HD
ENDROOT
BRANCH   7  16
ATOM     16  N   UNL     1      -1.239   2.056   0.019  0.00  0.00    -0.188 NA
ATOM     17  C   UNL     1      -1.257   3.354   0.026  0.00  0.00    +0.138 C 
BRANCH  17  18
ATOM     18  C   UNL     1      -2.544   4.074   0.036  0.00  0.00    -0.005 A 
ATOM     19  C   UNL     1      -3.746   3.362   0.032  0.00  0.00    +0.009 A 
ATOM     20  C   UNL     1      -4.946   4.042   0.047  0.00  0.00    +0.001 A 
ATOM     21  C   UNL     1      -4.961   5.426   0.054  0.00  0.00    +0.000 A 
ATOM     22  C   UNL     1      -3.774   6.137   0.053  0.00  0.00    +0.001 A 
ATOM     23  C   UNL     1      -2.567   5.471   0.044  0.00  0.00    +0.009 A 
ENDBRANCH  17  18
ENDBRANCH   7  16
BRANCH  11  24
ATOM     24  C   UNL     1       1.299  -5.771  -0.046  0.00  0.00    +0.165 C 
BRANCH  24  25
ATOM     25  C   UNL     1       1.517  -6.208  -1.472  0.00  0.00    -0.028 A 
ATOM     26  C   UNL     1       0.559  -6.968  -2.117  0.00  0.00    +0.005 A 
ATOM     27  C   UNL     1       0.757  -7.364  -3.426  0.00  0.00    +0.000 A 
ATOM     28  C   UNL     1       1.919  -7.010  -4.087  0.00  0.00    +0.000 A 
ATOM     29  C   UNL     1       2.879  -6.255  -3.440  0.00  0.00    +0.000 A 
ATOM     30  C   UNL     1       2.679  -5.854  -2.133  0.00  0.00    +0.005 A 
ENDBRANCH  24  25
ENDBRANCH  11  24
TORSDOF 4
