REMARK  Name = ZINC15518128
REMARK  15 active torsions:
REMARK  status: ('A' for Active; 'I' for Inactive)
REMARK    1  A    between atoms: C_1  and  C_2
REMARK    2  A    between atoms: C_2  and  C_3
REMARK    3  A    between atoms: C_3  and  C_4
REMARK    4  A    between atoms: C_4  and  N_5
REMARK    5  A    between atoms: C_6  and  N_35
REMARK    6  A    between atoms: C_7  and  N_14
REMARK    7  A    between atoms: N_14  and  C_15
REMARK    8  A    between atoms: C_15  and  C_16
REMARK    9  A    between atoms: C_17  and  C_19
REMARK   10  A    between atoms: C_19  and  N_66
REMARK   11  A    between atoms: C_20  and  N_66
REMARK   12  A    between atoms: C_21  and  C_23
REMARK   13  A    between atoms: C_21  and  C_24
REMARK   14  A    between atoms: C_21  and  N_66
REMARK   15  A    between atoms: C_27  and  N_30
REMARK                            x       y       z     vdW  Elec       q    Type
REMARK                         _______ _______ _______ _____ _____    ______ ____
ROOT
ATOM      1  N   UNL     1       3.445   7.353  -1.934  0.00  0.00    -0.266 N 
ATOM      2  C   UNL     1       3.147   6.038  -1.993  0.00  0.00    +0.203 C 
ATOM      3  O   UNL     1       3.704   5.326  -2.803  0.00  0.00    -0.277 OA
ENDROOT
BRANCH   1   6
ATOM      4  N   UNL     1       6.750   7.992  -3.406  0.00  0.00    -0.280 N 
ATOM      5  C   UNL     1       5.774   7.458  -2.598  0.00  0.00    +0.127 A 
ATOM      6  C   UNL     1       4.469   7.882  -2.747  0.00  0.00    +0.140 A 
ATOM      7  C   UNL     1       4.177   8.847  -3.729  0.00  0.00    +0.277 A 
ATOM      8  O   UNL     1       3.032   9.236  -3.885  0.00  0.00    -0.266 OA
ATOM      9  N   UNL     1       5.171   9.342  -4.491  0.00  0.00    -0.273 N 
ATOM     10  H   UNL     1       4.966  10.034  -5.184  0.00  0.00    +0.173 HD
ATOM     11  C   UNL     1       6.437   8.917  -4.332  0.00  0.00    +0.331 A 
ATOM     12  O   UNL     1       7.315   9.377  -5.036  0.00  0.00    -0.246 OA
BRANCH   5  13
ATOM     13  N   UNL     1       6.094   6.513  -1.653  0.00  0.00    -0.343 N 
ATOM     14  H   UNL     1       5.395   6.110  -1.114  0.00  0.00    +0.144 HD
ATOM     15  H   UNL     1       7.018   6.249  -1.524  0.00  0.00    +0.144 HD
ENDBRANCH   5  13
BRANCH   4  16
ATOM     16  C   UNL     1       8.139   7.550  -3.259  0.00  0.00    +0.128 C 
BRANCH  16  17
ATOM     17  C   UNL     1       8.393   6.351  -4.176  0.00  0.00    +0.021 C 
BRANCH  17  19
ATOM     18  C   UNL     1      10.098   4.691  -4.938  0.00  0.00    +0.004 C 
ATOM     19  C   UNL     1       9.844   5.890  -4.022  0.00  0.00    -0.002 C 
ENDBRANCH  17  19
ENDBRANCH  16  17
ENDBRANCH   4  16
ENDBRANCH   1   6
BRANCH   1  20
ATOM     20  C   UNL     1       2.704   8.231  -1.024  0.00  0.00    +0.110 C 
ATOM     21  C   UNL     1       3.463   8.351   0.299  0.00  0.00    +0.025 C 
ENDBRANCH   1  20
BRANCH   2  22
ATOM     22  C   UNL     1       2.124   5.454  -1.053  0.00  0.00    +0.020 C 
BRANCH  22  24
ATOM     23  C   UNL     1       3.217   3.294  -0.981  0.00  0.00    -0.095 C 
ATOM     24  N   UNL     1       1.978   4.012  -1.345  0.00  0.00    +0.388 N 
ATOM     25  H   UNL     1       1.805   3.891  -2.350  0.00  0.00    -0.081 HD
BRANCH  24  26
ATOM     26  C   UNL     1       0.833   3.458  -0.591  0.00  0.00    -0.041 C 
ATOM     27  C   UNL     1       1.127   3.465   0.911  0.00  0.00    -0.008 C 
BRANCH  26  28
ATOM     28  C   UNL     1       0.589   2.043  -1.048  0.00  0.00    -0.061 A 
ATOM     29  C   UNL     1       0.231   1.073  -0.130  0.00  0.00    +0.004 A 
ATOM     30  C   UNL     1       0.006  -0.224  -0.545  0.00  0.00    +0.028 A 
ATOM     31  C   UNL     1       0.139  -0.554  -1.887  0.00  0.00    +0.067 A 
ATOM     32  C   UNL     1       0.498   0.422  -2.807  0.00  0.00    +0.028 A 
ATOM     33  C   UNL     1       0.722   1.718  -2.385  0.00  0.00    +0.004 A 
BRANCH  31  34
ATOM     34  N   UNL     1      -0.088  -1.871  -2.313  0.00  0.00    -0.220 N 
ATOM     35  C   UNL     1      -0.004  -2.338  -3.574  0.00  0.00    +0.225 A 
ATOM     36  N   UNL     1      -0.287  -3.616  -3.551  0.00  0.00    -0.222 NA
ATOM     37  C   UNL     1      -0.564  -3.996  -2.305  0.00  0.00    +0.245 A 
ATOM     38  N   UNL     1      -0.455  -2.963  -1.510  0.00  0.00    -0.154 NA
ENDBRANCH  31  34
ENDBRANCH  26  28
ENDBRANCH  24  26
ENDBRANCH  22  24
ENDBRANCH   2  22
TORSDOF 11
