REMARK  Name = ZINC01309480
REMARK  6 active torsions:
REMARK  status: ('A' for Active; 'I' for Inactive)
REMARK    1  A    between atoms: C_8  and  S_10
REMARK    2  A    between atoms: S_10  and  C_11
REMARK    3  A    between atoms: C_11  and  C_12
REMARK    4  A    between atoms: N_14  and  N_15
REMARK    5  A    between atoms: C_16  and  C_17
REMARK    6  A    between atoms: C_19  and  N_24
REMARK                            x       y       z     vdW  Elec       q    Type
REMARK                         _______ _______ _______ _____ _____    ______ ____
ROOT
ATOM      1  C   UNL     1      -1.703  -3.733  -0.001  0.00  0.00    +0.243 C 
ATOM      2  O   UNL     1      -2.876  -3.424   0.012  0.00  0.00    -0.273 OA
ATOM      3  N   UNL     1      -1.349  -5.034  -0.012  0.00  0.00    -0.206 N 
ATOM      4  H   UNL     1      -0.411  -5.281  -0.022  0.00  0.00    +0.177 HD
ENDROOT
BRANCH   3   5
ATOM      5  N   UNL     1      -2.336  -6.029  -0.007  0.00  0.00    -0.188 NA
ATOM      6  C   UNL     1      -1.995  -7.280  -0.017  0.00  0.00    +0.139 C 
BRANCH   6   7
ATOM      7  C   UNL     1      -3.034  -8.327  -0.013  0.00  0.00    +0.015 A 
ATOM      8  C   UNL     1      -2.671  -9.676  -0.029  0.00  0.00    +0.043 A 
ATOM      9  C   UNL     1      -3.648 -10.650  -0.020  0.00  0.00    +0.127 A 
ATOM     10  C   UNL     1      -4.985 -10.294  -0.005  0.00  0.00    +0.034 A 
ATOM     11  C   UNL     1      -5.353  -8.961   0.007  0.00  0.00    +0.023 A 
ATOM     12  C   UNL     1      -4.386  -7.975   0.003  0.00  0.00    +0.050 A 
ATOM     13 CL   UNL     1      -4.850  -6.302   0.016  0.00  0.00    -0.083 Cl
BRANCH   9  14
ATOM     14  N   UNL     1      -3.264 -12.080  -0.033  0.00  0.00    +0.056 N 
ATOM     15  O   UNL     1      -4.126 -12.941  -0.031  0.00  0.00    -0.126 OA
ATOM     16  O   UNL     1      -2.088 -12.395  -0.047  0.00  0.00    -0.126 OA
ENDBRANCH   9  14
ENDBRANCH   6   7
ENDBRANCH   3   5
BRANCH   1  17
ATOM     17  C   UNL     1      -0.642  -2.664  -0.006  0.00  0.00    +0.176 C 
BRANCH  17  18
ATOM     18  S   UNL     1      -1.428  -1.034   0.011  0.00  0.00    -0.058 S 
BRANCH  18  26
ATOM     19  C   UNL     1       4.026   2.033  -0.025  0.00  0.00    +0.002 A 
ATOM     20  C   UNL     1       3.219   3.161  -0.012  0.00  0.00    +0.004 A 
ATOM     21  C   UNL     1       1.845   3.038   0.001  0.00  0.00    +0.048 A 
ATOM     22  C   UNL     1       1.263   1.781  -0.000  0.00  0.00    +0.156 A 
ATOM     23  C   UNL     1       2.075   0.637  -0.014  0.00  0.00    +0.110 A 
ATOM     24  C   UNL     1       3.464   0.775  -0.027  0.00  0.00    +0.031 A 
ATOM     25  N   UNL     1       1.238  -0.436  -0.012  0.00  0.00    -0.203 NA
ATOM     26  C   UNL     1       0.002  -0.004   0.002  0.00  0.00    +0.258 A 
ATOM     27  O   UNL     1      -0.016   1.341   0.009  0.00  0.00    -0.431 OA
ENDBRANCH  18  26
ENDBRANCH  17  18
ENDBRANCH   1  17
TORSDOF 6
