REMARK  Name = ZINC24716887
REMARK  10 active torsions:
REMARK  status: ('A' for Active; 'I' for Inactive)
REMARK    1  A    between atoms: C_1  and  C_2
REMARK    2  A    between atoms: C_5  and  C_7
REMARK    3  A    between atoms: C_7  and  N_8
REMARK    4  A    between atoms: N_8  and  C_9
REMARK    5  A    between atoms: N_8  and  C_17
REMARK    6  A    between atoms: C_9  and  C_10
REMARK    7  A    between atoms: C_10  and  C_11
REMARK    8  A    between atoms: C_17  and  C_18
REMARK    9  A    between atoms: C_27  and  S_29
REMARK   10  A    between atoms: S_29  and  N_32
REMARK                            x       y       z     vdW  Elec       q    Type
REMARK                         _______ _______ _______ _____ _____    ______ ____
ROOT
ATOM      1  C   UNL     1       3.798   5.588  -0.296  0.00  0.00    +0.020 C 
ENDROOT
BRANCH   1   2
ATOM      2  C   UNL     1       2.307   5.384  -0.223  0.00  0.00    +0.203 C 
ATOM      3  O   UNL     1       1.574   6.331  -0.031  0.00  0.00    -0.277 OA
ATOM      4  N   UNL     1       1.787   4.149  -0.371  0.00  0.00    -0.272 N 
ATOM      5  C   UNL     1       2.568   2.932  -0.606  0.00  0.00    +0.118 C 
ATOM      6  C   UNL     1       1.532   1.800  -0.703  0.00  0.00    +0.056 C 
ATOM      7  C   UNL     1       0.199   2.487  -0.508  0.00  0.00    -0.023 A 
ATOM      8  C   UNL     1       0.424   3.842  -0.322  0.00  0.00    +0.040 A 
ATOM      9  C   UNL     1      -0.667   4.689  -0.120  0.00  0.00    +0.026 A 
ATOM     10  C   UNL     1      -1.949   4.180  -0.106  0.00  0.00    +0.030 A 
ATOM     11  C   UNL     1      -2.163   2.828  -0.298  0.00  0.00    +0.105 A 
ATOM     12  C   UNL     1      -1.087   1.982  -0.493  0.00  0.00    +0.034 A 
BRANCH  11  13
ATOM     13  S   UNL     1      -3.803   2.183  -0.288  0.00  0.00    +0.056 S 
ATOM     14  O   UNL     1      -4.665   3.259  -0.631  0.00  0.00    -0.153 OA
ATOM     15  O   UNL     1      -3.767   0.970  -1.028  0.00  0.00    -0.153 OA
BRANCH  13  16
ATOM     16  N   UNL     1      -4.157   1.772   1.277  0.00  0.00    -0.204 NA
ATOM     17  H   UNL     1      -5.178   1.363   1.326  0.00  0.00    +0.144 HD
ATOM     18  H   UNL     1      -4.089   2.666   1.915  0.00  0.00    +0.144 HD
ENDBRANCH  13  16
ENDBRANCH  11  13
ENDBRANCH   1   2
BRANCH   1  19
ATOM     19  N   UNL     1       4.108   7.011  -0.106  0.00  0.00    +0.389 N 
ATOM     20  H   UNL     1       3.494   7.588  -0.813  0.00  0.00    -0.081 HD
BRANCH  19  21
ATOM     21  C   UNL     1       3.762   7.447   1.253  0.00  0.00    -0.035 C 
BRANCH  21  26
ATOM     22  C   UNL     1       4.506  13.045   1.707  0.00  0.00    +0.051 C 
ATOM     23  C   UNL     1       4.062  11.618   1.515  0.00  0.00    -0.013 A 
ATOM     24  C   UNL     1       2.851  11.144   1.133  0.00  0.00    +0.011 A 
ATOM     25  C   UNL     1       2.669   9.779   1.022  0.00  0.00    +0.009 A 
ATOM     26  C   UNL     1       3.708   8.953   1.299  0.00  0.00    -0.026 A 
ATOM     27  S   UNL     1       4.994  10.111   1.739  0.00  0.00    -0.100 S 
ENDBRANCH  21  26
ENDBRANCH  19  21
BRANCH  19  28
ATOM     28  C   UNL     1       5.519   7.287  -0.404  0.00  0.00    -0.073 C 
BRANCH  28  29
ATOM     29  C   UNL     1       5.729   7.293  -1.920  0.00  0.00    +0.016 C 
BRANCH  29  30
ATOM     30  C   UNL     1       7.154   7.673  -2.229  0.00  0.00    -0.049 A 
ATOM     31  C   UNL     1       7.490   9.001  -2.415  0.00  0.00    +0.003 A 
ATOM     32  C   UNL     1       8.798   9.350  -2.694  0.00  0.00    +0.000 A 
ATOM     33  C   UNL     1       9.768   8.371  -2.796  0.00  0.00    +0.000 A 
ATOM     34  C   UNL     1       9.431   7.043  -2.615  0.00  0.00    +0.000 A 
ATOM     35  C   UNL     1       8.124   6.694  -2.331  0.00  0.00    +0.003 A 
ENDBRANCH  29  30
ENDBRANCH  28  29
ENDBRANCH  19  28
ENDBRANCH   1  19
TORSDOF 9
