REMARK  Name = ZINC05041095
REMARK  6 active torsions:
REMARK  status: ('A' for Active; 'I' for Inactive)
REMARK    1  A    between atoms: C_1  and  C_2
REMARK    2  A    between atoms: N_11  and  C_15
REMARK    3  A    between atoms: C_15  and  C_16
REMARK    4  A    between atoms: C_16  and  O_18
REMARK    5  A    between atoms: O_18  and  C_19
REMARK    6  A    between atoms: C_19  and  C_20
REMARK                            x       y       z     vdW  Elec       q    Type
REMARK                         _______ _______ _______ _____ _____    ______ ____
ROOT
ATOM      1  C   UNL     1       3.683  -8.155   5.650  0.00  0.00    +0.010 C 
ATOM      2  C   UNL     1       3.565  -8.848   4.292  0.00  0.00    +0.018 C 
ATOM      3  C   UNL     1       4.941  -8.901   3.624  0.00  0.00    +0.006 C 
ATOM      4  C   UNL     1       4.818  -9.576   2.257  0.00  0.00    +0.000 C 
ATOM      5  C   UNL     1       3.862  -8.772   1.372  0.00  0.00    +0.003 C 
ATOM      6  C   UNL     1       2.482  -8.720   2.032  0.00  0.00    +0.035 C 
ATOM      7  C   UNL     1       2.598  -8.069   3.406  0.00  0.00    +0.115 C 
ATOM      8  C   UNL     1       3.049  -6.632   3.272  0.00  0.00    +0.247 C 
ATOM      9  O   UNL     1       4.089  -6.231   2.797  0.00  0.00    -0.273 OA
ATOM     10  N   UNL     1       2.049  -5.891   3.793  0.00  0.00    -0.213 N 
ATOM     11  C   UNL     1       1.046  -6.659   4.236  0.00  0.00    +0.310 C 
ATOM     12  O   UNL     1       0.035  -6.221   4.751  0.00  0.00    -0.252 OA
ATOM     13  N   UNL     1       1.279  -7.972   4.044  0.00  0.00    -0.285 N 
ATOM     14  H   UNL     1       0.694  -8.707   4.282  0.00  0.00    +0.151 HD
ENDROOT
BRANCH  10  15
ATOM     15  C   UNL     1       2.062  -4.429   3.870  0.00  0.00    +0.238 C 
BRANCH  15  16
ATOM     16  C   UNL     1       1.454  -3.854   2.617  0.00  0.00    +0.325 C 
ATOM     17  O   UNL     1       1.050  -4.591   1.748  0.00  0.00    -0.249 OA
BRANCH  16  18
ATOM     18  O   UNL     1       1.360  -2.523   2.466  0.00  0.00    -0.463 OA
BRANCH  18  19
ATOM     19  C   UNL     1       0.763  -2.041   1.233  0.00  0.00    +0.235 C 
BRANCH  19  20
ATOM     20  C   UNL     1       0.742  -0.511   1.242  0.00  0.00    +0.027 C 
ATOM     21  C   UNL     1       0.002  -0.004   0.002  0.00  0.00    +0.007 C 
ATOM     22  C   UNL     1      -0.019   1.526   0.010  0.00  0.00    +0.000 C 
ATOM     23  C   UNL     1       1.417   2.055  -0.000  0.00  0.00    +0.000 C 
ATOM     24  C   UNL     1       2.157   1.548   1.239  0.00  0.00    +0.000 C 
ATOM     25  C   UNL     1       2.178   0.019   1.231  0.00  0.00    +0.007 C 
ENDBRANCH  19  20
ENDBRANCH  18  19
ENDBRANCH  16  18
ENDBRANCH  15  16
ENDBRANCH  10  15
TORSDOF 5
