REMARK  Name = ZINC15674696
REMARK  8 active torsions:
REMARK  status: ('A' for Active; 'I' for Inactive)
REMARK    1  A    between atoms: C_1  and  O_2
REMARK    2  A    between atoms: O_2  and  C_3
REMARK    3  A    between atoms: C_6  and  C_9
REMARK    4  A    between atoms: C_11  and  C_14
REMARK    5  A    between atoms: C_17  and  O_31
REMARK    6  A    between atoms: N_20  and  C_21
REMARK    7  A    between atoms: C_21  and  C_22
REMARK    8  A    between atoms: C_25  and  N_28
REMARK                            x       y       z     vdW  Elec       q    Type
REMARK                         _______ _______ _______ _____ _____    ______ ____
ROOT
ATOM      1  C   UNL     1      -7.026  -5.606   0.053  0.00  0.00    +0.149 C 
ATOM      2  C   UNL     1      -7.627  -5.922  -1.329  0.00  0.00    +0.061 C 
ATOM      3  C   UNL     1      -9.125  -6.194  -1.065  0.00  0.00    +0.130 C 
ATOM      4  C   UNL     1      -9.149  -6.572   0.438  0.00  0.00    +0.116 C 
ATOM      5  N   UNL     1      -8.129  -5.668   1.036  0.00  0.00    -0.285 NA
ENDROOT
BRANCH   1   8
ATOM      6  C   UNL     1      -4.963  -2.619   0.035  0.00  0.00    +0.202 A 
ATOM      7  N   UNL     1      -5.148  -3.952   0.039  0.00  0.00    -0.190 NA
ATOM      8  C   UNL     1      -6.421  -4.225   0.047  0.00  0.00    +0.245 A 
ATOM      9  O   UNL     1      -7.103  -3.073   0.047  0.00  0.00    -0.336 OA
ATOM     10  N   UNL     1      -6.135  -2.034   0.044  0.00  0.00    -0.056 NA
BRANCH   6  14
ATOM     11  C   UNL     1      -1.200  -0.637   0.010  0.00  0.00    +0.120 A 
ATOM     12  C   UNL     1      -2.374   0.105   0.019  0.00  0.00    +0.046 A 
ATOM     13  C   UNL     1      -3.595  -0.535   0.027  0.00  0.00    +0.015 A 
ATOM     14  C   UNL     1      -3.650  -1.928   0.026  0.00  0.00    +0.023 A 
ATOM     15  C   UNL     1      -2.470  -2.670   0.016  0.00  0.00    +0.015 A 
ATOM     16  C   UNL     1      -1.252  -2.025   0.003  0.00  0.00    +0.046 A 
BRANCH  11  18
ATOM     17  C   UNL     1      -0.017   1.425   0.010  0.00  0.00    +0.277 C 
ATOM     18  O   UNL     1       0.002  -0.004   0.002  0.00  0.00    -0.495 OA
ENDBRANCH  11  18
ENDBRANCH   6  14
ENDBRANCH   1   8
BRANCH   3  19
ATOM     19  O   UNL     1      -9.592  -7.279  -1.870  0.00  0.00    -0.390 OA
ATOM     20  H   UNL     1     -10.527  -7.490  -1.742  0.00  0.00    +0.210 HD
ENDBRANCH   3  19
BRANCH   5  21
ATOM     21  C   UNL     1      -7.656  -6.183   2.328  0.00  0.00    +0.120 C 
BRANCH  21  22
ATOM     22  C   UNL     1      -8.734  -6.003   3.365  0.00  0.00    -0.033 A 
ATOM     23  C   UNL     1      -8.793  -4.838   4.107  0.00  0.00    +0.007 A 
ATOM     24  C   UNL     1      -9.782  -4.673   5.058  0.00  0.00    +0.033 A 
ATOM     25  C   UNL     1     -10.713  -5.674   5.268  0.00  0.00    +0.126 A 
ATOM     26  C   UNL     1     -10.654  -6.839   4.526  0.00  0.00    +0.033 A 
ATOM     27  C   UNL     1      -9.668  -7.002   3.572  0.00  0.00    +0.007 A 
BRANCH  25  28
ATOM     28  N   UNL     1     -11.771  -5.498   6.288  0.00  0.00    +0.056 N 
ATOM     29  O   UNL     1     -11.822  -4.480   6.937  0.00  0.00    -0.126 OA
ATOM     30  O   UNL     1     -12.585  -6.373   6.472  0.00  0.00    -0.126 OA
ENDBRANCH  25  28
ENDBRANCH  21  22
ENDBRANCH   5  21
TORSDOF 7
