REMARK  Name = ZINC08645784
REMARK  10 active torsions:
REMARK  status: ('A' for Active; 'I' for Inactive)
REMARK    1  A    between atoms: C_1  and  C_2
REMARK    2  A    between atoms: C_2  and  O_3
REMARK    3  A    between atoms: O_3  and  C_4
REMARK    4  A    between atoms: C_4  and  C_6
REMARK    5  A    between atoms: C_10  and  N_11
REMARK    6  A    between atoms: C_12  and  C_14
REMARK    7  A    between atoms: C_14  and  N_15
REMARK    8  A    between atoms: C_18  and  C_22
REMARK    9  A    between atoms: C_18  and  C_23
REMARK   10  A    between atoms: C_26  and  N_29
REMARK                            x       y       z     vdW  Elec       q    Type
REMARK                         _______ _______ _______ _____ _____    ______ ____
ROOT
ATOM      1  C   UNL     1      -1.239   2.150   0.020  0.00  0.00    +0.214 C 
ENDROOT
BRANCH   1   2
ATOM      2  N   UNL     1      -0.016   1.343   0.009  0.00  0.00    -0.215 N 
ATOM      3  C   UNL     1       0.002  -0.004   0.002  0.00  0.00    +0.251 C 
ATOM      4  O   UNL     1      -0.954  -0.749   0.008  0.00  0.00    -0.272 OA
ATOM      5  C   UNL     1       1.467  -0.394  -0.014  0.00  0.00    +0.135 C 
ATOM      6  N   UNL     1       2.170   0.901  -0.014  0.00  0.00    -0.281 N 
ATOM      7  C   UNL     1       1.220   1.854   0.000  0.00  0.00    +0.310 C 
ATOM      8  O   UNL     1       1.460   3.045   0.004  0.00  0.00    -0.252 OA
ATOM      9  C   UNL     1       1.799  -1.187  -1.280  0.00  0.00    +0.047 C 
ATOM     10  H   UNL     1       3.130   1.039  -0.022  0.00  0.00    +0.152 HD
BRANCH   5  11
ATOM     11  C   UNL     1       1.818  -1.188   1.218  0.00  0.00    -0.015 A 
ATOM     12  C   UNL     1       0.860  -1.975   1.829  0.00  0.00    +0.008 A 
ATOM     13  C   UNL     1       1.183  -2.707   2.956  0.00  0.00    +0.033 A 
ATOM     14  C   UNL     1       2.461  -2.644   3.478  0.00  0.00    +0.126 A 
ATOM     15  C   UNL     1       3.418  -1.853   2.870  0.00  0.00    +0.033 A 
ATOM     16  C   UNL     1       3.096  -1.125   1.740  0.00  0.00    +0.008 A 
BRANCH  14  17
ATOM     17  N   UNL     1       2.805  -3.423   4.689  0.00  0.00    +0.056 N 
ATOM     18  O   UNL     1       3.932  -3.368   5.149  0.00  0.00    -0.126 OA
ATOM     19  O   UNL     1       1.962  -4.120   5.224  0.00  0.00    -0.126 OA
ENDBRANCH  14  17
ENDBRANCH   5  11
ENDBRANCH   1   2
BRANCH   1  21
ATOM     20  N   UNL     1      -2.757   3.147   1.700  0.00  0.00    -0.278 N 
ATOM     21  C   UNL     1      -1.652   2.419   1.444  0.00  0.00    +0.236 C 
ATOM     22  O   UNL     1      -0.989   1.980   2.360  0.00  0.00    -0.274 OA
ATOM     23  H   UNL     1      -3.287   3.498   0.967  0.00  0.00    +0.155 HD
BRANCH  20  28
ATOM     24  C   UNL     1      -4.228   4.113   3.469  0.00  0.00    +0.091 A 
ATOM     25  C   UNL     1      -4.403   4.226   4.917  0.00  0.00    -0.021 A 
ATOM     26  C   UNL     1      -3.466   3.605   5.656  0.00  0.00    -0.004 A 
ATOM     27  S   UNL     1      -2.365   2.873   4.469  0.00  0.00    -0.077 S 
ATOM     28  C   UNL     1      -3.136   3.394   3.010  0.00  0.00    +0.086 A 
ATOM     29  C   UNL     1      -3.716   3.762   7.131  0.00  0.00    +0.043 C 
ATOM     30  C   UNL     1      -5.190   4.213   7.231  0.00  0.00    +0.010 C 
ATOM     31  C   UNL     1      -5.404   4.890   5.863  0.00  0.00    +0.037 C 
BRANCH  24  32
ATOM     32  C   UNL     1      -5.172   4.736   2.539  0.00  0.00    +0.342 C 
ATOM     33  O   UNL     1      -6.143   4.115   2.152  0.00  0.00    -0.245 OA
BRANCH  32  34
ATOM     34  O   UNL     1      -4.964   5.999   2.113  0.00  0.00    -0.461 OA
BRANCH  34  36
ATOM     35  C   UNL     1      -5.540   7.982   0.822  0.00  0.00    +0.048 C 
ATOM     36  C   UNL     1      -5.941   6.552   1.192  0.00  0.00    +0.229 C 
ENDBRANCH  34  36
ENDBRANCH  32  34
ENDBRANCH  24  32
ENDBRANCH  20  28
ENDBRANCH   1  21
TORSDOF 8
