REMARK  Name = ZINC36548623
REMARK  11 active torsions:
REMARK  status: ('A' for Active; 'I' for Inactive)
REMARK    1  A    between atoms: C_1  and  C_2
REMARK    2  A    between atoms: C_2  and  C_3
REMARK    3  A    between atoms: C_3  and  C_4
REMARK    4  A    between atoms: C_4  and  N_5
REMARK    5  A    between atoms: C_6  and  C_8
REMARK    6  A    between atoms: C_8  and  C_10
REMARK    7  A    between atoms: C_8  and  N_17
REMARK    8  A    between atoms: C_15  and  O_16
REMARK    9  A    between atoms: N_17  and  C_18
REMARK   10  A    between atoms: C_25  and  C_27
REMARK   11  A    between atoms: C_31  and  N_33
REMARK                            x       y       z     vdW  Elec       q    Type
REMARK                         _______ _______ _______ _____ _____    ______ ____
ROOT
ATOM      1  N   UNL     1      -4.561  -6.063   0.131  0.00  0.00    -0.250 N 
ATOM      2  C   UNL     1      -5.721  -6.745   0.214  0.00  0.00    +0.252 C 
ATOM      3  O   UNL     1      -6.776  -6.178   0.008  0.00  0.00    -0.270 OA
ENDROOT
BRANCH   1   4
ATOM      4  C   UNL     1      -3.342  -6.734   0.276  0.00  0.00    +0.056 A 
ATOM      5  C   UNL     1      -2.685  -6.727   1.499  0.00  0.00    +0.025 A 
ATOM      6  C   UNL     1      -1.482  -7.391   1.640  0.00  0.00    +0.002 A 
ATOM      7  C   UNL     1      -0.932  -8.063   0.564  0.00  0.00    +0.002 A 
ATOM      8  C   UNL     1      -1.583  -8.073  -0.656  0.00  0.00    +0.022 A 
ATOM      9  C   UNL     1      -2.790  -7.415  -0.802  0.00  0.00    +0.062 A 
ATOM     10 CL   UNL     1      -3.610  -7.434  -2.332  0.00  0.00    -0.082 Cl
ENDBRANCH   1   4
BRANCH   2  11
ATOM     11  C   UNL     1      -5.709  -8.183   0.556  0.00  0.00    +0.039 A 
ATOM     12  C   UNL     1      -4.911  -8.648   1.603  0.00  0.00    +0.013 A 
ATOM     13  C   UNL     1      -4.905  -9.992   1.917  0.00  0.00    +0.003 A 
ATOM     14  C   UNL     1      -5.687 -10.877   1.197  0.00  0.00    +0.033 A 
ATOM     15  C   UNL     1      -6.479 -10.423   0.158  0.00  0.00    +0.127 A 
ATOM     16  C   UNL     1      -6.500  -9.081  -0.162  0.00  0.00    +0.045 A 
BRANCH  15  17
ATOM     17  N   UNL     1      -7.312 -11.378  -0.608  0.00  0.00    +0.056 N 
ATOM     18  O   UNL     1      -7.298 -12.553  -0.325  0.00  0.00    -0.126 OA
ATOM     19  O   UNL     1      -8.005 -10.983  -1.516  0.00  0.00    -0.126 OA
ENDBRANCH  15  17
ENDBRANCH   2  11
BRANCH   1  20
ATOM     20  C   UNL     1      -4.577  -4.619  -0.112  0.00  0.00    +0.201 C 
BRANCH  20  21
ATOM     21  C   UNL     1      -5.151  -3.913   1.090  0.00  0.00    +0.024 A 
ATOM     22  C   UNL     1      -5.107  -4.517   2.332  0.00  0.00    +0.009 A 
ATOM     23  C   UNL     1      -5.633  -3.871   3.435  0.00  0.00    +0.001 A 
ATOM     24  C   UNL     1      -6.205  -2.619   3.298  0.00  0.00    +0.004 A 
ATOM     25  C   UNL     1      -6.251  -2.011   2.059  0.00  0.00    +0.046 A 
ATOM     26  C   UNL     1      -5.719  -2.655   0.951  0.00  0.00    +0.122 A 
BRANCH  26  27
ATOM     27  O   UNL     1      -5.758  -2.057  -0.268  0.00  0.00    -0.506 OA
ATOM     28  H   UNL     1      -6.555  -2.256  -0.778  0.00  0.00    +0.292 HD
ENDBRANCH  26  27
ENDBRANCH  20  21
BRANCH  20  30
ATOM     29  N   UNL     1      -2.958  -2.883  -0.808  0.00  0.00    -0.313 N 
ATOM     30  C   UNL     1      -3.171  -4.134  -0.355  0.00  0.00    +0.239 C 
ATOM     31  O   UNL     1      -2.231  -4.870  -0.142  0.00  0.00    -0.273 OA
ATOM     32  H   UNL     1      -3.710  -2.294  -0.979  0.00  0.00    +0.149 HD
BRANCH  29  33
ATOM     33  C   UNL     1      -1.591  -2.412  -1.044  0.00  0.00    +0.104 C 
BRANCH  33  34
ATOM     34  C   UNL     1      -1.629  -0.970  -1.553  0.00  0.00    +0.018 C 
BRANCH  34  36
ATOM     35  C   UNL     1      -0.239   0.964  -2.308  0.00  0.00    +0.004 C 
ATOM     36  C   UNL     1      -0.201  -0.478  -1.800  0.00  0.00    -0.002 C 
ENDBRANCH  34  36
ENDBRANCH  33  34
ENDBRANCH  29  33
ENDBRANCH  20  30
ENDBRANCH   1  20
TORSDOF 10
