REMARK  Name = ZINC39662715
REMARK  6 active torsions:
REMARK  status: ('A' for Active; 'I' for Inactive)
REMARK    1  A    between atoms: C_4  and  C_33
REMARK    2  A    between atoms: C_6  and  C_7
REMARK    3  A    between atoms: C_11  and  C_20
REMARK    4  A    between atoms: N_22  and  C_23
REMARK    5  A    between atoms: C_23  and  C_24
REMARK    6  A    between atoms: C_27  and  C_30
REMARK                            x       y       z     vdW  Elec       q    Type
REMARK                         _______ _______ _______ _____ _____    ______ ____
ROOT
ATOM      1  C   UNL     1      -1.270  -0.768   0.008  0.00  0.00    +0.247 C 
ATOM      2  O   UNL     1      -1.257  -1.978  -0.108  0.00  0.00    -0.270 OA
ATOM      3  N   UNL     1      -2.443  -0.115   0.126  0.00  0.00    -0.296 N 
ATOM      4  C   UNL     1      -2.668   1.349   0.148  0.00  0.00    +0.121 C 
ATOM      5  C   UNL     1      -3.960   1.558  -0.674  0.00  0.00    +0.100 C 
ATOM      6  C   UNL     1      -4.698   0.211  -0.594  0.00  0.00    -0.004 C 
ATOM      7  C   UNL     1      -3.799  -0.699   0.256  0.00  0.00    +0.115 C 
ATOM      8  C   UNL     1      -4.870  -0.381  -1.989  0.00  0.00    -0.010 C 
ATOM      9  C   UNL     1      -5.656  -1.692  -1.889  0.00  0.00    -0.082 C 
ATOM     10  N   UNL     1      -6.967  -1.432  -1.280  0.00  0.00    +0.379 N 
ATOM     11  C   UNL     1      -6.794  -0.950   0.095  0.00  0.00    -0.082 C 
ATOM     12  C   UNL     1      -6.056   0.391   0.079  0.00  0.00    -0.010 C 
ATOM     13  H   UNL     1      -7.455  -0.735  -1.821  0.00  0.00    -0.086 HD
ATOM     14  H   UNL     1      -7.506  -2.285  -1.271  0.00  0.00    -0.086 HD
ENDROOT
BRANCH   1  20
ATOM     15  C   UNL     1       0.068   1.234   0.642  0.00  0.00    +0.016 A 
ATOM     16  C   UNL     1       1.256   1.934   0.651  0.00  0.00    +0.039 A 
ATOM     17  C   UNL     1       2.382   1.399   0.044  0.00  0.00    +0.135 A 
ATOM     18  C   UNL     1       2.321   0.160  -0.575  0.00  0.00    +0.091 A 
ATOM     19  C   UNL     1       1.138  -0.548  -0.590  0.00  0.00    +0.028 A 
ATOM     20  C   UNL     1       0.000  -0.014   0.021  0.00  0.00    +0.038 A 
ATOM     21  F   UNL     1       3.544   2.089   0.055  0.00  0.00    -0.205 F 
BRANCH  18  22
ATOM     22  C   UNL     1       3.549  -0.414  -1.232  0.00  0.00    +0.420 C 
ATOM     23  F   UNL     1       3.242  -1.663  -1.784  0.00  0.00    -0.166 F 
ATOM     24  F   UNL     1       3.982   0.449  -2.245  0.00  0.00    -0.166 F 
ATOM     25  F   UNL     1       4.562  -0.561  -0.280  0.00  0.00    -0.166 F 
ENDBRANCH  18  22
ENDBRANCH   1  20
BRANCH   5  26
ATOM     26  C   UNL     1      -3.623   1.890  -2.105  0.00  0.00    +0.218 C 
ATOM     27  O   UNL     1      -2.655   1.385  -2.633  0.00  0.00    -0.275 OA
ATOM     28  N   UNL     1      -4.398   2.748  -2.798  0.00  0.00    -0.315 N 
ATOM     29  H   UNL     1      -5.173   3.151  -2.376  0.00  0.00    +0.149 HD
BRANCH  28  30
ATOM     30  C   UNL     1      -4.071   3.070  -4.189  0.00  0.00    +0.107 C 
BRANCH  30  31
ATOM     31  C   UNL     1      -5.101   4.059  -4.739  0.00  0.00    +0.006 C 
ATOM     32  C   UNL     1      -4.993   5.383  -3.980  0.00  0.00    +0.006 C 
ATOM     33  C   UNL     1      -6.023   6.372  -4.530  0.00  0.00    +0.015 C 
ATOM     34  C   UNL     1      -5.755   6.613  -6.017  0.00  0.00    +0.102 C 
ATOM     35  C   UNL     1      -5.863   5.289  -6.776  0.00  0.00    +0.015 C 
ATOM     36  C   UNL     1      -4.833   4.300  -6.226  0.00  0.00    +0.006 C 
BRANCH  34  37
ATOM     37  C   UNL     1      -6.769   7.587  -6.559  0.00  0.00    +0.359 C 
ATOM     38  O   UNL     1      -6.426   8.447  -7.351  0.00  0.00    -0.246 OA
ATOM     39  O   UNL     1      -7.934   7.514  -6.205  0.00  0.00    -0.246 OA
ENDBRANCH  34  37
ENDBRANCH  30  31
ENDBRANCH  28  30
ENDBRANCH   5  26
TORSDOF 6
