REMARK  Name = ZINC08209217
REMARK  7 active torsions:
REMARK  status: ('A' for Active; 'I' for Inactive)
REMARK    1  A    between atoms: C_1  and  C_2
REMARK    2  A    between atoms: C_3  and  N_9
REMARK    3  A    between atoms: C_10  and  C_12
REMARK    4  A    between atoms: C_12  and  S_13
REMARK    5  A    between atoms: S_13  and  C_14
REMARK    6  A    between atoms: C_17  and  C_19
REMARK    7  A    between atoms: C_23  and  N_25
REMARK                            x       y       z     vdW  Elec       q    Type
REMARK                         _______ _______ _______ _____ _____    ______ ____
ROOT
ATOM      1  S   UNL     1       0.322  -1.057  -6.259  0.00  0.00    -0.056 S 
ENDROOT
BRANCH   1   2
ATOM      2  C   UNL     1       0.425  -0.023  -7.682  0.00  0.00    +0.278 A 
ATOM      3  N   UNL     1       0.414   1.290  -7.691  0.00  0.00    -0.101 NA
ATOM      4  N   UNL     1       0.507   1.711  -8.903  0.00  0.00    -0.106 NA
ATOM      5  C   UNL     1       0.581   0.685  -9.716  0.00  0.00    +0.249 A 
ATOM      6  O   UNL     1       0.536  -0.434  -8.959  0.00  0.00    -0.411 OA
BRANCH   5   7
ATOM      7  C   UNL     1       0.697   0.742 -11.188  0.00  0.00    +0.041 A 
ATOM      8  C   UNL     1       0.761  -0.438 -11.932  0.00  0.00    +0.013 A 
ATOM      9  C   UNL     1       0.868  -0.377 -13.306  0.00  0.00    +0.003 A 
ATOM     10  C   UNL     1       0.913   0.849 -13.946  0.00  0.00    +0.033 A 
ATOM     11  C   UNL     1       0.851   2.021 -13.215  0.00  0.00    +0.127 A 
ATOM     12  C   UNL     1       0.738   1.975 -11.840  0.00  0.00    +0.046 A 
BRANCH  11  13
ATOM     13  N   UNL     1       0.901   3.328 -13.908  0.00  0.00    +0.056 N 
ATOM     14  O   UNL     1       0.995   3.369 -15.113  0.00  0.00    -0.126 OA
ATOM     15  O   UNL     1       0.847   4.353 -13.270  0.00  0.00    -0.126 OA
ENDBRANCH  11  13
ENDBRANCH   5   7
ENDBRANCH   1   2
BRANCH   1  16
ATOM     16  C   UNL     1       0.192   0.111  -4.876  0.00  0.00    +0.175 C 
BRANCH  16  18
ATOM     17  N   UNL     1      -0.010   0.011  -2.413  0.00  0.00    -0.285 N 
ATOM     18  C   UNL     1       0.095  -0.653  -3.581  0.00  0.00    +0.228 C 
ATOM     19  O   UNL     1       0.112  -1.866  -3.590  0.00  0.00    -0.275 OA
ATOM     20  H   UNL     1      -0.104   0.977  -2.411  0.00  0.00    +0.155 HD
BRANCH  17  23
ATOM     21  C   UNL     1      -1.263   1.190  -0.146  0.00  0.00    +0.047 C 
ATOM     22  C   UNL     1      -0.583  -0.153  -0.073  0.00  0.00    -0.011 A 
ATOM     23  C   UNL     1       0.017  -0.692  -1.204  0.00  0.00    +0.038 A 
ATOM     24  C   UNL     1       0.642  -1.929  -1.132  0.00  0.00    +0.023 A 
ATOM     25  C   UNL     1       0.667  -2.621   0.064  0.00  0.00    +0.003 A 
ATOM     26  C   UNL     1       0.069  -2.084   1.188  0.00  0.00    +0.020 A 
ATOM     27  C   UNL     1      -0.550  -0.848   1.122  0.00  0.00    +0.046 A 
ATOM     28 CL   UNL     1      -1.293  -0.173   2.538  0.00  0.00    -0.083 Cl
ENDBRANCH  17  23
ENDBRANCH  16  18
ENDBRANCH   1  16
TORSDOF 6
