REMARK  Name = ZINC27807416
REMARK  8 active torsions:
REMARK  status: ('A' for Active; 'I' for Inactive)
REMARK    1  A    between atoms: C_1  and  N_2
REMARK    2  A    between atoms: C_6  and  C_8
REMARK    3  A    between atoms: C_8  and  C_10
REMARK    4  A    between atoms: C_8  and  O_16
REMARK    5  A    between atoms: O_16  and  C_17
REMARK    6  A    between atoms: C_17  and  C_19
REMARK    7  A    between atoms: C_22  and  C_25
REMARK    8  A    between atoms: C_25  and  N_26
REMARK                            x       y       z     vdW  Elec       q    Type
REMARK                         _______ _______ _______ _____ _____    ______ ____
ROOT
ATOM      1  C   UNL     1       0.060  -4.250  -0.021  0.00  0.00    +0.340 C 
ATOM      2  O   UNL     1       0.079  -4.863   1.027  0.00  0.00    -0.245 OA
ENDROOT
BRANCH   1   3
ATOM      3  C   UNL     1       0.040  -2.773  -0.013  0.00  0.00    +0.059 A 
ATOM      4  C   UNL     1       0.042  -2.078   1.198  0.00  0.00    +0.015 A 
ATOM      5  C   UNL     1       0.023  -0.699   1.198  0.00  0.00    +0.006 A 
ATOM      6  C   UNL     1       0.002  -0.004   0.002  0.00  0.00    -0.030 A 
ATOM      7  C   UNL     1      -0.006  -0.686  -1.202  0.00  0.00    +0.006 A 
ATOM      8  C   UNL     1       0.019  -2.065  -1.217  0.00  0.00    +0.015 A 
BRANCH   6   9
ATOM      9  C   UNL     1      -0.018   1.503   0.010  0.00  0.00    +0.152 C 
BRANCH   9  10
ATOM     10  N   UNL     1       1.356   2.010  -0.000  0.00  0.00    -0.230 N 
ATOM     11  C   UNL     1       2.079   2.273   1.104  0.00  0.00    +0.254 C 
ATOM     12  O   UNL     1       1.701   2.129   2.249  0.00  0.00    -0.270 OA
ATOM     13  C   UNL     1       3.410   2.763   0.689  0.00  0.00    +0.049 A 
ATOM     14  C   UNL     1       4.544   3.177   1.370  0.00  0.00    +0.014 A 
ATOM     15  C   UNL     1       5.658   3.594   0.658  0.00  0.00    +0.001 A 
ATOM     16  C   UNL     1       5.645   3.601  -0.724  0.00  0.00    +0.001 A 
ATOM     17  C   UNL     1       4.518   3.190  -1.418  0.00  0.00    +0.014 A 
ATOM     18  C   UNL     1       3.397   2.770  -0.720  0.00  0.00    +0.049 A 
ATOM     19  C   UNL     1       2.060   2.279  -1.115  0.00  0.00    +0.254 C 
ATOM     20  O   UNL     1       1.663   2.142  -2.254  0.00  0.00    -0.270 OA
ENDBRANCH   9  10
ENDBRANCH   6   9
ENDBRANCH   1   3
BRANCH   1  21
ATOM     21  O   UNL     1       0.058  -4.918  -1.192  0.00  0.00    -0.444 OA
BRANCH  21  22
ATOM     22  C   UNL     1       0.079  -6.368  -1.124  0.00  0.00    +0.292 C 
BRANCH  22  28
ATOM     23  C   UNL     1       2.385 -10.607  -4.903  0.00  0.00    +0.129 C 
ATOM     24  N   UNL     1       1.698 -10.072  -3.725  0.00  0.00    -0.302 N 
ATOM     25  C   UNL     1       1.558  -8.741  -3.572  0.00  0.00    +0.306 C 
ATOM     26  O   UNL     1       2.001  -7.983  -4.413  0.00  0.00    -0.252 OA
ATOM     27  N   UNL     1       0.926  -8.249  -2.488  0.00  0.00    -0.237 N 
ATOM     28  C   UNL     1       0.785  -6.917  -2.336  0.00  0.00    +0.266 C 
ATOM     29  O   UNL     1       1.228  -6.162  -3.174  0.00  0.00    -0.271 OA
ATOM     30  H   UNL     1       1.296 -10.758  -2.964  0.00  0.00    +0.150 HD
ATOM     31  H   UNL     1       0.524  -8.935  -1.728  0.00  0.00    +0.159 HD
ENDBRANCH  22  28
BRANCH  22  32
ATOM     32  C   UNL     1      -1.334  -6.889  -1.086  0.00  0.00    +0.002 A 
ATOM     33  C   UNL     1      -2.309  -6.302  -1.871  0.00  0.00    +0.008 A 
ATOM     34  C   UNL     1      -3.604  -6.783  -1.840  0.00  0.00    +0.000 A 
ATOM     35  C   UNL     1      -3.928  -7.846  -1.017  0.00  0.00    +0.000 A 
ATOM     36  C   UNL     1      -2.954  -8.430  -0.229  0.00  0.00    +0.000 A 
ATOM     37  C   UNL     1      -1.658  -7.952  -0.263  0.00  0.00    +0.008 A 
ENDBRANCH  22  32
ENDBRANCH  21  22
ENDBRANCH   1  21
TORSDOF 7
