REMARK  Name = ZINC40426210
REMARK  7 active torsions:
REMARK  status: ('A' for Active; 'I' for Inactive)
REMARK    1  A    between atoms: C_3  and  C_29
REMARK    2  A    between atoms: C_6  and  C_7
REMARK    3  A    between atoms: C_10  and  C_14
REMARK    4  A    between atoms: C_14  and  C_15
REMARK    5  A    between atoms: C_15  and  C_16
REMARK    6  A    between atoms: N_18  and  C_19
REMARK    7  A    between atoms: C_19  and  C_20
REMARK                            x       y       z     vdW  Elec       q    Type
REMARK                         _______ _______ _______ _____ _____    ______ ____
ROOT
ATOM      1  C   UNL     1      -1.270  -0.766   0.011  0.00  0.00    +0.185 A 
ATOM      2  N   UNL     1      -2.426  -0.113   0.020  0.00  0.00    -0.129 NA
ATOM      3  N   UNL     1      -3.551  -0.739   0.027  0.00  0.00    -0.147 NA
ATOM      4  C   UNL     1      -3.584  -2.059   0.025  0.00  0.00    +0.130 A 
ATOM      5  C   UNL     1      -2.383  -2.771   0.015  0.00  0.00    +0.295 A 
ATOM      6  O   UNL     1      -2.383  -4.126   0.013  0.00  0.00    -0.264 OA
ATOM      7  N   UNL     1      -1.241  -2.094   0.003  0.00  0.00    -0.186 NA
ENDROOT
BRANCH   1  13
ATOM      8  C   UNL     1      -0.017   1.390   0.010  0.00  0.00    +0.012 A 
ATOM      9  C   UNL     1       1.170   2.093   0.002  0.00  0.00    +0.013 A 
ATOM     10  C   UNL     1       2.377   1.418  -0.013  0.00  0.00    +0.055 A 
ATOM     11  C   UNL     1       2.402   0.035  -0.021  0.00  0.00    +0.013 A 
ATOM     12  C   UNL     1       1.221  -0.679  -0.013  0.00  0.00    +0.012 A 
ATOM     13  C   UNL     1       0.002  -0.004   0.002  0.00  0.00    +0.021 A 
BRANCH  10  14
ATOM     14  C   UNL     1       3.671   2.192  -0.022  0.00  0.00    +0.417 C 
ATOM     15  F   UNL     1       4.083   2.425   1.294  0.00  0.00    -0.166 F 
ATOM     16  F   UNL     1       4.651   1.455  -0.695  0.00  0.00    -0.166 F 
ATOM     17  F   UNL     1       3.478   3.415  -0.673  0.00  0.00    -0.166 F 
ENDBRANCH  10  14
ENDBRANCH   1  13
BRANCH   4  18
ATOM     18  C   UNL     1      -4.903  -2.788   0.034  0.00  0.00    +0.072 C 
BRANCH  18  19
ATOM     19  C   UNL     1      -5.360  -3.033  -1.405  0.00  0.00    +0.102 C 
BRANCH  19  20
ATOM     20  C   UNL     1      -6.679  -3.762  -1.396  0.00  0.00    +0.214 C 
ATOM     21  O   UNL     1      -7.201  -4.057  -0.342  0.00  0.00    -0.276 OA
ATOM     22  N   UNL     1      -7.277  -4.086  -2.559  0.00  0.00    -0.311 N 
ATOM     23  H   UNL     1      -6.859  -3.850  -3.402  0.00  0.00    +0.149 HD
BRANCH  22  24
ATOM     24  C   UNL     1      -8.559  -4.795  -2.551  0.00  0.00    +0.139 C 
BRANCH  24  25
ATOM     25  C   UNL     1      -9.010  -5.036  -3.969  0.00  0.00    -0.027 A 
ATOM     26  C   UNL     1      -9.791  -4.095  -4.613  0.00  0.00    +0.009 A 
ATOM     27  C   UNL     1     -10.206  -4.312  -5.914  0.00  0.00    +0.050 A 
ATOM     28  C   UNL     1      -9.840  -5.473  -6.575  0.00  0.00    +0.166 A 
ATOM     29  C   UNL     1      -9.053  -6.421  -5.925  0.00  0.00    +0.167 A 
ATOM     30  C   UNL     1      -8.636  -6.195  -4.623  0.00  0.00    +0.054 A 
ATOM     31  O   UNL     1      -8.832  -7.463  -6.779  0.00  0.00    -0.453 OA
ATOM     32  C   UNL     1      -9.828  -7.333  -7.811  0.00  0.00    +0.466 C 
ATOM     33  O   UNL     1     -10.112  -5.921  -7.835  0.00  0.00    -0.453 OA
ENDBRANCH  24  25
ENDBRANCH  22  24
ENDBRANCH  19  20
ENDBRANCH  18  19
ENDBRANCH   4  18
TORSDOF 7
