REMARK  Name = ZINC59099073
REMARK  9 active torsions:
REMARK  status: ('A' for Active; 'I' for Inactive)
REMARK    1  A    between atoms: C_1  and  O_2
REMARK    2  A    between atoms: O_2  and  C_3
REMARK    3  A    between atoms: C_5  and  C_14
REMARK    4  A    between atoms: C_8  and  O_9
REMARK    5  A    between atoms: O_9  and  C_10
REMARK    6  A    between atoms: C_10  and  C_11
REMARK    7  A    between atoms: N_15  and  N_16
REMARK    8  A    between atoms: C_20  and  C_23
REMARK    9  A    between atoms: C_26  and  N_29
REMARK                            x       y       z     vdW  Elec       q    Type
REMARK                         _______ _______ _______ _____ _____    ______ ____
ROOT
ATOM      1  N   UNL     1       3.485   0.407  -6.140  0.00  0.00    -0.124 NA
ATOM      2  C   UNL     1       4.077  -0.193  -7.177  0.00  0.00    +0.192 A 
ATOM      3  N   UNL     1       4.210  -1.526  -7.409  0.00  0.00    -0.332 N 
ATOM      4  H   UNL     1       3.858  -2.185  -6.790  0.00  0.00    +0.168 HD
ATOM      5  C   UNL     1       4.850  -1.888  -8.532  0.00  0.00    +0.055 A 
ATOM      6  C   UNL     1       5.306  -0.847  -9.335  0.00  0.00    +0.075 A 
ATOM      7  S   UNL     1       4.822   0.525  -8.498  0.00  0.00    -0.056 S 
ENDROOT
BRANCH   5   8
ATOM      8  C   UNL     1       5.057  -3.303  -8.893  0.00  0.00    -0.001 A 
ATOM      9  C   UNL     1       4.577  -4.318  -8.059  0.00  0.00    +0.012 A 
ATOM     10  C   UNL     1       4.774  -5.639  -8.403  0.00  0.00    +0.033 A 
ATOM     11  C   UNL     1       5.446  -5.961  -9.570  0.00  0.00    +0.126 A 
ATOM     12  C   UNL     1       5.924  -4.961 -10.400  0.00  0.00    +0.033 A 
ATOM     13  C   UNL     1       5.730  -3.636 -10.073  0.00  0.00    +0.012 A 
BRANCH  11  14
ATOM     14  N   UNL     1       5.654  -7.381  -9.932  0.00  0.00    +0.056 N 
ATOM     15  O   UNL     1       5.201  -8.334  -9.144  0.00  0.00    -0.126 OA
ATOM     16  O   UNL     1       6.293  -7.691 -11.041  0.00  0.00    -0.126 OA
ENDBRANCH  11  14
ENDBRANCH   5   8
BRANCH   1  18
ATOM     17  C   UNL     1       2.367   0.296  -4.168  0.00  0.00    +0.143 C 
ATOM     18  N   UNL     1       2.956  -0.302  -5.201  0.00  0.00    -0.155 NA
BRANCH  17  21
ATOM     19  C   UNL     1       0.606  -0.607  -1.056  0.00  0.00    +0.162 A 
ATOM     20  C   UNL     1       1.164   0.151  -2.046  0.00  0.00    +0.059 A 
ATOM     21  C   UNL     1       1.789  -0.479  -3.142  0.00  0.00    -0.002 A 
ATOM     22  C   UNL     1       1.834  -1.887  -3.206  0.00  0.00    +0.013 A 
ATOM     23  C   UNL     1       1.273  -2.631  -2.211  0.00  0.00    +0.050 A 
ATOM     24  C   UNL     1       0.660  -2.005  -1.127  0.00  0.00    +0.163 A 
BRANCH  19  26
ATOM     25  C   UNL     1      -0.017   1.425   0.010  0.00  0.00    +0.277 C 
ATOM     26  O   UNL     1       0.002  -0.004   0.002  0.00  0.00    -0.491 OA
ENDBRANCH  19  26
BRANCH  24  27
ATOM     27  O   UNL     1       0.111  -2.752  -0.139  0.00  0.00    -0.477 OA
BRANCH  27  28
ATOM     28  C   UNL     1       0.201  -4.172  -0.273  0.00  0.00    +0.354 C 
BRANCH  28  29
ATOM     29  C   UNL     1      -0.460  -4.831   0.910  0.00  0.00    +0.393 C 
ATOM     30  O   UNL     1      -0.963  -4.148   1.786  0.00  0.00    -0.243 OA
ATOM     31  O   UNL     1      -0.493  -6.047   0.991  0.00  0.00    -0.243 OA
ENDBRANCH  28  29
ENDBRANCH  27  28
ENDBRANCH  24  27
ENDBRANCH  17  21
ENDBRANCH   1  18
TORSDOF 8
