REMARK  Name = ZINC14974540
REMARK  12 active torsions:
REMARK  status: ('A' for Active; 'I' for Inactive)
REMARK    1  A    between atoms: C_1  and  C_2
REMARK    2  A    between atoms: C_2  and  O_3
REMARK    3  A    between atoms: O_3  and  P_4
REMARK    4  A    between atoms: P_4  and  C_6
REMARK    5  A    between atoms: P_4  and  O_29
REMARK    6  A    between atoms: C_6  and  C_7
REMARK    7  A    between atoms: C_7  and  N_8
REMARK    8  A    between atoms: C_11  and  N_15
REMARK    9  A    between atoms: C_17  and  S_18
REMARK   10  A    between atoms: S_18  and  C_19
REMARK   11  A    between atoms: O_29  and  C_30
REMARK   12  A    between atoms: C_30  and  C_31
REMARK                            x       y       z     vdW  Elec       q    Type
REMARK                         _______ _______ _______ _____ _____    ______ ____
ROOT
ATOM      1  N   UNL     1       1.435   3.344   0.005  0.00  0.00    -0.303 N 
ATOM      2  C   UNL     1       1.118   2.005   0.002  0.00  0.00    +0.166 A 
ATOM      3  C   UNL     1       2.341   1.314  -0.013  0.00  0.00    +0.148 A 
ATOM      4  C   UNL     1       2.308  -0.090  -0.020  0.00  0.00    +0.147 A 
ATOM      5  N   UNL     1       1.126  -0.697  -0.012  0.00  0.00    -0.219 NA
ATOM      6  C   UNL     1       0.002  -0.004   0.002  0.00  0.00    +0.225 A 
ATOM      7  N   UNL     1      -0.016   1.313   0.009  0.00  0.00    -0.216 NA
ATOM      8  N   UNL     1       3.329   2.243  -0.018  0.00  0.00    -0.216 NA
ATOM      9  C   UNL     1       2.800   3.441  -0.007  0.00  0.00    +0.178 A 
ENDROOT
BRANCH   4  10
ATOM     10  N   UNL     1       3.482  -0.826  -0.034  0.00  0.00    -0.341 N 
ATOM     11  H   UNL     1       3.522  -1.406   0.779  0.00  0.00    +0.144 HD
ATOM     12  H   UNL     1       4.339  -0.371  -0.040  0.00  0.00    +0.144 HD
ENDBRANCH   4  10
BRANCH   1  13
ATOM     13  C   UNL     1       0.486   4.460   0.019  0.00  0.00    +0.138 C 
BRANCH  13  14
ATOM     14  C   UNL     1       0.142   4.855  -1.419  0.00  0.00    +0.149 C 
BRANCH  14  15
ATOM     15  P   UNL     1      -1.038   6.244  -1.401  0.00  0.00    +0.335 P 
ATOM     16  O   UNL     1      -2.221   5.876  -0.592  0.00  0.00    -0.258 OA
BRANCH  15  17
ATOM     17  O   UNL     1      -0.332   7.541  -0.760  0.00  0.00    -0.308 OA
BRANCH  17  19
ATOM     18  C   UNL     1      -0.066   9.784   0.099  0.00  0.00    +0.034 C 
ATOM     19  C   UNL     1      -1.029   8.764  -0.511  0.00  0.00    +0.167 C 
ENDBRANCH  17  19
ENDBRANCH  15  17
BRANCH  15  20
ATOM     20  O   UNL     1      -1.501   6.574  -2.908  0.00  0.00    -0.308 OA
BRANCH  20  21
ATOM     21  C   UNL     1      -2.502   7.545  -3.219  0.00  0.00    +0.167 C 
ATOM     22  C   UNL     1      -2.697   7.607  -4.736  0.00  0.00    +0.034 C 
ENDBRANCH  20  21
ENDBRANCH  15  20
ENDBRANCH  14  15
ENDBRANCH  13  14
ENDBRANCH   1  13
BRANCH   9  23
ATOM     23  S   UNL     1       3.708   4.950  -0.008  0.00  0.00    -0.025 S 
BRANCH  23  24
ATOM     24  C   UNL     1       5.353   4.318  -0.027  0.00  0.00    +0.143 A 
ATOM     25  N   UNL     1       5.754   3.066  -0.032  0.00  0.00    -0.231 NA
ATOM     26  C   UNL     1       7.059   2.724  -0.052  0.00  0.00    +0.099 A 
ATOM     27  C   UNL     1       7.641   1.437  -0.063  0.00  0.00    +0.139 A 
ATOM     28  N   UNL     1       8.942   1.281  -0.075  0.00  0.00    -0.260 NA
ATOM     29  C   UNL     1       9.798   2.289  -0.079  0.00  0.00    +0.132 A 
ATOM     30  C   UNL     1       9.333   3.592  -0.069  0.00  0.00    +0.075 A 
ATOM     31  C   UNL     1       7.975   3.805  -0.055  0.00  0.00    +0.061 A 
ATOM     32  S   UNL     1       6.899   5.215  -0.037  0.00  0.00    -0.059 S 
ATOM     33 CL   UNL     1      10.440   4.930  -0.073  0.00  0.00    -0.081 Cl
ENDBRANCH  23  24
ENDBRANCH   9  23
TORSDOF 10
