REMARK  Name = ZINC15898829
REMARK  8 active torsions:
REMARK  status: ('A' for Active; 'I' for Inactive)
REMARK    1  A    between atoms: C_4  and  S_8
REMARK    2  A    between atoms: S_8  and  N_11
REMARK    3  A    between atoms: C_14  and  C_17
REMARK    4  A    between atoms: N_19  and  N_20
REMARK    5  A    between atoms: N_20  and  C_21
REMARK    6  A    between atoms: C_21  and  N_23
REMARK    7  A    between atoms: N_23  and  C_24
REMARK    8  A    between atoms: C_24  and  C_25
REMARK                            x       y       z     vdW  Elec       q    Type
REMARK                         _______ _______ _______ _____ _____    ______ ____
ROOT
ATOM      1  N   UNL     1      -3.156   1.247   1.606  0.00  0.00    -0.176 NA
ATOM      2  C   UNL     1      -2.701   0.041   2.310  0.00  0.00    +0.110 C 
ATOM      3  C   UNL     1      -1.992   0.469   3.604  0.00  0.00    +0.030 C 
ATOM      4  C   UNL     1      -2.929   1.359   4.423  0.00  0.00    +0.079 C 
ATOM      5  C   UNL     1      -3.270   2.617   3.622  0.00  0.00    +0.030 C 
ATOM      6  C   UNL     1      -3.989   2.216   2.330  0.00  0.00    +0.110 C 
ENDROOT
BRANCH   4   7
ATOM      7  C   UNL     1      -2.252   1.751   5.710  0.00  0.00    +0.232 C 
ATOM      8  O   UNL     1      -2.060   2.922   5.962  0.00  0.00    -0.274 OA
ATOM      9  N   UNL     1      -1.859   0.801   6.582  0.00  0.00    -0.235 N 
ATOM     10  H   UNL     1      -2.012  -0.135   6.380  0.00  0.00    +0.173 HD
BRANCH   9  11
ATOM     11  N   UNL     1      -1.228   1.166   7.779  0.00  0.00    -0.246 N 
ATOM     12  H   UNL     1      -1.075   2.102   7.980  0.00  0.00    +0.172 HD
BRANCH  11  13
ATOM     13  C   UNL     1      -0.835   0.216   8.650  0.00  0.00    +0.147 C 
ATOM     14  S   UNL     1      -0.066   0.662  10.113  0.00  0.00    -0.017 S 
BRANCH  13  15
ATOM     15  N   UNL     1      -1.048  -1.085   8.370  0.00  0.00    -0.323 N 
ATOM     16  H   UNL     1      -1.485  -1.338   7.542  0.00  0.00    +0.148 HD
BRANCH  15  17
ATOM     17  C   UNL     1      -0.621  -2.118   9.318  0.00  0.00    +0.134 C 
BRANCH  17  18
ATOM     18  C   UNL     1      -0.979  -3.498   8.763  0.00  0.00    +0.135 C 
ATOM     19  C   UNL     1      -0.533  -4.592   9.752  0.00  0.00    +0.035 C 
ATOM     20  C   UNL     1      -1.839  -5.350  10.093  0.00  0.00    +0.031 C 
ATOM     21  C   UNL     1      -2.749  -4.985   8.893  0.00  0.00    +0.160 C 
ATOM     22  O   UNL     1      -2.404  -3.611   8.614  0.00  0.00    -0.375 OA
ENDBRANCH  17  18
ENDBRANCH  15  17
ENDBRANCH  13  15
ENDBRANCH  11  13
ENDBRANCH   9  11
ENDBRANCH   4   7
BRANCH   1  23
ATOM     23  S   UNL     1      -2.743   1.506   0.023  0.00  0.00    +0.064 S 
ATOM     24  O   UNL     1      -3.731   2.372  -0.518  0.00  0.00    -0.153 OA
ATOM     25  O   UNL     1      -2.458   0.231  -0.536  0.00  0.00    -0.153 OA
BRANCH  23  29
ATOM     26  C   UNL     1       1.149   3.822   0.011  0.00  0.00    +0.003 A 
ATOM     27  C   UNL     1      -0.057   4.497   0.025  0.00  0.00    +0.022 A 
ATOM     28  C   UNL     1      -1.247   3.790   0.033  0.00  0.00    +0.069 A 
ATOM     29  C   UNL     1      -1.229   2.407   0.021  0.00  0.00    +0.142 A 
ATOM     30  C   UNL     1      -0.021   1.732   0.012  0.00  0.00    +0.069 A 
ATOM     31  C   UNL     1       1.167   2.440   0.004  0.00  0.00    +0.022 A 
ATOM     32 CL   UNL     1       0.002  -0.004   0.002  0.00  0.00    -0.081 Cl
ATOM     33 CL   UNL     1      -2.761   4.639   0.051  0.00  0.00    -0.081 Cl
ENDBRANCH  23  29
ENDBRANCH   1  23
TORSDOF 8
