REMARK  Name = ZINC02756978
REMARK  8 active torsions:
REMARK  status: ('A' for Active; 'I' for Inactive)
REMARK    1  A    between atoms: C_1  and  O_2
REMARK    2  A    between atoms: O_2  and  C_3
REMARK    3  A    between atoms: C_7  and  C_9
REMARK    4  A    between atoms: N_10  and  N_11
REMARK    5  A    between atoms: C_12  and  C_14
REMARK    6  A    between atoms: C_14  and  O_15
REMARK    7  A    between atoms: O_15  and  C_16
REMARK    8  A    between atoms: C_19  and  N_22
REMARK                            x       y       z     vdW  Elec       q    Type
REMARK                         _______ _______ _______ _____ _____    ______ ____
ROOT
ATOM      1  N   UNL     1      -2.947   7.156   5.090  0.00  0.00    -0.204 N 
ATOM      2  C   UNL     1      -3.049   8.491   5.245  0.00  0.00    +0.270 C 
ATOM      3  O   UNL     1      -2.583   9.236   4.408  0.00  0.00    -0.270 OA
ATOM      4  H   UNL     1      -3.320   6.561   5.759  0.00  0.00    +0.177 HD
ENDROOT
BRANCH   1   6
ATOM      5  C   UNL     1      -2.207   5.343   3.813  0.00  0.00    +0.139 C 
ATOM      6  N   UNL     1      -2.305   6.629   3.962  0.00  0.00    -0.188 NA
BRANCH   5  11
ATOM      7  C   UNL     1      -0.787   2.892   1.346  0.00  0.00    +0.121 A 
ATOM      8  C   UNL     1      -0.252   3.750   0.394  0.00  0.00    +0.047 A 
ATOM      9  C   UNL     1      -0.361   5.119   0.550  0.00  0.00    +0.019 A 
ATOM     10  C   UNL     1      -0.994   5.644   1.660  0.00  0.00    +0.027 A 
ATOM     11  C   UNL     1      -1.530   4.788   2.626  0.00  0.00    +0.012 A 
ATOM     12  C   UNL     1      -1.423   3.405   2.463  0.00  0.00    +0.056 A 
ATOM     13 BR   UNL     1      -1.133   7.518   1.873  0.00  0.00    -0.050 Br
BRANCH   7  15
ATOM     14  C   UNL     1      -0.013   1.086   0.008  0.00  0.00    +0.277 C 
ATOM     15  O   UNL     1      -0.682   1.547   1.184  0.00  0.00    -0.495 OA
ENDBRANCH   7  15
ENDBRANCH   5  11
ENDBRANCH   1   6
BRANCH   2  16
ATOM     16  C   UNL     1      -3.740   9.059   6.457  0.00  0.00    +0.326 C 
BRANCH  16  17
ATOM     17  O   UNL     1      -3.719  10.486   6.393  0.00  0.00    -0.483 OA
BRANCH  17  18
ATOM     18  C   UNL     1      -4.306  11.159   7.419  0.00  0.00    +0.121 A 
ATOM     19  C   UNL     1      -4.895  10.459   8.462  0.00  0.00    +0.048 A 
ATOM     20  C   UNL     1      -5.486  11.145   9.505  0.00  0.00    +0.036 A 
ATOM     21  C   UNL     1      -5.500  12.527   9.505  0.00  0.00    +0.126 A 
ATOM     22  C   UNL     1      -4.919  13.227   8.464  0.00  0.00    +0.036 A 
ATOM     23  C   UNL     1      -4.321  12.546   7.421  0.00  0.00    +0.048 A 
BRANCH  21  24
ATOM     24  N   UNL     1      -6.139  13.259  10.621  0.00  0.00    +0.056 N 
ATOM     25  O   UNL     1      -6.152  14.477  10.623  0.00  0.00    -0.126 OA
ATOM     26  O   UNL     1      -6.652  12.644  11.539  0.00  0.00    -0.126 OA
ENDBRANCH  21  24
ENDBRANCH  17  18
ENDBRANCH  16  17
ENDBRANCH   2  16
TORSDOF 7
