REMARK  Name = ZINC10795546
REMARK  8 active torsions:
REMARK  status: ('A' for Active; 'I' for Inactive)
REMARK    1  A    between atoms: C_1  and  C_2
REMARK    2  A    between atoms: C_2  and  C_4
REMARK    3  A    between atoms: C_2  and  O_16
REMARK    4  A    between atoms: N_6  and  C_7
REMARK    5  A    between atoms: O_16  and  C_17
REMARK    6  A    between atoms: C_17  and  C_19
REMARK    7  A    between atoms: C_22  and  S_25
REMARK    8  A    between atoms: S_25  and  N_28
REMARK                            x       y       z     vdW  Elec       q    Type
REMARK                         _______ _______ _______ _____ _____    ______ ____
ROOT
ATOM      1  C   UNL     1       4.582  -0.671  -1.068  0.00  0.00    +0.062 C 
ATOM      2  C   UNL     1       3.742  -0.969   0.176  0.00  0.00    +0.259 C 
ENDROOT
BRANCH   2   3
ATOM      3  C   UNL     1       2.426  -0.242   0.079  0.00  0.00    +0.258 C 
ATOM      4  O   UNL     1       1.386  -0.866   0.086  0.00  0.00    -0.271 OA
ATOM      5  N   UNL     1       2.404   1.103  -0.015  0.00  0.00    -0.280 N 
ATOM      6  H   UNL     1       3.234   1.597  -0.101  0.00  0.00    +0.155 HD
BRANCH   5   7
ATOM      7  C   UNL     1       1.181   1.787   0.011  0.00  0.00    +0.072 A 
ATOM      8  C   UNL     1       0.077   1.213   0.627  0.00  0.00    +0.029 A 
ATOM      9  C   UNL     1      -1.130   1.885   0.647  0.00  0.00    +0.043 A 
ATOM     10  C   UNL     1      -1.238   3.137   0.065  0.00  0.00    +0.161 A 
ATOM     11  C   UNL     1      -0.138   3.714  -0.551  0.00  0.00    +0.195 A 
ATOM     12  C   UNL     1       1.072   3.041  -0.579  0.00  0.00    +0.182 A 
ATOM     13  F   UNL     1       2.145   3.602  -1.178  0.00  0.00    -0.200 F 
ATOM     14  F   UNL     1      -0.246   4.932  -1.124  0.00  0.00    -0.199 F 
ATOM     15  F   UNL     1      -2.418   3.794   0.091  0.00  0.00    -0.202 F 
ENDBRANCH   5   7
ENDBRANCH   2   3
BRANCH   2  16
ATOM     16  O   UNL     1       3.501  -2.397   0.267  0.00  0.00    -0.449 OA
BRANCH  16  17
ATOM     17  C   UNL     1       4.402  -3.128   0.952  0.00  0.00    +0.340 C 
ATOM     18  O   UNL     1       5.364  -2.586   1.459  0.00  0.00    -0.245 OA
BRANCH  17  19
ATOM     19  C   UNL     1       4.221  -4.588   1.086  0.00  0.00    +0.059 A 
ATOM     20  C   UNL     1       3.114  -5.213   0.509  0.00  0.00    +0.017 A 
ATOM     21  C   UNL     1       2.954  -6.578   0.633  0.00  0.00    +0.029 A 
ATOM     22  C   UNL     1       3.882  -7.325   1.337  0.00  0.00    +0.105 A 
ATOM     23  C   UNL     1       4.979  -6.711   1.916  0.00  0.00    +0.029 A 
ATOM     24  C   UNL     1       5.154  -5.348   1.795  0.00  0.00    +0.017 A 
BRANCH  22  25
ATOM     25  S   UNL     1       3.667  -9.066   1.497  0.00  0.00    +0.056 S 
ATOM     26  O   UNL     1       2.855  -9.477   0.405  0.00  0.00    -0.153 OA
ATOM     27  O   UNL     1       4.956  -9.615   1.736  0.00  0.00    -0.153 OA
BRANCH  25  28
ATOM     28  N   UNL     1       2.779  -9.326   2.870  0.00  0.00    -0.204 NA
ATOM     29  H   UNL     1       2.193 -10.097   2.930  0.00  0.00    +0.144 HD
ATOM     30  H   UNL     1       2.846  -8.708   3.615  0.00  0.00    +0.144 HD
ENDBRANCH  25  28
ENDBRANCH  22  25
ENDBRANCH  17  19
ENDBRANCH  16  17
ENDBRANCH   2  16
TORSDOF 7
