REMARK  Name = ZINC24748276
REMARK  10 active torsions:
REMARK  status: ('A' for Active; 'I' for Inactive)
REMARK    1  A    between atoms: C_1  and  C_2
REMARK    2  A    between atoms: C_8  and  C_16
REMARK    3  A    between atoms: C_16  and  O_18
REMARK    4  A    between atoms: O_18  and  C_19
REMARK    5  A    between atoms: C_19  and  C_20
REMARK    6  A    between atoms: N_22  and  C_23
REMARK    7  A    between atoms: N_22  and  C_24
REMARK    8  A    between atoms: C_25  and  N_40
REMARK    9  A    between atoms: N_26  and  C_33
REMARK   10  A    between atoms: C_33  and  C_34
REMARK                            x       y       z     vdW  Elec       q    Type
REMARK                         _______ _______ _______ _____ _____    ______ ____
ROOT
ATOM      1  C   UNL     1      -6.016   2.452  -2.324  0.00  0.00    +0.257 C 
ATOM      2  O   UNL     1      -6.151   2.930  -1.217  0.00  0.00    -0.272 OA
ATOM      3  N   UNL     1      -7.055   1.830  -2.920  0.00  0.00    -0.265 N 
ATOM      4  C   UNL     1      -6.924   1.341  -4.295  0.00  0.00    +0.138 C 
ENDROOT
BRANCH   3   5
ATOM      5  C   UNL     1      -8.266   1.650  -2.220  0.00  0.00    +0.139 A 
ATOM      6  C   UNL     1      -9.041   2.736  -1.867  0.00  0.00    +0.128 A 
ATOM      7  N   UNL     1     -10.217   2.529  -1.184  0.00  0.00    -0.276 N 
ATOM      8  C   UNL     1     -10.607   1.282  -0.864  0.00  0.00    +0.331 A 
ATOM      9  O   UNL     1     -11.650   1.120  -0.259  0.00  0.00    -0.246 OA
ATOM     10  N   UNL     1      -9.865   0.212  -1.199  0.00  0.00    -0.273 N 
ATOM     11  H   UNL     1     -10.201  -0.799  -0.922  0.00  0.00    +0.173 HD
ATOM     12  C   UNL     1      -8.708   0.359  -1.873  0.00  0.00    +0.277 A 
ATOM     13  O   UNL     1      -8.045  -0.618  -2.176  0.00  0.00    -0.266 OA
BRANCH   6  14
ATOM     14  N   UNL     1      -8.642   4.010  -2.195  0.00  0.00    -0.343 N 
ATOM     15  H   UNL     1      -9.265   4.871  -1.911  0.00  0.00    +0.144 HD
ATOM     16  H   UNL     1      -7.701   4.168  -2.740  0.00  0.00    +0.144 HD
ENDBRANCH   6  14
BRANCH   7  17
ATOM     17  C   UNL     1     -11.050   3.673  -0.805  0.00  0.00    +0.163 C 
BRANCH  17  18
ATOM     18  C   UNL     1     -12.034   3.966  -1.908  0.00  0.00    -0.028 A 
ATOM     19  C   UNL     1     -11.698   4.848  -2.918  0.00  0.00    +0.005 A 
ATOM     20  C   UNL     1     -12.599   5.113  -3.932  0.00  0.00    +0.000 A 
ATOM     21  C   UNL     1     -13.840   4.504  -3.931  0.00  0.00    +0.000 A 
ATOM     22  C   UNL     1     -14.178   3.626  -2.918  0.00  0.00    +0.000 A 
ATOM     23  C   UNL     1     -13.275   3.357  -1.906  0.00  0.00    +0.005 A 
ENDBRANCH  17  18
ENDBRANCH   7  17
ENDBRANCH   3   5
BRANCH   1  24
ATOM     24  C   UNL     1      -4.690   2.552  -3.033  0.00  0.00    +0.328 C 
BRANCH  24  25
ATOM     25  O   UNL     1      -3.744   3.261  -2.190  0.00  0.00    -0.452 OA
BRANCH  25  26
ATOM     26  C   UNL     1      -2.501   3.437  -2.681  0.00  0.00    +0.341 C 
ATOM     27  O   UNL     1      -2.217   3.010  -3.782  0.00  0.00    -0.245 OA
BRANCH  26  34
ATOM     28  C   UNL     1      -0.145  -0.105   0.322  0.00  0.00    +0.008 C 
ATOM     29  C   UNL     1      -0.166   1.425   0.361  0.00  0.00    -0.009 C 
ATOM     30  C   UNL     1       1.269   1.959   0.427  0.00  0.00    +0.010 C 
ATOM     31  C   UNL     1       1.214   3.458   0.715  0.00  0.00    +0.056 C 
ATOM     32  C   UNL     1       0.292   4.152  -0.257  0.00  0.00    +0.046 A 
ATOM     33  C   UNL     1      -0.652   3.456  -1.000  0.00  0.00    -0.011 A 
ATOM     34  C   UNL     1      -1.484   4.149  -1.879  0.00  0.00    +0.073 A 
ATOM     35  C   UNL     1      -1.331   5.553  -1.982  0.00  0.00    +0.015 A 
ATOM     36  C   UNL     1      -2.129   6.318  -2.841  0.00  0.00    +0.011 A 
ATOM     37  C   UNL     1      -1.945   7.667  -2.909  0.00  0.00    +0.001 A 
ATOM     38  C   UNL     1      -0.972   8.294  -2.134  0.00  0.00    +0.002 A 
ATOM     39  C   UNL     1      -0.179   7.581  -1.289  0.00  0.00    +0.028 A 
ATOM     40  C   UNL     1      -0.340   6.186  -1.192  0.00  0.00    +0.072 A 
ATOM     41  N   UNL     1       0.418   5.460  -0.373  0.00  0.00    -0.251 NA
ATOM     42  C   UNL     1      -0.821   1.963  -0.910  0.00  0.00    +0.041 C 
ENDBRANCH  26  34
ENDBRANCH  25  26
ENDBRANCH  24  25
ENDBRANCH   1  24
TORSDOF 8
