REMARK  Name = ZINC39843350
REMARK  8 active torsions:
REMARK  status: ('A' for Active; 'I' for Inactive)
REMARK    1  A    between atoms: C_1  and  O_2
REMARK    2  A    between atoms: O_2  and  C_3
REMARK    3  A    between atoms: C_6  and  C_9
REMARK    4  A    between atoms: N_10  and  N_11
REMARK    5  A    between atoms: C_16  and  C_19
REMARK    6  A    between atoms: C_19  and  C_20
REMARK    7  A    between atoms: N_22  and  C_23
REMARK    8  A    between atoms: C_26  and  N_29
REMARK                            x       y       z     vdW  Elec       q    Type
REMARK                         _______ _______ _______ _____ _____    ______ ____
ROOT
ATOM      1  N   UNL     1       3.110  -4.359  -5.454  0.00  0.00    -0.127 NA
ATOM      2  C   UNL     1       3.159  -5.673  -5.515  0.00  0.00    +0.183 C 
ATOM      3  N   UNL     1       2.655  -6.587  -4.614  0.00  0.00    -0.263 N 
ATOM      4  C   UNL     1       2.767  -7.893  -4.789  0.00  0.00    +0.233 C 
ATOM      5  O   UNL     1       2.321  -8.691  -3.993  0.00  0.00    -0.274 OA
ATOM      6  C   UNL     1       3.490  -8.331  -6.053  0.00  0.00    +0.149 C 
ATOM      7  S   UNL     1       3.885  -6.692  -6.791  0.00  0.00    -0.075 S 
ATOM      8  H   UNL     1       2.201  -6.260  -3.822  0.00  0.00    +0.157 HD
ENDROOT
BRANCH   1  10
ATOM      9  C   UNL     1       2.493  -2.478  -4.389  0.00  0.00    +0.143 C 
ATOM     10  N   UNL     1       2.541  -3.781  -4.450  0.00  0.00    -0.155 NA
BRANCH   9  14
ATOM     11  C   UNL     1       0.620  -0.577  -1.090  0.00  0.00    +0.120 A 
ATOM     12  C   UNL     1       1.182   0.189  -2.103  0.00  0.00    +0.046 A 
ATOM     13  C   UNL     1       1.791  -0.423  -3.177  0.00  0.00    +0.013 A 
ATOM     14  C   UNL     1       1.844  -1.819  -3.245  0.00  0.00    -0.005 A 
ATOM     15  C   UNL     1       1.277  -2.586  -2.222  0.00  0.00    +0.013 A 
ATOM     16  C   UNL     1       0.674  -1.964  -1.151  0.00  0.00    +0.046 A 
BRANCH  11  18
ATOM     17  C   UNL     1      -0.001   1.460  -0.035  0.00  0.00    +0.277 C 
ATOM     18  O   UNL     1       0.020   0.032  -0.034  0.00  0.00    -0.495 OA
ENDBRANCH  11  18
ENDBRANCH   9  14
ENDBRANCH   1  10
BRANCH   6  19
ATOM     19  C   UNL     1       4.760  -9.117  -5.721  0.00  0.00    +0.120 C 
BRANCH  19  20
ATOM     20  C   UNL     1       5.378  -9.636  -6.994  0.00  0.00    +0.219 C 
ATOM     21  O   UNL     1       4.854  -9.399  -8.062  0.00  0.00    -0.275 OA
ATOM     22  N   UNL     1       6.512 -10.362  -6.946  0.00  0.00    -0.285 N 
ATOM     23  H   UNL     1       6.968 -10.494  -6.100  0.00  0.00    +0.155 HD
BRANCH  22  24
ATOM     24  C   UNL     1       7.033 -10.925  -8.117  0.00  0.00    +0.034 A 
ATOM     25  C   UNL     1       7.660 -12.163  -8.074  0.00  0.00    +0.025 A 
ATOM     26  C   UNL     1       8.173 -12.715  -9.231  0.00  0.00    +0.034 A 
ATOM     27  C   UNL     1       8.062 -12.037 -10.431  0.00  0.00    +0.126 A 
ATOM     28  C   UNL     1       7.438 -10.804 -10.477  0.00  0.00    +0.034 A 
ATOM     29  C   UNL     1       6.918 -10.249  -9.324  0.00  0.00    +0.025 A 
BRANCH  27  30
ATOM     30  N   UNL     1       8.613 -12.633 -11.669  0.00  0.00    +0.056 N 
ATOM     31  O   UNL     1       9.159 -13.711 -11.631  0.00  0.00    -0.126 OA
ATOM     32  O   UNL     1       8.516 -12.041 -12.719  0.00  0.00    -0.126 OA
ENDBRANCH  27  30
ENDBRANCH  22  24
ENDBRANCH  19  20
ENDBRANCH   6  19
TORSDOF 7
