REMARK  Name = ZINC12941307
REMARK  8 active torsions:
REMARK  status: ('A' for Active; 'I' for Inactive)
REMARK    1  A    between atoms: C_1  and  C_2
REMARK    2  A    between atoms: C_3  and  N_9
REMARK    3  A    between atoms: C_10  and  C_12
REMARK    4  A    between atoms: C_12  and  C_14
REMARK    5  A    between atoms: C_12  and  N_55
REMARK    6  A    between atoms: C_17  and  C_20
REMARK    7  A    between atoms: N_22  and  C_23
REMARK    8  A    between atoms: C_28  and  O_29
REMARK                            x       y       z     vdW  Elec       q    Type
REMARK                         _______ _______ _______ _____ _____    ______ ____
ROOT
ATOM      1  C   UNL     1      -4.979   1.321   0.245  0.00  0.00    -0.077 C 
ATOM      2  C   UNL     1      -3.633   2.050   0.199  0.00  0.00    -0.006 C 
ATOM      3  C   UNL     1      -2.500   1.020   0.220  0.00  0.00    +0.072 C 
ATOM      4  C   UNL     1      -2.666   0.065  -0.965  0.00  0.00    -0.006 C 
ATOM      5  C   UNL     1      -4.039  -0.605  -0.885  0.00  0.00    -0.077 C 
ATOM      6  N   UNL     1      -5.086   0.437  -0.935  0.00  0.00    +0.387 N 
ATOM      7  H   UNL     1      -4.957   0.999  -1.785  0.00  0.00    -0.081 HD
ENDROOT
BRANCH   3   8
ATOM      8  C   UNL     1      -1.174   1.729   0.114  0.00  0.00    +0.220 C 
ATOM      9  O   UNL     1      -1.138   2.939   0.032  0.00  0.00    -0.275 OA
ATOM     10  N   UNL     1      -0.029   1.018   0.110  0.00  0.00    -0.282 N 
ATOM     11  H   UNL     1      -0.059   0.049   0.092  0.00  0.00    +0.155 HD
BRANCH  10  12
ATOM     12  C   UNL     1       1.206   1.680   0.127  0.00  0.00    +0.075 A 
ATOM     13  C   UNL     1       1.301   2.962   0.649  0.00  0.00    +0.027 A 
ATOM     14  C   UNL     1       2.521   3.613   0.664  0.00  0.00    +0.002 A 
ATOM     15  C   UNL     1       3.647   2.989   0.161  0.00  0.00    +0.004 A 
ATOM     16  C   UNL     1       3.560   1.712  -0.361  0.00  0.00    +0.047 A 
ATOM     17  C   UNL     1       2.343   1.051  -0.375  0.00  0.00    +0.138 A 
BRANCH  17  18
ATOM     18  O   UNL     1       2.257  -0.208  -0.883  0.00  0.00    -0.505 OA
ATOM     19  H   UNL     1       2.063  -0.238  -1.830  0.00  0.00    +0.292 HD
ENDBRANCH  17  18
ENDBRANCH  10  12
ENDBRANCH   3   8
BRANCH   6  20
ATOM     20  C   UNL     1      -6.423  -0.191  -0.974  0.00  0.00    +0.016 C 
ATOM     21  C   UNL     1      -6.627  -1.096   0.243  0.00  0.00    -0.004 C 
BRANCH  20  23
ATOM     22  N   UNL     1      -7.684  -1.667  -2.507  0.00  0.00    -0.287 N 
ATOM     23  C   UNL     1      -6.540  -1.009  -2.234  0.00  0.00    +0.203 C 
ATOM     24  O   UNL     1      -5.604  -1.076  -3.003  0.00  0.00    -0.277 OA
ATOM     25  H   UNL     1      -8.455  -1.560  -1.927  0.00  0.00    +0.155 HD
BRANCH  22  28
ATOM     26  C   UNL     1      -9.257  -4.031  -2.311  0.00  0.00    +0.047 C 
ATOM     27  C   UNL     1      -8.516  -3.669  -3.572  0.00  0.00    -0.011 A 
ATOM     28  C   UNL     1      -7.760  -2.505  -3.625  0.00  0.00    +0.038 A 
ATOM     29  C   UNL     1      -7.075  -2.177  -4.787  0.00  0.00    +0.023 A 
ATOM     30  C   UNL     1      -7.151  -3.006  -5.890  0.00  0.00    +0.003 A 
ATOM     31  C   UNL     1      -7.909  -4.161  -5.837  0.00  0.00    +0.020 A 
ATOM     32  C   UNL     1      -8.594  -4.491  -4.680  0.00  0.00    +0.046 A 
ATOM     33 CL   UNL     1      -9.545  -5.942  -4.619  0.00  0.00    -0.083 Cl
ENDBRANCH  22  28
ENDBRANCH  20  23
ENDBRANCH   6  20
TORSDOF 6
