REMARK  Name = ZINC39960883
REMARK  10 active torsions:
REMARK  status: ('A' for Active; 'I' for Inactive)
REMARK    1  A    between atoms: C_1  and  C_2
REMARK    2  A    between atoms: C_2  and  C_3
REMARK    3  A    between atoms: C_3  and  C_5
REMARK    4  A    between atoms: C_3  and  S_19
REMARK    5  A    between atoms: C_10  and  C_18
REMARK    6  A    between atoms: C_11  and  C_13
REMARK    7  A    between atoms: C_13  and  O_15
REMARK    8  A    between atoms: O_15  and  C_16
REMARK    9  A    between atoms: C_16  and  C_17
REMARK   10  A    between atoms: S_19  and  C_20
REMARK                            x       y       z     vdW  Elec       q    Type
REMARK                         _______ _______ _______ _____ _____    ______ ____
ROOT
ATOM      1  C   UNL     1       0.597  -0.512  -1.313  0.00  0.00    +0.140 C 
ENDROOT
BRANCH   1   2
ATOM      2  C   UNL     1       0.456  -2.009  -1.216  0.00  0.00    +0.232 C 
ATOM      3  O   UNL     1      -0.488  -2.564  -1.736  0.00  0.00    -0.274 OA
ATOM      4  N   UNL     1       1.379  -2.731  -0.550  0.00  0.00    -0.264 N 
ATOM      5  C   UNL     1       1.249  -4.106  -0.461  0.00  0.00    +0.165 A 
ATOM      6  N   UNL     1       2.047  -4.964   0.150  0.00  0.00    -0.229 NA
ATOM      7  C   UNL     1       1.796  -6.248   0.152  0.00  0.00    +0.062 A 
ATOM      8  C   UNL     1       0.651  -6.654  -0.521  0.00  0.00    +0.120 A 
ATOM      9  S   UNL     1       0.034  -5.081  -1.098  0.00  0.00    -0.045 S 
ATOM     10  C   UNL     1       2.702  -7.233   0.845  0.00  0.00    +0.067 C 
ATOM     11  H   UNL     1       2.134  -2.287  -0.134  0.00  0.00    +0.157 HD
BRANCH   8  12
ATOM     12  C   UNL     1       0.100  -7.996  -0.702  0.00  0.00    +0.348 C 
ATOM     13  O   UNL     1       0.671  -8.957  -0.222  0.00  0.00    -0.244 OA
BRANCH  12  14
ATOM     14  O   UNL     1      -1.041  -8.168  -1.401  0.00  0.00    -0.461 OA
BRANCH  14  15
ATOM     15  C   UNL     1      -1.522  -9.507  -1.538  0.00  0.00    +0.229 C 
ATOM     16  C   UNL     1      -2.815  -9.503  -2.355  0.00  0.00    +0.048 C 
ENDBRANCH  14  15
ENDBRANCH  12  14
ENDBRANCH   8  12
ENDBRANCH   1   2
BRANCH   1  18
ATOM     17  C   UNL     1       0.380   1.637  -0.057  0.00  0.00    +0.005 C 
ATOM     18  C   UNL     1       0.108   0.132  -0.014  0.00  0.00    +0.020 C 
ENDBRANCH   1  18
BRANCH   1  19
ATOM     19  S   UNL     1      -0.396   0.100  -2.702  0.00  0.00    -0.072 S 
BRANCH  19  20
ATOM     20  C   UNL     1       0.418  -0.545  -4.125  0.00  0.00    +0.208 C 
ATOM     21  N   UNL     1       1.547  -1.190  -3.952  0.00  0.00    -0.227 NA
ATOM     22  C   UNL     1       2.255  -1.653  -5.143  0.00  0.00    +0.252 C 
ATOM     23  C   UNL     1       1.193  -1.889  -6.208  0.00  0.00    +0.117 C 
ATOM     24  C   UNL     1       1.451  -3.127  -6.713  0.00  0.00    +0.025 A 
ATOM     25  C   UNL     1       0.884  -3.853  -7.790  0.00  0.00    +0.012 A 
ATOM     26  C   UNL     1       1.371  -5.100  -8.028  0.00  0.00    +0.001 A 
ATOM     27  C   UNL     1       2.387  -5.704  -7.282  0.00  0.00    +0.002 A 
ATOM     28  C   UNL     1       3.007  -5.100  -6.233  0.00  0.00    +0.026 A 
ATOM     29  C   UNL     1       2.550  -3.740  -5.904  0.00  0.00    +0.046 A 
ATOM     30  N   UNL     1       2.958  -2.918  -4.986  0.00  0.00    -0.358 N 
ATOM     31  N   UNL     1       0.186  -1.028  -6.386  0.00  0.00    -0.147 NA
ATOM     32  N   UNL     1      -0.161  -0.351  -5.335  0.00  0.00    -0.122 NA
ATOM     33  H   UNL     1       3.623  -3.114  -4.307  0.00  0.00    +0.162 HD
ENDBRANCH  19  20
ENDBRANCH   1  19
TORSDOF 7
