REMARK  Name = ZINC08231426
REMARK  7 active torsions:
REMARK  status: ('A' for Active; 'I' for Inactive)
REMARK    1  A    between atoms: C_1  and  C_2
REMARK    2  A    between atoms: C_2  and  C_4
REMARK    3  A    between atoms: C_2  and  O_23
REMARK    4  A    between atoms: N_6  and  C_7
REMARK    5  A    between atoms: O_23  and  C_24
REMARK    6  A    between atoms: C_24  and  C_26
REMARK    7  A    between atoms: C_27  and  C_28
REMARK                            x       y       z     vdW  Elec       q    Type
REMARK                         _______ _______ _______ _____ _____    ______ ____
ROOT
ATOM      1  C   UNL     1       3.616  -2.037   0.060  0.00  0.00    +0.258 C 
ATOM      2  O   UNL     1       2.568  -2.646   0.066  0.00  0.00    -0.271 OA
ATOM      3  N   UNL     1       3.613  -0.692  -0.035  0.00  0.00    -0.282 N 
ATOM      4  H   UNL     1       4.451  -0.209  -0.107  0.00  0.00    +0.155 HD
ENDROOT
BRANCH   3   5
ATOM      5  C   UNL     1       2.408   0.003  -0.028  0.00  0.00    +0.045 A 
ATOM      6  C   UNL     1       1.278  -0.548  -0.631  0.00  0.00    +0.024 A 
ATOM      7  C   UNL     1       0.081   0.138  -0.627  0.00  0.00    +0.003 A 
ATOM      8  C   UNL     1      -0.017   1.383  -0.024  0.00  0.00    +0.012 A 
ATOM      9  C   UNL     1       1.097   1.951   0.583  0.00  0.00    +0.035 A 
ATOM     10  C   UNL     1       2.323   1.257   0.583  0.00  0.00    +0.054 A 
ATOM     11  C   UNL     1       3.505   1.861   1.227  0.00  0.00    +0.196 C 
ATOM     12  O   UNL     1       4.490   1.188   1.457  0.00  0.00    -0.287 OA
ATOM     13  C   UNL     1       3.476   3.295   1.590  0.00  0.00    +0.033 A 
ATOM     14  C   UNL     1       4.648   3.963   1.929  0.00  0.00    +0.012 A 
ATOM     15  C   UNL     1       4.603   5.305   2.266  0.00  0.00    +0.001 A 
ATOM     16  C   UNL     1       3.400   5.987   2.267  0.00  0.00    +0.001 A 
ATOM     17  C   UNL     1       2.224   5.338   1.932  0.00  0.00    +0.012 A 
ATOM     18  C   UNL     1       2.252   3.990   1.591  0.00  0.00    +0.033 A 
ATOM     19  C   UNL     1       1.007   3.278   1.229  0.00  0.00    +0.195 C 
ATOM     20  O   UNL     1      -0.076   3.778   1.459  0.00  0.00    -0.287 OA
ENDBRANCH   3   5
BRANCH   1  22
ATOM     21  C   UNL     1       5.766  -2.497  -1.086  0.00  0.00    +0.062 C 
ATOM     22  C   UNL     1       4.922  -2.782   0.158  0.00  0.00    +0.259 C 
BRANCH  22  23
ATOM     23  O   UNL     1       4.664  -4.185   0.247  0.00  0.00    -0.449 OA
BRANCH  23  24
ATOM     24  C   UNL     1       5.557  -4.929   0.934  0.00  0.00    +0.333 C 
ATOM     25  O   UNL     1       6.528  -4.400   1.442  0.00  0.00    -0.246 OA
BRANCH  24  26
ATOM     26  C   UNL     1       5.364  -6.323   1.062  0.00  0.00    +0.095 C 
ATOM     27  C   UNL     1       6.261  -7.072   1.752  0.00  0.00    +0.053 C 
BRANCH  27  28
ATOM     28  C   UNL     1       6.068  -8.468   1.881  0.00  0.00    +0.128 A 
ATOM     29  C   UNL     1       6.899  -9.346   2.546  0.00  0.00    +0.049 A 
ATOM     30  C   UNL     1       6.320 -10.618   2.419  0.00  0.00    +0.042 A 
ATOM     31  C   UNL     1       5.190 -10.472   1.691  0.00  0.00    +0.195 A 
ATOM     32  O   UNL     1       5.042  -9.179   1.369  0.00  0.00    -0.464 OA
ENDBRANCH  27  28
ENDBRANCH  24  26
ENDBRANCH  23  24
ENDBRANCH  22  23
ENDBRANCH   1  22
TORSDOF 6
