REMARK  Name = ZINC19139219
REMARK  11 active torsions:
REMARK  status: ('A' for Active; 'I' for Inactive)
REMARK    1  A    between atoms: C_1  and  C_2
REMARK    2  A    between atoms: C_2  and  O_3
REMARK    3  A    between atoms: O_3  and  C_4
REMARK    4  A    between atoms: C_4  and  C_6
REMARK    5  A    between atoms: C_7  and  C_19
REMARK    6  A    between atoms: C_12  and  C_14
REMARK    7  A    between atoms: C_19  and  S_20
REMARK    8  A    between atoms: S_20  and  C_21
REMARK    9  A    between atoms: C_22  and  C_29
REMARK   10  A    between atoms: C_23  and  C_28
REMARK   11  A    between atoms: C_25  and  C_27
REMARK                            x       y       z     vdW  Elec       q    Type
REMARK                         _______ _______ _______ _____ _____    ______ ____
ROOT
ATOM      1  C   UNL     1       1.330  -2.340  -2.530  0.00  0.00    +0.082 C 
ATOM      2  C   UNL     1       1.628  -3.654  -2.615  0.00  0.00    +0.034 C 
ATOM      3  N   UNL     1       2.352  -4.147  -3.663  0.00  0.00    -0.272 N 
ATOM      4  C   UNL     1       2.815  -3.390  -4.666  0.00  0.00    +0.304 C 
ATOM      5  O   UNL     1       3.451  -3.920  -5.556  0.00  0.00    -0.252 OA
ATOM      6  N   UNL     1       2.599  -2.061  -4.720  0.00  0.00    -0.285 N 
ATOM      7  C   UNL     1       1.822  -1.432  -3.639  0.00  0.00    +0.179 C 
ATOM      8  H   UNL     1       2.541  -5.098  -3.682  0.00  0.00    +0.156 HD
ATOM      9  H   UNL     1       2.945  -1.532  -5.456  0.00  0.00    +0.151 HD
ENDROOT
BRANCH   7  10
ATOM     10  C   UNL     1       2.682  -0.362  -3.017  0.00  0.00    +0.130 A 
ATOM     11  C   UNL     1       2.293   0.893  -2.733  0.00  0.00    +0.047 A 
ATOM     12  C   UNL     1       3.409   1.549  -2.164  0.00  0.00    +0.041 A 
ATOM     13  C   UNL     1       4.413   0.655  -2.134  0.00  0.00    +0.195 A 
ATOM     14  O   UNL     1       3.966  -0.503  -2.647  0.00  0.00    -0.466 OA
ENDBRANCH   7  10
BRANCH   1  15
ATOM     15  C   UNL     1       0.580  -1.828  -1.445  0.00  0.00    +0.339 C 
ATOM     16  O   UNL     1      -0.605  -1.590  -1.584  0.00  0.00    -0.245 OA
BRANCH  15  17
ATOM     17  O   UNL     1       1.179  -1.605  -0.257  0.00  0.00    -0.462 OA
BRANCH  17  19
ATOM     18  C   UNL     1       1.207  -0.900   2.055  0.00  0.00    +0.048 C 
ATOM     19  C   UNL     1       0.360  -1.087   0.794  0.00  0.00    +0.229 C 
ENDBRANCH  17  19
ENDBRANCH  15  17
ENDBRANCH   1  15
BRANCH   2  20
ATOM     20  C   UNL     1       1.153  -4.593  -1.536  0.00  0.00    +0.127 C 
BRANCH  20  21
ATOM     21  S   UNL     1      -0.251  -5.562  -2.152  0.00  0.00    -0.099 S 
BRANCH  21  22
ATOM     22  C   UNL     1      -0.684  -6.596  -0.793  0.00  0.00    +0.115 A 
ATOM     23  C   UNL     1      -1.752  -7.504  -0.916  0.00  0.00    +0.086 A 
ATOM     24  C   UNL     1      -2.076  -8.315   0.177  0.00  0.00    -0.029 A 
ATOM     25  C   UNL     1      -1.330  -8.187   1.335  0.00  0.00    +0.027 A 
ATOM     26  C   UNL     1      -0.294  -7.271   1.381  0.00  0.00    +0.040 A 
ATOM     27  N   UNL     1      -0.000  -6.519   0.339  0.00  0.00    -0.244 NA
ATOM     28  C   UNL     1       0.516  -7.134   2.644  0.00  0.00    +0.065 C 
ATOM     29  C   UNL     1      -3.211  -9.303   0.095  0.00  0.00    +0.045 C 
BRANCH  23  30
ATOM     30  C   UNL     1      -2.492  -7.597  -2.139  0.00  0.00    +0.102 C 
ATOM     31  N   UNL     1      -3.080  -7.670  -3.108  0.00  0.00    -0.191 NA
ENDBRANCH  23  30
ENDBRANCH  21  22
ENDBRANCH  20  21
ENDBRANCH   2  20
TORSDOF 8
