REMARK  Name = ZINC64158013
REMARK  11 active torsions:
REMARK  status: ('A' for Active; 'I' for Inactive)
REMARK    1  A    between atoms: C_1  and  C_2
REMARK    2  A    between atoms: C_2  and  C_3
REMARK    3  A    between atoms: C_2  and  N_4
REMARK    4  A    between atoms: C_5  and  C_7
REMARK    5  A    between atoms: C_10  and  S_25
REMARK    6  A    between atoms: N_13  and  C_14
REMARK    7  A    between atoms: C_14  and  C_15
REMARK    8  A    between atoms: C_18  and  C_21
REMARK    9  A    between atoms: C_21  and  O_23
REMARK   10  A    between atoms: O_23  and  C_24
REMARK   11  A    between atoms: S_25  and  C_26
REMARK                            x       y       z     vdW  Elec       q    Type
REMARK                         _______ _______ _______ _____ _____    ______ ____
ROOT
ATOM      1  C   UNL     1      -3.057  -2.256  -0.474  0.00  0.00    +0.144 C 
ATOM      2  C   UNL     1      -3.563  -2.369   0.976  0.00  0.00    +0.044 C 
ATOM      3  C   UNL     1      -3.918  -3.862   1.163  0.00  0.00    +0.066 C 
ATOM      4  C   UNL     1      -4.135  -4.353  -0.290  0.00  0.00    +0.099 C 
ATOM      5  N   UNL     1      -3.098  -3.613  -1.060  0.00  0.00    -0.286 NA
ENDROOT
BRANCH   1   7
ATOM      6  N   UNL     1      -1.372  -0.511   0.012  0.00  0.00    -0.312 N 
ATOM      7  C   UNL     1      -1.643  -1.734  -0.485  0.00  0.00    +0.231 C 
ATOM      8  O   UNL     1      -0.749  -2.415  -0.941  0.00  0.00    -0.274 OA
ATOM      9  H   UNL     1      -2.087   0.033   0.377  0.00  0.00    +0.149 HD
BRANCH   6  11
ATOM     10  C   UNL     1      -0.019   1.526   0.010  0.00  0.00    +0.027 C 
ATOM     11  C   UNL     1       0.002  -0.004   0.002  0.00  0.00    +0.067 C 
ATOM     12  C   UNL     1       0.742  -0.511   1.242  0.00  0.00    +0.027 C 
ENDBRANCH   6  11
ENDBRANCH   1   7
BRANCH   5  13
ATOM     13  C   UNL     1      -3.434  -3.560  -2.489  0.00  0.00    +0.120 C 
BRANCH  13  14
ATOM     14  C   UNL     1      -3.228  -4.920  -3.104  0.00  0.00    -0.033 A 
ATOM     15  C   UNL     1      -1.996  -5.255  -3.638  0.00  0.00    +0.006 A 
ATOM     16  C   UNL     1      -1.800  -6.498  -4.203  0.00  0.00    +0.015 A 
ATOM     17  C   UNL     1      -2.848  -7.419  -4.236  0.00  0.00    +0.059 A 
ATOM     18  C   UNL     1      -4.089  -7.075  -3.696  0.00  0.00    +0.015 A 
ATOM     19  C   UNL     1      -4.270  -5.830  -3.129  0.00  0.00    +0.006 A 
BRANCH  17  20
ATOM     20  C   UNL     1      -2.646  -8.752  -4.840  0.00  0.00    +0.339 C 
ATOM     21  O   UNL     1      -1.565  -9.049  -5.309  0.00  0.00    -0.245 OA
BRANCH  20  22
ATOM     22  O   UNL     1      -3.660  -9.639  -4.870  0.00  0.00    -0.464 OA
ATOM     23  C   UNL     1      -3.393 -10.909  -5.469  0.00  0.00    +0.280 C 
ENDBRANCH  20  22
ENDBRANCH  17  20
ENDBRANCH  13  14
ENDBRANCH   5  13
BRANCH   3  24
ATOM     24  S   UNL     1      -5.437  -4.043   2.139  0.00  0.00    -0.110 S 
BRANCH  24  25
ATOM     25  C   UNL     1      -5.596  -5.834   2.375  0.00  0.00    +0.236 C 
ATOM     26  N   UNL     1      -4.391  -6.367   3.022  0.00  0.00    -0.355 N 
ATOM     27  C   UNL     1      -3.861  -7.234   2.209  0.00  0.00    +0.061 A 
ATOM     28  C   UNL     1      -2.665  -8.083   2.294  0.00  0.00    +0.027 A 
ATOM     29  C   UNL     1      -2.357  -8.903   1.270  0.00  0.00    +0.002 A 
ATOM     30  C   UNL     1      -3.140  -8.988   0.104  0.00  0.00    +0.002 A 
ATOM     31  C   UNL     1      -4.256  -8.254  -0.076  0.00  0.00    +0.027 A 
ATOM     32  C   UNL     1      -4.689  -7.322   0.975  0.00  0.00    +0.061 A 
ATOM     33  N   UNL     1      -5.699  -6.507   1.074  0.00  0.00    -0.355 N 
ATOM     34  H   UNL     1      -4.051  -6.118   3.897  0.00  0.00    +0.162 HD
ATOM     35  H   UNL     1      -6.392  -6.369   0.410  0.00  0.00    +0.162 HD
ENDBRANCH  24  25
ENDBRANCH   3  24
TORSDOF 8
