REMARK  Name = ZINC63603955
REMARK  7 active torsions:
REMARK  status: ('A' for Active; 'I' for Inactive)
REMARK    1  A    between atoms: C_1  and  C_2
REMARK    2  A    between atoms: C_2  and  C_29
REMARK    3  A    between atoms: C_3  and  C_4
REMARK    4  A    between atoms: N_6  and  N_7
REMARK    5  A    between atoms: C_8  and  C_10
REMARK    6  A    between atoms: C_12  and  C_23
REMARK    7  A    between atoms: C_15  and  N_20
REMARK                            x       y       z     vdW  Elec       q    Type
REMARK                         _______ _______ _______ _____ _____    ______ ____
ROOT
ATOM      1  C   UNL     1       0.726   0.275   7.306  0.00  0.00    +0.199 C 
ATOM      2  C   UNL     1      -0.685   0.387   7.841  0.00  0.00    -0.000 C 
ATOM      3  C   UNL     1      -0.702  -0.353   9.012  0.00  0.00    +0.006 A 
ATOM      4  C   UNL     1      -1.721  -0.627   9.956  0.00  0.00    +0.043 A 
ATOM      5  C   UNL     1      -1.448  -1.400  11.034  0.00  0.00    +0.127 A 
ATOM      6  C   UNL     1      -0.175  -1.943  11.245  0.00  0.00    +0.035 A 
ATOM      7  C   UNL     1       0.848  -1.724  10.386  0.00  0.00    +0.028 A 
ATOM      8  C   UNL     1       0.642  -0.922   9.231  0.00  0.00    +0.044 A 
ATOM      9  N   UNL     1       1.456  -0.565   8.261  0.00  0.00    -0.370 N 
ATOM     10  H   UNL     1       2.390  -0.818   8.188  0.00  0.00    +0.161 HD
ENDROOT
BRANCH   2  11
ATOM     11  C   UNL     1      -1.801   1.124   7.244  0.00  0.00    -0.019 A 
ATOM     12  C   UNL     1      -3.120   0.835   7.623  0.00  0.00    +0.008 A 
ATOM     13  C   UNL     1      -4.163   1.534   7.056  0.00  0.00    +0.001 A 
ATOM     14  C   UNL     1      -3.912   2.519   6.116  0.00  0.00    +0.000 A 
ATOM     15  C   UNL     1      -2.613   2.812   5.736  0.00  0.00    +0.001 A 
ATOM     16  C   UNL     1      -1.556   2.127   6.295  0.00  0.00    +0.008 A 
ENDBRANCH   2  11
BRANCH   1  18
ATOM     17  N   UNL     1       0.668   0.388   4.836  0.00  0.00    -0.232 N 
ATOM     18  C   UNL     1       0.715  -0.374   5.946  0.00  0.00    +0.256 C 
ATOM     19  O   UNL     1       0.750  -1.583   5.851  0.00  0.00    -0.272 OA
ATOM     20  H   UNL     1       0.553   1.349   4.912  0.00  0.00    +0.173 HD
BRANCH  17  23
ATOM     21  C   UNL     1       0.735   0.557   2.462  0.00  0.00    +0.253 C 
ATOM     22  O   UNL     1       0.592   1.761   2.557  0.00  0.00    -0.269 OA
ATOM     23  N   UNL     1       0.783  -0.206   3.572  0.00  0.00    -0.231 N 
ATOM     24  H   UNL     1       0.897  -1.166   3.497  0.00  0.00    +0.173 HD
BRANCH  21  27
ATOM     25  C   UNL     1       0.218   2.092   0.148  0.00  0.00    +0.039 C 
ATOM     26  C   UNL     1       0.697   0.668   0.038  0.00  0.00    -0.071 C 
ATOM     27  C   UNL     1       0.857  -0.067   1.136  0.00  0.00    +0.067 C 
ATOM     28  C   UNL     1       0.993   0.075  -1.315  0.00  0.00    +0.039 C 
ENDBRANCH  21  27
ENDBRANCH  17  23
ENDBRANCH   1  18
BRANCH   5  29
ATOM     29  N   UNL     1      -2.523  -1.679  12.013  0.00  0.00    +0.056 N 
ATOM     30  O   UNL     1      -3.628  -1.219  11.846  0.00  0.00    -0.126 OA
ATOM     31  O   UNL     1      -2.295  -2.368  12.981  0.00  0.00    -0.126 OA
ENDBRANCH   5  29
TORSDOF 5
