REMARK  Name = ZINC17056337
REMARK  12 active torsions:
REMARK  status: ('A' for Active; 'I' for Inactive)
REMARK    1  A    between atoms: C_1  and  C_2
REMARK    2  A    between atoms: C_2  and  C_4
REMARK    3  A    between atoms: C_2  and  N_7
REMARK    4  A    between atoms: C_4  and  C_5
REMARK    5  A    between atoms: C_4  and  C_6
REMARK    6  A    between atoms: C_8  and  C_10
REMARK    7  A    between atoms: C_13  and  S_16
REMARK    8  A    between atoms: S_16  and  N_19
REMARK    9  A    between atoms: N_19  and  C_20
REMARK   10  A    between atoms: C_22  and  N_28
REMARK   11  A    between atoms: C_25  and  O_26
REMARK   12  A    between atoms: O_26  and  C_27
REMARK                            x       y       z     vdW  Elec       q    Type
REMARK                         _______ _______ _______ _____ _____    ______ ____
ROOT
ATOM      1  C   UNL     1      -3.438  -1.155  -1.134  0.00  0.00    +0.037 A 
ATOM      2  C   UNL     1      -4.050  -1.497   0.073  0.00  0.00    +0.015 A 
ATOM      3  C   UNL     1      -5.344  -1.973   0.076  0.00  0.00    +0.029 A 
ATOM      4  C   UNL     1      -6.036  -2.112  -1.114  0.00  0.00    +0.110 A 
ATOM      5  C   UNL     1      -5.435  -1.775  -2.314  0.00  0.00    +0.029 A 
ATOM      6  C   UNL     1      -4.143  -1.292  -2.331  0.00  0.00    +0.015 A 
ENDROOT
BRANCH   1   8
ATOM      7  N   UNL     1      -1.372  -0.511   0.012  0.00  0.00    -0.309 N 
ATOM      8  C   UNL     1      -2.051  -0.643  -1.145  0.00  0.00    +0.244 C 
ATOM      9  O   UNL     1      -1.522  -0.341  -2.197  0.00  0.00    -0.270 OA
ATOM     10  H   UNL     1      -1.794  -0.752   0.852  0.00  0.00    +0.149 HD
BRANCH   7  12
ATOM     11  C   UNL     1      -0.019   1.526   0.010  0.00  0.00    +0.028 C 
ATOM     12  C   UNL     1       0.002  -0.004   0.002  0.00  0.00    +0.073 C 
BRANCH  12  13
ATOM     13  C   UNL     1       0.742  -0.511   1.242  0.00  0.00    +0.003 C 
ATOM     14  C   UNL     1       0.763  -2.041   1.233  0.00  0.00    +0.009 C 
ATOM     15  C   UNL     1       2.178   0.019   1.231  0.00  0.00    +0.009 C 
ENDBRANCH  12  13
ENDBRANCH   7  12
ENDBRANCH   1   8
BRANCH   4  16
ATOM     16  S   UNL     1      -7.689  -2.722  -1.102  0.00  0.00    +0.092 S 
ATOM     17  O   UNL     1      -7.928  -3.275  -2.389  0.00  0.00    -0.148 OA
ATOM     18  O   UNL     1      -7.833  -3.481   0.091  0.00  0.00    -0.148 OA
BRANCH  16  19
ATOM     19  N   UNL     1      -8.693  -1.413  -0.955  0.00  0.00    -0.094 NA
BRANCH  19  20
ATOM     20  C   UNL     1     -10.080  -1.596  -0.917  0.00  0.00    +0.118 A 
ATOM     21  C   UNL     1     -10.616  -2.873  -0.997  0.00  0.00    +0.063 A 
ATOM     22  C   UNL     1     -11.986  -3.051  -0.959  0.00  0.00    +0.128 A 
ATOM     23  C   UNL     1     -12.825  -1.958  -0.843  0.00  0.00    +0.036 A 
ATOM     24  C   UNL     1     -12.298  -0.682  -0.763  0.00  0.00    +0.050 A 
ATOM     25  C   UNL     1     -10.926  -0.496  -0.794  0.00  0.00    +0.145 A 
BRANCH  22  26
ATOM     26  N   UNL     1     -12.556  -4.414  -1.045  0.00  0.00    +0.056 N 
ATOM     27  O   UNL     1     -11.824  -5.370  -1.148  0.00  0.00    -0.126 OA
ATOM     28  O   UNL     1     -13.755  -4.571  -1.012  0.00  0.00    -0.126 OA
ENDBRANCH  22  26
BRANCH  25  29
ATOM     29  O   UNL     1     -10.406   0.758  -0.709  0.00  0.00    -0.493 OA
ATOM     30  C   UNL     1     -11.334   1.838  -0.584  0.00  0.00    +0.277 C 
ENDBRANCH  25  29
ENDBRANCH  19  20
ENDBRANCH  16  19
ENDBRANCH   4  16
TORSDOF 8
