REMARK  Name = ZINC41513401
REMARK  6 active torsions:
REMARK  status: ('A' for Active; 'I' for Inactive)
REMARK    1  A    between atoms: C_1  and  C_2
REMARK    2  A    between atoms: C_4  and  O_28
REMARK    3  A    between atoms: C_5  and  C_22
REMARK    4  A    between atoms: C_11  and  C_12
REMARK    5  A    between atoms: C_15  and  N_18
REMARK    6  A    between atoms: C_22  and  N_23
REMARK                            x       y       z     vdW  Elec       q    Type
REMARK                         _______ _______ _______ _____ _____    ______ ____
ROOT
ATOM      1  C   UNL     1      -0.090   1.509   0.016  0.00  0.00    +0.045 C 
ATOM      2  C   UNL     1      -0.072   0.002   0.006  0.00  0.00    -0.033 A 
ATOM      3  C   UNL     1      -0.089  -0.675  -1.181  0.00  0.00    +0.050 A 
ATOM      4  C   UNL     1      -0.072  -2.067  -1.193  0.00  0.00    +0.122 A 
ATOM      5  C   UNL     1      -0.038  -2.781  -0.007  0.00  0.00    +0.020 A 
ATOM      6  C   UNL     1      -0.020  -2.109   1.209  0.00  0.00    +0.145 A 
ATOM      7  C   UNL     1      -0.033  -0.705   1.208  0.00  0.00    +0.071 A 
ATOM      8  C   UNL     1      -0.002  -0.288   2.622  0.00  0.00    +0.232 C 
ATOM      9  O   UNL     1      -0.006   0.847   3.065  0.00  0.00    -0.283 OA
ATOM     10  C   UNL     1       0.033  -1.551   3.378  0.00  0.00    +0.176 C 
ATOM     11  C   UNL     1       0.069  -1.676   4.727  0.00  0.00    +0.058 C 
ATOM     12  O   UNL     1       0.011  -2.564   2.480  0.00  0.00    -0.451 OA
ENDROOT
BRANCH  11  13
ATOM     13  C   UNL     1      -0.018  -3.007   5.344  0.00  0.00    -0.021 A 
ATOM     14  C   UNL     1      -0.114  -3.133   6.735  0.00  0.00    +0.010 A 
ATOM     15  C   UNL     1      -0.196  -4.386   7.306  0.00  0.00    +0.033 A 
ATOM     16  C   UNL     1      -0.182  -5.516   6.507  0.00  0.00    +0.126 A 
ATOM     17  C   UNL     1      -0.086  -5.401   5.131  0.00  0.00    +0.033 A 
ATOM     18  C   UNL     1      -0.009  -4.155   4.544  0.00  0.00    +0.010 A 
BRANCH  16  19
ATOM     19  N   UNL     1      -0.269  -6.857   7.129  0.00  0.00    +0.056 N 
ATOM     20  O   UNL     1      -0.352  -6.962   8.330  0.00  0.00    -0.126 OA
ATOM     21  O   UNL     1      -0.257  -7.847   6.435  0.00  0.00    -0.126 OA
ENDBRANCH  16  19
ENDBRANCH  11  13
BRANCH   4  22
ATOM     22  O   UNL     1      -0.089  -2.729  -2.378  0.00  0.00    -0.506 OA
ATOM     23  H   UNL     1       0.790  -2.910  -2.740  0.00  0.00    +0.292 HD
ENDBRANCH   4  22
BRANCH   5  24
ATOM     24  C   UNL     1      -0.020  -4.288  -0.035  0.00  0.00    -0.036 C 
BRANCH  24  25
ATOM     25  N   UNL     1       1.371  -4.761  -0.073  0.00  0.00    +0.383 N 
ATOM     26  C   UNL     1       2.047  -4.468   1.216  0.00  0.00    -0.078 C 
ATOM     27  C   UNL     1       3.224  -5.476   1.236  0.00  0.00    -0.020 C 
ATOM     28  C   UNL     1       2.607  -6.740   0.596  0.00  0.00    -0.020 C 
ATOM     29  C   UNL     1       1.405  -6.232  -0.222  0.00  0.00    -0.078 C 
ATOM     30  H   UNL     1       1.867  -4.322  -0.835  0.00  0.00    -0.081 HD
ENDBRANCH  24  25
ENDBRANCH   5  24
TORSDOF 5
