REMARK  Name = ZINC06053883
REMARK  8 active torsions:
REMARK  status: ('A' for Active; 'I' for Inactive)
REMARK    1  A    between atoms: C_1  and  C_2
REMARK    2  A    between atoms: C_2  and  C_4
REMARK    3  A    between atoms: C_2  and  N_13
REMARK    4  A    between atoms: C_7  and  C_10
REMARK    5  A    between atoms: C_10  and  C_11
REMARK    6  A    between atoms: C_10  and  C_12
REMARK    7  A    between atoms: C_14  and  C_16
REMARK    8  A    between atoms: C_21  and  N_22
REMARK                            x       y       z     vdW  Elec       q    Type
REMARK                         _______ _______ _______ _____ _____    ______ ____
ROOT
ATOM      1  N   UNL     1      -1.480   0.103   0.611  0.00  0.00    -0.305 N 
ATOM      2  C   UNL     1      -2.147  -0.457   1.640  0.00  0.00    +0.247 C 
ATOM      3  O   UNL     1      -1.659  -0.458   2.753  0.00  0.00    -0.270 OA
ATOM      4  H   UNL     1      -1.870   0.103  -0.277  0.00  0.00    +0.150 HD
ENDROOT
BRANCH   2   5
ATOM      5  C   UNL     1      -3.473  -1.071   1.414  0.00  0.00    +0.067 A 
ATOM      6  C   UNL     1      -4.497  -0.330   0.822  0.00  0.00    +0.015 A 
ATOM      7  C   UNL     1      -5.732  -0.908   0.614  0.00  0.00    +0.001 A 
ATOM      8  C   UNL     1      -5.957  -2.221   0.990  0.00  0.00    +0.002 A 
ATOM      9  C   UNL     1      -4.946  -2.961   1.577  0.00  0.00    +0.033 A 
ATOM     10  C   UNL     1      -3.705  -2.396   1.786  0.00  0.00    +0.138 A 
BRANCH  10  11
ATOM     11  N   UNL     1      -2.623  -3.191   2.409  0.00  0.00    +0.057 N 
ATOM     12  O   UNL     1      -2.857  -4.295   2.843  0.00  0.00    -0.126 OA
ATOM     13  O   UNL     1      -1.505  -2.737   2.483  0.00  0.00    -0.126 OA
ENDBRANCH  10  11
ENDBRANCH   2   5
BRANCH   1  15
ATOM     14  C   UNL     1      -0.346   2.154   1.312  0.00  0.00    +0.033 C 
ATOM     15  C   UNL     1      -0.166   0.711   0.835  0.00  0.00    +0.100 C 
BRANCH  15  16
ATOM     16  C   UNL     1       0.618   0.702  -0.452  0.00  0.00    -0.027 A 
ATOM     17  C   UNL     1      -0.014   0.988  -1.648  0.00  0.00    +0.006 A 
ATOM     18  C   UNL     1       0.705   0.979  -2.829  0.00  0.00    +0.004 A 
ATOM     19  C   UNL     1       2.055   0.685  -2.813  0.00  0.00    -0.045 A 
ATOM     20  C   UNL     1       2.687   0.401  -1.617  0.00  0.00    +0.004 A 
ATOM     21  C   UNL     1       1.969   0.413  -0.436  0.00  0.00    +0.006 A 
BRANCH  19  22
ATOM     22  C   UNL     1       2.839   0.675  -4.101  0.00  0.00    +0.013 C 
ATOM     23  C   UNL     1       3.963   1.710  -4.022  0.00  0.00    +0.012 C 
ATOM     24  C   UNL     1       3.439  -0.714  -4.321  0.00  0.00    +0.012 C 
ENDBRANCH  19  22
ENDBRANCH  15  16
ENDBRANCH   1  15
TORSDOF 5
