REMARK  Name = ZINC36499827
REMARK  13 active torsions:
REMARK  status: ('A' for Active; 'I' for Inactive)
REMARK    1  A    between atoms: C_1  and  C_2
REMARK    2  A    between atoms: C_2  and  C_3
REMARK    3  A    between atoms: C_2  and  C_4
REMARK    4  A    between atoms: C_2  and  N_5
REMARK    5  A    between atoms: C_6  and  C_8
REMARK    6  A    between atoms: C_8  and  C_10
REMARK    7  A    between atoms: C_8  and  N_18
REMARK    8  A    between atoms: C_13  and  O_16
REMARK    9  A    between atoms: O_16  and  C_17
REMARK   10  A    between atoms: N_18  and  C_19
REMARK   11  A    between atoms: C_19  and  C_20
REMARK   12  A    between atoms: C_25  and  C_27
REMARK   13  A    between atoms: C_29  and  N_34
REMARK                            x       y       z     vdW  Elec       q    Type
REMARK                         _______ _______ _______ _____ _____    ______ ____
ROOT
ATOM      1  N   UNL     1       4.054  -0.104  -3.158  0.00  0.00    -0.275 N 
ATOM      2  C   UNL     1       4.592   1.109  -2.920  0.00  0.00    +0.252 C 
ATOM      3  O   UNL     1       5.775   1.299  -3.123  0.00  0.00    -0.270 OA
ENDROOT
BRANCH   2   4
ATOM      4  C   UNL     1       3.744   2.205  -2.414  0.00  0.00    +0.086 A 
ATOM      5  C   UNL     1       2.354   2.072  -2.407  0.00  0.00    +0.049 A 
ATOM      6  C   UNL     1       1.568   3.100  -1.933  0.00  0.00    +0.127 A 
ATOM      7  C   UNL     1       2.151   4.266  -1.463  0.00  0.00    +0.036 A 
ATOM      8  C   UNL     1       3.524   4.411  -1.465  0.00  0.00    +0.054 A 
ATOM      9  C   UNL     1       4.330   3.384  -1.933  0.00  0.00    +0.191 A 
ATOM     10  O   UNL     1       5.680   3.522  -1.930  0.00  0.00    -0.287 OA
BRANCH   6  11
ATOM     11  N   UNL     1       0.095   2.958  -1.925  0.00  0.00    +0.056 N 
ATOM     12  O   UNL     1      -0.417   1.942  -2.335  0.00  0.00    -0.126 OA
ATOM     13  O   UNL     1      -0.597   3.859  -1.510  0.00  0.00    -0.126 OA
ENDBRANCH   6  11
ENDBRANCH   2   4
BRANCH   1  14
ATOM     14  C   UNL     1       2.643  -0.352  -2.852  0.00  0.00    +0.193 C 
BRANCH  14  15
ATOM     15  C   UNL     1       2.360  -1.829  -2.947  0.00  0.00    -0.018 A 
ATOM     16  C   UNL     1       2.898  -2.696  -2.013  0.00  0.00    +0.009 A 
ATOM     17  C   UNL     1       2.640  -4.050  -2.097  0.00  0.00    +0.046 A 
ATOM     18  C   UNL     1       1.842  -4.541  -3.120  0.00  0.00    +0.120 A 
ATOM     19  C   UNL     1       1.304  -3.670  -4.056  0.00  0.00    +0.046 A 
ATOM     20  C   UNL     1       1.559  -2.315  -3.964  0.00  0.00    +0.009 A 
BRANCH  18  21
ATOM     21  O   UNL     1       1.588  -5.873  -3.206  0.00  0.00    -0.495 OA
ATOM     22  C   UNL     1       0.758  -6.308  -4.285  0.00  0.00    +0.277 C 
ENDBRANCH  18  21
ENDBRANCH  14  15
BRANCH  14  24
ATOM     23  N   UNL     1       1.093   0.004  -0.957  0.00  0.00    -0.309 N 
ATOM     24  C   UNL     1       2.339   0.130  -1.457  0.00  0.00    +0.239 C 
ATOM     25  O   UNL     1       3.215   0.630  -0.784  0.00  0.00    -0.273 OA
ATOM     26  H   UNL     1       0.393  -0.397  -1.495  0.00  0.00    +0.149 HD
BRANCH  23  28
ATOM     27  C   UNL     1       1.085   1.972   0.495  0.00  0.00    +0.031 C 
ATOM     28  C   UNL     1       0.798   0.472   0.399  0.00  0.00    +0.026 C 
ATOM     29  C   UNL     1       1.676  -0.281   1.401  0.00  0.00    +0.031 C 
ATOM     30  C   UNL     1      -0.676   0.213   0.719  0.00  0.00    +0.031 C 
ENDBRANCH  23  28
ENDBRANCH  14  24
ENDBRANCH   1  14
BRANCH   1  31
ATOM     31  C   UNL     1       4.880  -1.174  -3.722  0.00  0.00    +0.183 C 
BRANCH  31  32
ATOM     32  C   UNL     1       4.703  -1.211  -5.218  0.00  0.00    +0.122 A 
ATOM     33  C   UNL     1       5.498  -0.607  -6.119  0.00  0.00    +0.046 A 
ATOM     34  C   UNL     1       4.967  -0.901  -7.396  0.00  0.00    +0.041 A 
ATOM     35  C   UNL     1       3.879  -1.668  -7.199  0.00  0.00    +0.195 A 
ATOM     36  O   UNL     1       3.727  -1.857  -5.878  0.00  0.00    -0.466 OA
ENDBRANCH  31  32
ENDBRANCH   1  31
TORSDOF 9
