REMARK  Name = ZINC36608733
REMARK  9 active torsions:
REMARK  status: ('A' for Active; 'I' for Inactive)
REMARK    1  A    between atoms: C_1  and  C_2
REMARK    2  A    between atoms: C_2  and  C_3
REMARK    3  A    between atoms: C_2  and  C_4
REMARK    4  A    between atoms: C_2  and  N_5
REMARK    5  A    between atoms: C_6  and  C_8
REMARK    6  A    between atoms: C_8  and  C_10
REMARK    7  A    between atoms: C_8  and  N_19
REMARK    8  A    between atoms: N_19  and  C_20
REMARK    9  A    between atoms: C_26  and  C_28
REMARK                            x       y       z     vdW  Elec       q    Type
REMARK                         _______ _______ _______ _____ _____    ______ ____
ROOT
ATOM      1  C   UNL     1       2.248  -0.448  -2.502  0.00  0.00    +0.198 C 
ENDROOT
BRANCH   1   2
ATOM      2  C   UNL     1       2.088  -1.893  -2.899  0.00  0.00    -0.014 A 
ATOM      3  C   UNL     1       3.053  -2.817  -2.546  0.00  0.00    +0.010 A 
ATOM      4  C   UNL     1       2.910  -4.143  -2.908  0.00  0.00    +0.050 A 
ATOM      5  C   UNL     1       1.798  -4.550  -3.627  0.00  0.00    +0.166 A 
ATOM      6  C   UNL     1       0.825  -3.619  -3.983  0.00  0.00    +0.167 A 
ATOM      7  C   UNL     1       0.973  -2.292  -3.612  0.00  0.00    +0.055 A 
ATOM      8  O   UNL     1      -0.159  -4.260  -4.679  0.00  0.00    -0.453 OA
ATOM      9  C   UNL     1       0.419  -5.511  -5.097  0.00  0.00    +0.466 C 
ATOM     10  O   UNL     1       1.423  -5.774  -4.099  0.00  0.00    -0.453 OA
ENDBRANCH   1   2
BRANCH   1  12
ATOM     11  N   UNL     1      -0.055  -0.249  -1.623  0.00  0.00    -0.309 N 
ATOM     12  C   UNL     1       1.268  -0.116  -1.406  0.00  0.00    +0.239 C 
ATOM     13  O   UNL     1       1.670   0.270  -0.329  0.00  0.00    -0.273 OA
ATOM     14  H   UNL     1      -0.377  -0.558  -2.485  0.00  0.00    +0.149 HD
BRANCH  11  16
ATOM     15  C   UNL     1      -0.845   1.540  -0.155  0.00  0.00    +0.031 C 
ATOM     16  C   UNL     1      -1.008   0.073  -0.558  0.00  0.00    +0.026 C 
ATOM     17  C   UNL     1      -0.741  -0.822   0.653  0.00  0.00    +0.031 C 
ATOM     18  C   UNL     1      -2.434  -0.162  -1.061  0.00  0.00    +0.031 C 
ENDBRANCH  11  16
ENDBRANCH   1  12
BRANCH   1  19
ATOM     19  N   UNL     1       3.614  -0.223  -2.020  0.00  0.00    -0.249 N 
ATOM     20  C   UNL     1       4.416   0.654  -2.655  0.00  0.00    +0.287 C 
ATOM     21  O   UNL     1       5.502   0.938  -2.183  0.00  0.00    -0.266 OA
BRANCH  19  22
ATOM     22  C   UNL     1       4.084  -0.918  -0.902  0.00  0.00    +0.038 A 
ATOM     23  C   UNL     1       3.224  -1.731  -0.175  0.00  0.00    +0.023 A 
ATOM     24  C   UNL     1       3.691  -2.416   0.929  0.00  0.00    +0.002 A 
ATOM     25  C   UNL     1       5.014  -2.293   1.312  0.00  0.00    +0.000 A 
ATOM     26  C   UNL     1       5.873  -1.484   0.591  0.00  0.00    +0.002 A 
ATOM     27  C   UNL     1       5.414  -0.801  -0.518  0.00  0.00    +0.023 A 
ENDBRANCH  19  22
BRANCH  20  28
ATOM     28  C   UNL     1       3.982   1.266  -3.915  0.00  0.00    +0.190 A 
ATOM     29  C   UNL     1       4.617   2.279  -4.576  0.00  0.00    +0.054 A 
ATOM     30  C   UNL     1       3.859   2.547  -5.726  0.00  0.00    +0.042 A 
ATOM     31  C   UNL     1       2.808   1.698  -5.717  0.00  0.00    +0.196 A 
ATOM     32  O   UNL     1       2.889   0.924  -4.627  0.00  0.00    -0.458 OA
ENDBRANCH  20  28
ENDBRANCH   1  19
TORSDOF 6
