REMARK  Name = ZINC23634933
REMARK  9 active torsions:
REMARK  status: ('A' for Active; 'I' for Inactive)
REMARK    1  A    between atoms: C_1  and  C_2
REMARK    2  A    between atoms: C_8  and  N_10
REMARK    3  A    between atoms: C_14  and  C_16
REMARK    4  A    between atoms: C_16  and  S_17
REMARK    5  A    between atoms: S_17  and  C_18
REMARK    6  A    between atoms: C_21  and  C_24
REMARK    7  A    between atoms: N_22  and  N_23
REMARK    8  A    between atoms: C_27  and  O_30
REMARK    9  A    between atoms: O_30  and  C_31
REMARK                            x       y       z     vdW  Elec       q    Type
REMARK                         _______ _______ _______ _____ _____    ______ ____
ROOT
ATOM      1  C   UNL     1       4.017   1.960  -0.026  0.00  0.00    +0.209 A 
ATOM      2  N   UNL     1       3.928   3.271  -0.017  0.00  0.00    -0.121 NA
ATOM      3  N   UNL     1       5.102   3.793  -0.025  0.00  0.00    -0.127 NA
ATOM      4  C   UNL     1       6.013   2.848  -0.040  0.00  0.00    +0.182 A 
ATOM      5  N   UNL     1       5.346   1.645  -0.035  0.00  0.00    -0.224 N 
ENDROOT
BRANCH   4   6
ATOM      6  C   UNL     1       7.479   3.040  -0.051  0.00  0.00    +0.021 A 
ATOM      7  C   UNL     1       8.322   1.974  -0.372  0.00  0.00    +0.015 A 
ATOM      8  C   UNL     1       9.688   2.158  -0.387  0.00  0.00    +0.046 A 
ATOM      9  C   UNL     1      10.226   3.399  -0.073  0.00  0.00    +0.127 A 
ATOM     10  C   UNL     1       9.391   4.460   0.252  0.00  0.00    +0.046 A 
ATOM     11  C   UNL     1       8.024   4.286   0.263  0.00  0.00    +0.015 A 
BRANCH   9  12
ATOM     12  O   UNL     1      11.573   3.575  -0.083  0.00  0.00    -0.434 OA
BRANCH  12  13
ATOM     13  C   UNL     1      12.373   2.442  -0.426  0.00  0.00    +0.541 C 
ATOM     14  F   UNL     1      12.136   1.410   0.488  0.00  0.00    -0.166 F 
ATOM     15  F   UNL     1      12.041   2.009  -1.714  0.00  0.00    -0.166 F 
ENDBRANCH  12  13
ENDBRANCH   9  12
ENDBRANCH   4   6
BRANCH   5  16
ATOM     16  N   UNL     1       5.897   0.395  -0.040  0.00  0.00    -0.295 N 
ATOM     17  H   UNL     1       6.991   0.276  -0.047  0.00  0.00    +0.163 HD
ATOM     18  H   UNL     1       5.248  -0.493  -0.038  0.00  0.00    +0.163 HD
ENDBRANCH   5  16
BRANCH   1  19
ATOM     19  S   UNL     1       2.672   0.822  -0.019  0.00  0.00    -0.075 S 
BRANCH  19  20
ATOM     20  C   UNL     1       1.280   1.979   0.001  0.00  0.00    +0.173 C 
BRANCH  20  25
ATOM     21  N   UNL     1      -3.525   1.834   0.029  0.00  0.00    -0.296 N 
ATOM     22  C   UNL     1      -2.349   1.176   0.020  0.00  0.00    +0.306 C 
ATOM     23  O   UNL     1      -2.332  -0.039   0.013  0.00  0.00    -0.252 OA
ATOM     24  N   UNL     1      -1.191   1.866   0.018  0.00  0.00    -0.239 N 
ATOM     25  C   UNL     1      -0.014   1.208   0.009  0.00  0.00    +0.231 C 
ATOM     26  O   UNL     1       0.002  -0.004   0.002  0.00  0.00    -0.274 OA
ATOM     27  H   UNL     1      -3.540   2.934   0.035  0.00  0.00    +0.151 HD
ATOM     28  H   UNL     1      -1.206   2.966   0.024  0.00  0.00    +0.159 HD
BRANCH  21  35
ATOM     29  C   UNL     1      -5.526   2.327  -2.006  0.00  0.00    +0.009 C 
ATOM     30  C   UNL     1      -5.893   1.950  -0.569  0.00  0.00    +0.006 C 
ATOM     31  C   UNL     1      -7.208   1.167  -0.567  0.00  0.00    +0.005 C 
ATOM     32  C   UNL     1      -7.575   0.790   0.870  0.00  0.00    +0.000 C 
ATOM     33  C   UNL     1      -6.465  -0.075   1.469  0.00  0.00    +0.002 C 
ATOM     34  C   UNL     1      -5.150   0.708   1.467  0.00  0.00    +0.022 C 
ATOM     35  C   UNL     1      -4.783   1.085   0.031  0.00  0.00    +0.077 C 
ENDBRANCH  21  35
ENDBRANCH  20  25
ENDBRANCH  19  20
ENDBRANCH   1  19
TORSDOF 8
