REMARK  Name = ZINC12680942
REMARK  7 active torsions:
REMARK  status: ('A' for Active; 'I' for Inactive)
REMARK    1  A    between atoms: C_3  and  C_6
REMARK    2  A    between atoms: C_9  and  S_14
REMARK    3  A    between atoms: N_10  and  C_11
REMARK    4  A    between atoms: S_14  and  C_15
REMARK    5  A    between atoms: C_15  and  C_16
REMARK    6  A    between atoms: N_18  and  C_19
REMARK    7  A    between atoms: C_20  and  C_27
REMARK                            x       y       z     vdW  Elec       q    Type
REMARK                         _______ _______ _______ _____ _____    ______ ____
ROOT
ATOM      1  C   UNL     1       3.927  10.498  -0.882  0.00  0.00    +0.228 C 
ATOM      2  O   UNL     1       5.093  10.226  -0.687  0.00  0.00    -0.275 OA
ATOM      3  N   UNL     1       3.580  11.744  -1.259  0.00  0.00    -0.279 N 
ATOM      4  H   UNL     1       2.648  11.962  -1.414  0.00  0.00    +0.155 HD
ENDROOT
BRANCH   3   5
ATOM      5  C   UNL     1       4.556  12.716  -1.424  0.00  0.00    +0.084 A 
ATOM      6  C   UNL     1       4.398  14.036  -1.808  0.00  0.00    +0.068 A 
ATOM      7  C   UNL     1       5.602  14.861  -1.905  0.00  0.00    -0.023 A 
ATOM      8  C   UNL     1       6.753  14.229  -1.613  0.00  0.00    -0.004 A 
ATOM      9  S   UNL     1       6.267  12.569  -1.209  0.00  0.00    -0.077 S 
ATOM     10  C   UNL     1       7.944  15.140  -1.737  0.00  0.00    +0.043 C 
ATOM     11  C   UNL     1       7.346  16.565  -1.732  0.00  0.00    +0.010 C 
ATOM     12  C   UNL     1       5.924  16.311  -2.270  0.00  0.00    +0.037 C 
BRANCH   6  13
ATOM     13  C   UNL     1       3.072  14.589  -2.103  0.00  0.00    +0.244 C 
ATOM     14  O   UNL     1       2.415  15.099  -1.215  0.00  0.00    -0.270 OA
ATOM     15  N   UNL     1       2.582  14.532  -3.357  0.00  0.00    -0.325 N 
ATOM     16  H   UNL     1       3.107  14.125  -4.065  0.00  0.00    +0.145 HD
ATOM     17  H   UNL     1       1.705  14.897  -3.552  0.00  0.00    +0.145 HD
ENDBRANCH   6  13
ENDBRANCH   3   5
BRANCH   1  18
ATOM     18  C   UNL     1       2.867   9.442  -0.702  0.00  0.00    +0.173 C 
BRANCH  18  19
ATOM     19  S   UNL     1       3.644   7.887  -0.196  0.00  0.00    -0.077 S 
BRANCH  19  23
ATOM     20  C   UNL     1       0.872   5.169   0.263  0.00  0.00    +0.172 A 
ATOM     21  N   UNL     1       0.183   6.228  -0.103  0.00  0.00    -0.128 NA
ATOM     22  N   UNL     1       0.974   7.223  -0.289  0.00  0.00    -0.122 NA
ATOM     23  C   UNL     1       2.217   6.862  -0.062  0.00  0.00    +0.193 A 
ATOM     24  N   UNL     1       2.197   5.543   0.297  0.00  0.00    -0.299 N 
BRANCH  20  27
ATOM     25  C   UNL     1      -1.238   2.143   1.086  0.00  0.00    +0.008 A 
ATOM     26  C   UNL     1      -0.967   3.467   0.825  0.00  0.00    +0.019 A 
ATOM     27  C   UNL     1       0.330   3.836   0.571  0.00  0.00    +0.056 A 
ATOM     28  S   UNL     1       1.190   2.277   0.712  0.00  0.00    -0.094 S 
ATOM     29  C   UNL     1      -0.217   1.247   1.095  0.00  0.00    +0.046 A 
ENDBRANCH  20  27
BRANCH  24  30
ATOM     30  C   UNL     1       3.346   4.702   0.645  0.00  0.00    +0.091 C 
ATOM     31  C   UNL     1       4.658   5.408   0.993  0.00  0.00    +0.027 C 
ATOM     32  C   UNL     1       4.518   4.666  -0.338  0.00  0.00    +0.027 C 
ENDBRANCH  24  30
ENDBRANCH  19  23
ENDBRANCH  18  19
ENDBRANCH   1  18
TORSDOF 7
