REMARK  Name = ZINC19351030
REMARK  12 active torsions:
REMARK  status: ('A' for Active; 'I' for Inactive)
REMARK    1  A    between atoms: C_1  and  C_2
REMARK    2  A    between atoms: C_5  and  C_8
REMARK    3  A    between atoms: N_10  and  C_11
REMARK    4  A    between atoms: C_11  and  C_13
REMARK    5  A    between atoms: C_11  and  C_16
REMARK    6  A    between atoms: C_13  and  C_14
REMARK    7  A    between atoms: C_13  and  C_15
REMARK    8  A    between atoms: C_16  and  O_18
REMARK    9  A    between atoms: O_18  and  C_19
REMARK   10  A    between atoms: C_19  and  C_20
REMARK   11  A    between atoms: N_22  and  C_23
REMARK   12  A    between atoms: C_26  and  N_30
REMARK                            x       y       z     vdW  Elec       q    Type
REMARK                         _______ _______ _______ _____ _____    ______ ____
ROOT
ATOM      1  C   UNL     1      -6.034   1.677  -0.380  0.00  0.00    +0.328 C 
ATOM      2  O   UNL     1      -6.202   2.874  -0.386  0.00  0.00    -0.249 OA
ENDROOT
BRANCH   1   3
ATOM      3  C   UNL     1      -7.217   0.749  -0.483  0.00  0.00    +0.185 C 
BRANCH   3   6
ATOM      4  C   UNL     1      -9.622   1.004  -0.185  0.00  0.00    +0.245 C 
ATOM      5  O   UNL     1      -9.658  -0.130   0.251  0.00  0.00    -0.270 OA
ATOM      6  N   UNL     1      -8.448   1.537  -0.580  0.00  0.00    -0.298 N 
ATOM      7  H   UNL     1      -8.415   2.563  -0.975  0.00  0.00    +0.150 HD
BRANCH   4  12
ATOM      8  C   UNL     1     -14.459   4.098  -0.564  0.00  0.00    +0.044 C 
ATOM      9  C   UNL     1     -13.192   3.287  -0.465  0.00  0.00    -0.050 A 
ATOM     10  C   UNL     1     -13.237   1.997   0.031  0.00  0.00    +0.004 A 
ATOM     11  C   UNL     1     -12.081   1.250   0.125  0.00  0.00    +0.013 A 
ATOM     12  C   UNL     1     -10.864   1.798  -0.283  0.00  0.00    +0.037 A 
ATOM     13  C   UNL     1     -10.825   3.103  -0.778  0.00  0.00    +0.013 A 
ATOM     14  C   UNL     1     -11.989   3.837  -0.871  0.00  0.00    +0.004 A 
ENDBRANCH   4  12
ENDBRANCH   3   6
BRANCH   3  15
ATOM     15  C   UNL     1      -7.071  -0.125  -1.730  0.00  0.00    +0.014 C 
ATOM     16  C   UNL     1      -5.785  -0.947  -1.629  0.00  0.00    +0.009 C 
ATOM     17  C   UNL     1      -8.272  -1.067  -1.836  0.00  0.00    +0.009 C 
ENDBRANCH   3  15
ENDBRANCH   1   3
BRANCH   1  18
ATOM     18  O   UNL     1      -4.793   1.175  -0.280  0.00  0.00    -0.454 OA
BRANCH  18  19
ATOM     19  C   UNL     1      -3.702   2.128  -0.184  0.00  0.00    +0.328 C 
BRANCH  19  20
ATOM     20  C   UNL     1      -2.394   1.385  -0.081  0.00  0.00    +0.255 C 
ATOM     21  O   UNL     1      -2.384   0.173  -0.088  0.00  0.00    -0.272 OA
ATOM     22  N   UNL     1      -1.237   2.069   0.019  0.00  0.00    -0.282 N 
ATOM     23  H   UNL     1      -1.252   3.165   0.117  0.00  0.00    +0.155 HD
BRANCH  22  24
ATOM     24  C   UNL     1      -0.016   1.385  -0.001  0.00  0.00    +0.048 A 
ATOM     25  C   UNL     1       0.076   0.144  -0.617  0.00  0.00    +0.026 A 
ATOM     26  C   UNL     1       1.283  -0.526  -0.640  0.00  0.00    +0.034 A 
ATOM     27  C   UNL     1       2.401   0.038  -0.052  0.00  0.00    +0.127 A 
ATOM     28  C   UNL     1       2.313   1.274   0.561  0.00  0.00    +0.049 A 
ATOM     29  C   UNL     1       1.108   1.950   0.589  0.00  0.00    +0.041 A 
ATOM     30 BR   UNL     1       0.989   3.640   1.428  0.00  0.00    -0.048 Br
BRANCH  27  31
ATOM     31  N   UNL     1       3.693  -0.682  -0.080  0.00  0.00    +0.056 N 
ATOM     32  O   UNL     1       3.772  -1.771  -0.620  0.00  0.00    -0.126 OA
ATOM     33  O   UNL     1       4.678  -0.187   0.437  0.00  0.00    -0.126 OA
ENDBRANCH  27  31
ENDBRANCH  22  24
ENDBRANCH  19  20
ENDBRANCH  18  19
ENDBRANCH   1  18
TORSDOF 9
