REMARK  Name = ZINC45852429
REMARK  8 active torsions:
REMARK  status: ('A' for Active; 'I' for Inactive)
REMARK    1  A    between atoms: C_1  and  C_2
REMARK    2  A    between atoms: C_5  and  C_8
REMARK    3  A    between atoms: C_10  and  C_13
REMARK    4  A    between atoms: C_13  and  O_14
REMARK    5  A    between atoms: O_14  and  C_15
REMARK    6  A    between atoms: C_15  and  C_17
REMARK    7  A    between atoms: C_17  and  N_18
REMARK    8  A    between atoms: C_26  and  C_28
REMARK                            x       y       z     vdW  Elec       q    Type
REMARK                         _______ _______ _______ _____ _____    ______ ____
ROOT
ATOM      1  C   UNL     1      -1.404  -8.933   2.713  0.00  0.00    +0.326 C 
ATOM      2  O   UNL     1      -0.439  -9.499   3.168  0.00  0.00    -0.249 OA
ENDROOT
BRANCH   1   3
ATOM      3  O   UNL     1      -1.242  -7.885   1.890  0.00  0.00    -0.455 OA
BRANCH   3   4
ATOM      4  C   UNL     1       0.100  -7.494   1.595  0.00  0.00    +0.311 C 
BRANCH   4   7
ATOM      5  C   UNL     1       0.058  -4.251  -0.021  0.00  0.00    +0.259 A 
ATOM      6  N   UNL     1       0.068  -5.029   1.038  0.00  0.00    -0.188 NA
ATOM      7  C   UNL     1       0.085  -6.310   0.662  0.00  0.00    +0.209 A 
ATOM      8  N   UNL     1       0.086  -6.373  -0.639  0.00  0.00    -0.057 NA
ATOM      9  O   UNL     1       0.062  -5.035  -1.113  0.00  0.00    -0.333 OA
BRANCH   5  14
ATOM     10  C   UNL     1      -0.018   1.503   0.010  0.00  0.00    +0.044 C 
ATOM     11  C   UNL     1       0.002  -0.004   0.002  0.00  0.00    -0.050 A 
ATOM     12  C   UNL     1       0.006  -0.686  -1.202  0.00  0.00    +0.004 A 
ATOM     13  C   UNL     1       0.024  -2.066  -1.216  0.00  0.00    +0.013 A 
ATOM     14  C   UNL     1       0.039  -2.773  -0.013  0.00  0.00    +0.039 A 
ATOM     15  C   UNL     1       0.036  -2.079   1.198  0.00  0.00    +0.013 A 
ATOM     16  C   UNL     1       0.023  -0.699   1.198  0.00  0.00    +0.004 A 
ENDBRANCH   5  14
ENDBRANCH   4   7
ENDBRANCH   3   4
ENDBRANCH   1   3
BRANCH   1  17
ATOM     17  C   UNL     1      -2.791  -9.403   3.070  0.00  0.00    +0.238 C 
BRANCH  17  18
ATOM     18  N   UNL     1      -2.699 -10.552   3.975  0.00  0.00    -0.213 N 
ATOM     19  C   UNL     1      -2.638 -11.836   3.567  0.00  0.00    +0.247 C 
ATOM     20  O   UNL     1      -2.647 -12.245   2.425  0.00  0.00    -0.273 OA
ATOM     21  C   UNL     1      -2.554 -12.658   4.832  0.00  0.00    +0.115 C 
ATOM     22  C   UNL     1      -1.250 -13.449   4.867  0.00  0.00    +0.035 C 
ATOM     23  C   UNL     1      -1.171 -14.250   6.169  0.00  0.00    +0.003 C 
ATOM     24  C   UNL     1      -2.367 -15.201   6.255  0.00  0.00    +0.000 C 
ATOM     25  C   UNL     1      -3.666 -14.392   6.242  0.00  0.00    +0.006 C 
ATOM     26  C   UNL     1      -3.754 -13.592   4.940  0.00  0.00    +0.018 C 
ATOM     27  C   UNL     1      -5.043 -12.767   4.936  0.00  0.00    +0.010 C 
ATOM     28  N   UNL     1      -2.579 -11.660   5.909  0.00  0.00    -0.285 N 
ATOM     29  C   UNL     1      -2.660 -10.456   5.310  0.00  0.00    +0.310 C 
ATOM     30  O   UNL     1      -2.697  -9.402   5.913  0.00  0.00    -0.252 OA
ATOM     31  H   UNL     1      -2.542 -11.832   6.862  0.00  0.00    +0.151 HD
ENDBRANCH  17  18
ENDBRANCH   1  17
TORSDOF 6
