REMARK  Name = ZINC67420291
REMARK  8 active torsions:
REMARK  status: ('A' for Active; 'I' for Inactive)
REMARK    1  A    between atoms: C_1  and  C_2
REMARK    2  A    between atoms: C_2  and  N_3
REMARK    3  A    between atoms: N_3  and  C_4
REMARK    4  A    between atoms: C_4  and  C_6
REMARK    5  A    between atoms: C_4  and  C_7
REMARK    6  A    between atoms: C_16  and  C_18
REMARK    7  A    between atoms: N_20  and  C_21
REMARK    8  A    between atoms: C_23  and  N_28
REMARK                            x       y       z     vdW  Elec       q    Type
REMARK                         _______ _______ _______ _____ _____    ______ ____
ROOT
ATOM      1  N   UNL     1      -1.292  -0.224  -0.224  0.00  0.00    -0.284 N 
ATOM      2  C   UNL     1      -1.899  -0.367   0.971  0.00  0.00    +0.302 C 
ATOM      3  O   UNL     1      -3.051  -0.744   1.025  0.00  0.00    -0.265 OA
ENDROOT
BRANCH   2   4
ATOM      4  C   UNL     1      -1.153  -0.062   2.229  0.00  0.00    +0.303 C 
ATOM      5  O   UNL     1      -0.012   0.349   2.173  0.00  0.00    -0.265 OA
ATOM      6  N   UNL     1      -1.747  -0.243   3.425  0.00  0.00    -0.275 N 
ATOM      7  H   UNL     1      -2.636  -0.627   3.472  0.00  0.00    +0.155 HD
BRANCH   6   8
ATOM      8  C   UNL     1      -1.080   0.122   4.599  0.00  0.00    +0.072 A 
ATOM      9  C   UNL     1      -0.202   1.198   4.594  0.00  0.00    +0.059 A 
ATOM     10  C   UNL     1       0.455   1.556   5.755  0.00  0.00    +0.128 A 
ATOM     11  C   UNL     1       0.240   0.846   6.922  0.00  0.00    +0.035 A 
ATOM     12  C   UNL     1      -0.634  -0.226   6.932  0.00  0.00    +0.042 A 
ATOM     13  C   UNL     1      -1.300  -0.587   5.775  0.00  0.00    +0.145 A 
ATOM     14  F   UNL     1      -2.159  -1.630   5.786  0.00  0.00    -0.204 F 
BRANCH  10  15
ATOM     15  N   UNL     1       1.392   2.702   5.750  0.00  0.00    +0.056 N 
ATOM     16  O   UNL     1       1.582   3.323   4.731  0.00  0.00    -0.126 OA
ATOM     17  O   UNL     1       1.968   3.016   6.766  0.00  0.00    -0.126 OA
ENDBRANCH  10  15
ENDBRANCH   6   8
ENDBRANCH   2   4
BRANCH   1  19
ATOM     18  C   UNL     1       1.085  -0.769  -0.037  0.00  0.00    +0.024 C 
ATOM     19  C   UNL     1       0.059   0.337  -0.296  0.00  0.00    +0.105 C 
ENDBRANCH   1  19
BRANCH   1  20
ATOM     20  C   UNL     1      -1.984  -0.629  -1.450  0.00  0.00    +0.139 C 
ATOM     21  C   UNL     1      -1.162  -1.700  -2.169  0.00  0.00    +0.036 C 
BRANCH  20  22
ATOM     22  C   UNL     1      -2.150   0.567  -2.352  0.00  0.00    +0.126 A 
ATOM     23  C   UNL     1      -3.285   0.903  -2.979  0.00  0.00    +0.055 A 
ATOM     24  C   UNL     1      -2.987   2.124  -3.738  0.00  0.00    +0.020 A 
ATOM     25  C   UNL     1      -3.727   2.954  -4.579  0.00  0.00    +0.011 A 
ATOM     26  C   UNL     1      -3.132   4.047  -5.146  0.00  0.00    +0.001 A 
ATOM     27  C   UNL     1      -1.799   4.333  -4.891  0.00  0.00    +0.004 A 
ATOM     28  C   UNL     1      -1.052   3.524  -4.062  0.00  0.00    +0.047 A 
ATOM     29  C   UNL     1      -1.637   2.409  -3.475  0.00  0.00    +0.135 A 
ATOM     30  O   UNL     1      -1.181   1.455  -2.638  0.00  0.00    -0.458 OA
ENDBRANCH  20  22
ENDBRANCH   1  20
TORSDOF 6
