REMARK  Name = ZINC13567629
REMARK  5 active torsions:
REMARK  status: ('A' for Active; 'I' for Inactive)
REMARK    1  A    between atoms: C_2  and  C_3
REMARK    2  A    between atoms: C_3  and  N_4
REMARK    3  A    between atoms: C_14  and  C_32
REMARK    4  A    between atoms: C_15  and  N_31
REMARK    5  A    between atoms: N_16  and  C_24
REMARK                            x       y       z     vdW  Elec       q    Type
REMARK                         _______ _______ _______ _____ _____    ______ ____
ROOT
ATOM      1  N   UNL     1      -3.327   3.598   0.393  0.00  0.00    -0.266 N 
ATOM      2  C   UNL     1      -2.082   3.373   0.953  0.00  0.00    +0.041 A 
ATOM      3  C   UNL     1      -1.166   4.287   1.475  0.00  0.00    +0.024 A 
ATOM      4  C   UNL     1       0.021   3.778   1.978  0.00  0.00    +0.002 A 
ATOM      5  C   UNL     1       0.298   2.426   1.971  0.00  0.00    +0.000 A 
ATOM      6  C   UNL     1      -0.607   1.505   1.455  0.00  0.00    +0.007 A 
ATOM      7  C   UNL     1      -1.786   2.005   0.947  0.00  0.00    -0.001 A 
ATOM      8  C   UNL     1      -2.967   1.321   0.329  0.00  0.00    +0.141 C 
ATOM      9  C   UNL     1      -3.920   2.453  -0.001  0.00  0.00    +0.240 C 
ATOM     10  O   UNL     1      -5.010   2.348  -0.522  0.00  0.00    -0.274 OA
ATOM     11  C   UNL     1      -2.568   0.605  -0.927  0.00  0.00    +0.089 C 
ATOM     12  C   UNL     1      -2.468  -0.750  -0.956  0.00  0.00    +0.108 C 
ATOM     13  N   UNL     1      -2.740  -1.487   0.174  0.00  0.00    -0.260 N 
ATOM     14  C   UNL     1      -3.471  -0.951   1.201  0.00  0.00    +0.025 C 
ATOM     15  C   UNL     1      -3.617   0.387   1.317  0.00  0.00    +0.037 C 
ATOM     16  C   UNL     1      -4.377   0.946   2.358  0.00  0.00    +0.162 C 
ATOM     17  O   UNL     1      -4.481   2.154   2.438  0.00  0.00    -0.292 OA
ATOM     18  C   UNL     1      -5.064   0.077   3.376  0.00  0.00    +0.080 C 
ATOM     19  C   UNL     1      -5.399  -1.274   2.734  0.00  0.00    +0.014 C 
ATOM     20  C   UNL     1      -4.104  -1.890   2.197  0.00  0.00    +0.052 C 
ENDROOT
BRANCH  13  21
ATOM     21  C   UNL     1      -2.263  -2.799   0.276  0.00  0.00    +0.040 A 
ATOM     22  C   UNL     1      -3.014  -3.853  -0.228  0.00  0.00    +0.025 A 
ATOM     23  C   UNL     1      -2.538  -5.146  -0.130  0.00  0.00    +0.022 A 
ATOM     24  C   UNL     1      -1.320  -5.393   0.477  0.00  0.00    +0.041 A 
ATOM     25  C   UNL     1      -0.572  -4.345   0.985  0.00  0.00    +0.022 A 
ATOM     26  C   UNL     1      -1.040  -3.050   0.885  0.00  0.00    +0.025 A 
ATOM     27 CL   UNL     1      -0.728  -7.021   0.604  0.00  0.00    -0.084 Cl
ENDBRANCH  13  21
BRANCH  12  28
ATOM     28  N   UNL     1      -2.094  -1.385  -2.116  0.00  0.00    -0.345 N 
ATOM     29  H   UNL     1      -1.812  -0.865  -2.885  0.00  0.00    +0.144 HD
ATOM     30  H   UNL     1      -2.113  -2.353  -2.167  0.00  0.00    +0.144 HD
ENDBRANCH  12  28
BRANCH  11  31
ATOM     31  C   UNL     1      -2.290   1.360  -2.111  0.00  0.00    +0.100 C 
ATOM     32  N   UNL     1      -2.069   1.959  -3.051  0.00  0.00    -0.191 NA
ENDBRANCH  11  31
BRANCH   1  33
ATOM     33  C   UNL     1      -3.931   4.925   0.247  0.00  0.00    +0.140 C 
BRANCH  33  35
ATOM     34  C   UNL     1      -4.462   5.917  -1.920  0.00  0.00    +0.005 C 
ATOM     35  C   UNL     1      -3.538   5.511  -1.085  0.00  0.00    -0.015 C 
ENDBRANCH  33  35
ENDBRANCH   1  33
TORSDOF 5
