REMARK  Name = ZINC34705135
REMARK  8 active torsions:
REMARK  status: ('A' for Active; 'I' for Inactive)
REMARK    1  A    between atoms: C_1  and  C_2
REMARK    2  A    between atoms: C_2  and  C_3
REMARK    3  A    between atoms: C_3  and  C_5
REMARK    4  A    between atoms: C_3  and  C_6
REMARK    5  A    between atoms: C_6  and  C_8
REMARK    6  A    between atoms: C_6  and  N_25
REMARK    7  A    between atoms: C_14  and  C_16
REMARK    8  A    between atoms: C_26  and  C_28
REMARK                            x       y       z     vdW  Elec       q    Type
REMARK                         _______ _______ _______ _____ _____    ______ ____
ROOT
ATOM      1  C   UNL     1      -0.790  -2.456   1.371  0.00  0.00    +0.239 C 
ATOM      2  O   UNL     1      -1.262  -3.161   0.503  0.00  0.00    -0.273 OA
ATOM      3  N   UNL     1      -1.560  -2.048   2.399  0.00  0.00    -0.262 N 
ATOM      4  C   UNL     1      -2.893  -2.434   2.465  0.00  0.00    +0.188 A 
ATOM      5  N   UNL     1      -3.603  -3.194   1.641  0.00  0.00    -0.125 NA
ATOM      6  N   UNL     1      -4.819  -3.451   1.852  0.00  0.00    -0.140 NA
ATOM      7  C   UNL     1      -5.463  -2.975   2.910  0.00  0.00    +0.134 A 
ATOM      8  S   UNL     1      -4.142  -2.053   3.691  0.00  0.00    -0.030 S 
ATOM      9  H   UNL     1      -1.183  -1.484   3.093  0.00  0.00    +0.157 HD
ENDROOT
BRANCH   7  10
ATOM     10  C   UNL     1      -6.869  -3.158   3.329  0.00  0.00    +0.013 A 
ATOM     11  C   UNL     1      -7.338  -2.549   4.494  0.00  0.00    +0.014 A 
ATOM     12  C   UNL     1      -8.650  -2.720   4.882  0.00  0.00    +0.050 A 
ATOM     13  C   UNL     1      -9.508  -3.497   4.118  0.00  0.00    +0.166 A 
ATOM     14  C   UNL     1      -9.046  -4.109   2.953  0.00  0.00    +0.167 A 
ATOM     15  C   UNL     1      -7.733  -3.936   2.556  0.00  0.00    +0.060 A 
ATOM     16  O   UNL     1     -10.075  -4.809   2.391  0.00  0.00    -0.453 OA
ATOM     17  C   UNL     1     -11.056  -4.955   3.435  0.00  0.00    +0.466 C 
ATOM     18  O   UNL     1     -10.825  -3.816   4.284  0.00  0.00    -0.453 OA
ENDBRANCH   7  10
BRANCH   1  19
ATOM     19  C   UNL     1       0.655  -2.037   1.299  0.00  0.00    +0.162 C 
BRANCH  19  20
ATOM     20  N   UNL     1       1.270  -2.607   0.097  0.00  0.00    -0.297 N 
ATOM     21  C   UNL     1       2.601  -2.813   0.053  0.00  0.00    +0.280 C 
ATOM     22  O   UNL     1       3.292  -2.526   1.012  0.00  0.00    -0.267 OA
ATOM     23  H   UNL     1       0.718  -2.835  -0.668  0.00  0.00    +0.150 HD
BRANCH  21  24
ATOM     24  C   UNL     1       3.215  -3.383  -1.151  0.00  0.00    +0.189 A 
ATOM     25  C   UNL     1       4.544  -3.647  -1.325  0.00  0.00    +0.054 A 
ATOM     26  C   UNL     1       4.683  -4.183  -2.615  0.00  0.00    +0.042 A 
ATOM     27  C   UNL     1       3.449  -4.221  -3.164  0.00  0.00    +0.196 A 
ATOM     28  O   UNL     1       2.567  -3.743  -2.277  0.00  0.00    -0.458 OA
ENDBRANCH  21  24
ENDBRANCH  19  20
BRANCH  19  29
ATOM     29  C   UNL     1       0.742  -0.511   1.242  0.00  0.00    +0.015 C 
ATOM     30  C   UNL     1       2.210  -0.086   1.169  0.00  0.00    +0.010 C 
BRANCH  29  32
ATOM     31  C   UNL     1      -0.019   1.526   0.010  0.00  0.00    +0.004 C 
ATOM     32  C   UNL     1       0.002  -0.004   0.002  0.00  0.00    +0.002 C 
ENDBRANCH  29  32
ENDBRANCH  19  29
ENDBRANCH   1  19
TORSDOF 6
