REMARK  Name = ZINC05344742
REMARK  10 active torsions:
REMARK  status: ('A' for Active; 'I' for Inactive)
REMARK    1  A    between atoms: C_1  and  C_2
REMARK    2  A    between atoms: C_5  and  S_8
REMARK    3  A    between atoms: S_8  and  N_11
REMARK    4  A    between atoms: N_11  and  C_12
REMARK    5  A    between atoms: C_15  and  C_18
REMARK    6  A    between atoms: N_20  and  N_21
REMARK    7  A    between atoms: C_22  and  C_23
REMARK    8  A    between atoms: C_26  and  C_29
REMARK    9  A    between atoms: C_29  and  O_31
REMARK   10  A    between atoms: O_31  and  C_32
REMARK                            x       y       z     vdW  Elec       q    Type
REMARK                         _______ _______ _______ _____ _____    ______ ____
ROOT
ATOM      1  C   UNL     1      -9.977   9.386   0.120  0.00  0.00    +0.048 A 
ATOM      2  C   UNL     1      -8.771  10.080   0.193  0.00  0.00    +0.025 A 
ATOM      3  C   UNL     1      -7.580   9.391   0.207  0.00  0.00    +0.015 A 
ATOM      4  C   UNL     1      -7.581   7.994   0.150  0.00  0.00    +0.038 A 
ATOM      5  C   UNL     1      -8.793   7.301   0.072  0.00  0.00    +0.015 A 
ATOM      6  C   UNL     1      -9.981   7.995   0.062  0.00  0.00    +0.025 A 
ENDROOT
BRANCH   4   7
ATOM      7  C   UNL     1      -6.306   7.253   0.165  0.00  0.00    +0.263 C 
ATOM      8  O   UNL     1      -5.252   7.858   0.228  0.00  0.00    -0.268 OA
ATOM      9  N   UNL     1      -6.308   5.907   0.109  0.00  0.00    -0.203 N 
ATOM     10  H   UNL     1      -7.149   5.425   0.059  0.00  0.00    +0.178 HD
BRANCH   9  11
ATOM     11  N   UNL     1      -5.097   5.203   0.124  0.00  0.00    -0.187 NA
ATOM     12  C   UNL     1      -5.099   3.905   0.070  0.00  0.00    +0.138 C 
BRANCH  12  13
ATOM     13  C   UNL     1      -3.826   3.165   0.085  0.00  0.00    -0.005 A 
ATOM     14  C   UNL     1      -3.828   1.768   0.028  0.00  0.00    +0.010 A 
ATOM     15  C   UNL     1      -2.647   1.082   0.041  0.00  0.00    +0.015 A 
ATOM     16  C   UNL     1      -1.436   1.777   0.113  0.00  0.00    +0.059 A 
ATOM     17  C   UNL     1      -1.433   3.174   0.176  0.00  0.00    +0.015 A 
ATOM     18  C   UNL     1      -2.614   3.860   0.157  0.00  0.00    +0.010 A 
BRANCH  16  19
ATOM     19  C   UNL     1      -0.160   1.036   0.128  0.00  0.00    +0.339 C 
ATOM     20  O   UNL     1      -0.162  -0.178   0.077  0.00  0.00    -0.245 OA
BRANCH  19  21
ATOM     21  O   UNL     1       1.008   1.705   0.191  0.00  0.00    -0.464 OA
ATOM     22  C   UNL     1       2.223   0.911   0.195  0.00  0.00    +0.280 C 
ENDBRANCH  19  21
ENDBRANCH  16  19
ENDBRANCH  12  13
ENDBRANCH   9  11
ENDBRANCH   4   7
BRANCH   1  23
ATOM     23  N   UNL     1     -11.179  10.085   0.106  0.00  0.00    -0.216 N 
ATOM     24  H   UNL     1     -11.329  10.806   0.738  0.00  0.00    +0.174 HD
BRANCH  23  25
ATOM     25  S   UNL     1     -12.354   9.687  -0.991  0.00  0.00    +0.072 S 
ATOM     26  O   UNL     1     -12.569   8.288  -0.866  0.00  0.00    -0.150 OA
ATOM     27  O   UNL     1     -13.400  10.635  -0.827  0.00  0.00    -0.150 OA
BRANCH  25  32
ATOM     28  C   UNL     1     -10.047  10.596  -6.491  0.00  0.00    +0.044 C 
ATOM     29  C   UNL     1     -10.624  10.369  -5.117  0.00  0.00    -0.050 A 
ATOM     30  C   UNL     1     -10.582   9.109  -4.550  0.00  0.00    +0.005 A 
ATOM     31  C   UNL     1     -11.111   8.901  -3.290  0.00  0.00    +0.029 A 
ATOM     32  C   UNL     1     -11.681   9.952  -2.597  0.00  0.00    +0.109 A 
ATOM     33  C   UNL     1     -11.727  11.211  -3.166  0.00  0.00    +0.029 A 
ATOM     34  C   UNL     1     -11.194  11.420  -4.425  0.00  0.00    +0.005 A 
ENDBRANCH  25  32
ENDBRANCH  23  25
ENDBRANCH   1  23
TORSDOF 8
