REMARK  Name = ZINC29872300
REMARK  6 active torsions:
REMARK  status: ('A' for Active; 'I' for Inactive)
REMARK    1  A    between atoms: C_4  and  C_7
REMARK    2  A    between atoms: C_7  and  N_8
REMARK    3  A    between atoms: C_10  and  C_18
REMARK    4  A    between atoms: C_11  and  C_13
REMARK    5  A    between atoms: C_23  and  C_26
REMARK    6  A    between atoms: C_28  and  C_32
REMARK                            x       y       z     vdW  Elec       q    Type
REMARK                         _______ _______ _______ _____ _____    ______ ____
ROOT
ATOM      1  C   UNL     1       3.842   6.290  -4.180  0.00  0.00    +0.253 C 
ATOM      2  O   UNL     1       4.127   6.000  -5.326  0.00  0.00    -0.270 OA
ATOM      3  N   UNL     1       3.867   7.579  -3.784  0.00  0.00    -0.261 N 
ATOM      4  C   UNL     1       4.218   8.575  -4.686  0.00  0.00    +0.165 A 
ATOM      5  N   UNL     1       4.299   9.875  -4.490  0.00  0.00    -0.225 NA
ATOM      6  C   UNL     1       4.653  10.696  -5.468  0.00  0.00    +0.082 A 
ATOM      7  C   UNL     1       4.933  10.156  -6.690  0.00  0.00    +0.077 A 
ATOM      8  S   UNL     1       4.668   8.421  -6.356  0.00  0.00    -0.060 S 
ATOM      9  H   UNL     1       3.610   7.841  -2.748  0.00  0.00    +0.157 HD
ENDROOT
BRANCH   6  10
ATOM     10  C   UNL     1       4.742  12.162  -5.241  0.00  0.00    +0.019 A 
ATOM     11  C   UNL     1       4.570  12.825  -4.012  0.00  0.00    +0.042 A 
ATOM     12  C   UNL     1       4.738  14.162  -4.247  0.00  0.00    +0.102 A 
ATOM     13  N   UNL     1       4.998  14.327  -5.589  0.00  0.00    -0.356 N 
ATOM     14  H   UNL     1       5.162  15.335  -5.997  0.00  0.00    +0.165 HD
ATOM     15  C   UNL     1       4.999  13.111  -6.188  0.00  0.00    +0.093 A 
BRANCH  12  16
ATOM     16  C   UNL     1       4.650  15.231  -3.247  0.00  0.00    +0.258 C 
ATOM     17  O   UNL     1       4.414  14.960  -2.085  0.00  0.00    -0.269 OA
ATOM     18  N   UNL     1       4.831  16.515  -3.616  0.00  0.00    -0.324 N 
ATOM     19  H   UNL     1       4.766  17.317  -2.866  0.00  0.00    +0.145 HD
ATOM     20  H   UNL     1       5.045  16.760  -4.667  0.00  0.00    +0.145 HD
ENDBRANCH  12  16
ENDBRANCH   6  10
BRANCH   1  23
ATOM     21  N   UNL     1       2.858   4.194  -1.384  0.00  0.00    -0.266 N 
ATOM     22  C   UNL     1       3.119   5.404  -1.900  0.00  0.00    +0.122 A 
ATOM     23  C   UNL     1       3.471   5.235  -3.224  0.00  0.00    +0.083 A 
ATOM     24  C   UNL     1       3.395   3.793  -3.491  0.00  0.00    +0.111 A 
ATOM     25  N   UNL     1       3.026   3.215  -2.368  0.00  0.00    -0.170 NA
BRANCH  24  26
ATOM     26  C   UNL     1       3.677   3.121  -4.775  0.00  0.00    +0.040 A 
ATOM     27  C   UNL     1       4.253   1.899  -5.001  0.00  0.00    +0.018 A 
ATOM     28  C   UNL     1       4.412   1.472  -6.301  0.00  0.00    +0.008 A 
ATOM     29  C   UNL     1       4.006   2.278  -7.316  0.00  0.00    +0.046 A 
ATOM     30  S   UNL     1       3.364   3.693  -6.437  0.00  0.00    -0.095 S 
ENDBRANCH  24  26
BRANCH  21  31
ATOM     31  C   UNL     1       2.451   3.937  -0.001  0.00  0.00    +0.178 C 
BRANCH  31  35
ATOM     32  C   UNL     1      -1.219   1.751   0.017  0.00  0.00    +0.000 A 
ATOM     33  C   UNL     1      -0.013   1.076   0.008  0.00  0.00    +0.000 A 
ATOM     34  C   UNL     1       1.175   1.783   0.000  0.00  0.00    +0.005 A 
ATOM     35  C   UNL     1       1.156   3.165   0.008  0.00  0.00    -0.026 A 
ATOM     36  C   UNL     1      -0.050   3.840   0.023  0.00  0.00    +0.005 A 
ATOM     37  C   UNL     1      -1.238   3.133   0.030  0.00  0.00    +0.000 A 
ENDBRANCH  31  35
ENDBRANCH  21  31
ENDBRANCH   1  23
TORSDOF 6
