REMARK  Name = ZINC26443490
REMARK  9 active torsions:
REMARK  status: ('A' for Active; 'I' for Inactive)
REMARK    1  A    between atoms: C_1  and  C_2
REMARK    2  A    between atoms: C_2  and  C_4
REMARK    3  A    between atoms: C_2  and  O_16
REMARK    4  A    between atoms: N_6  and  C_7
REMARK    5  A    between atoms: O_16  and  C_17
REMARK    6  A    between atoms: C_17  and  C_19
REMARK    7  A    between atoms: C_23  and  O_25
REMARK    8  A    between atoms: O_25  and  C_26
REMARK    9  A    between atoms: C_26  and  C_27
REMARK                            x       y       z     vdW  Elec       q    Type
REMARK                         _______ _______ _______ _____ _____    ______ ____
ROOT
ATOM      1  O   UNL     1      -3.618   1.679   0.002  0.00  0.00    -0.449 OA
ENDROOT
BRANCH   1   3
ATOM      2  C   UNL     1      -2.520   0.101   1.496  0.00  0.00    +0.062 C 
ATOM      3  C   UNL     1      -2.475   0.793   0.133  0.00  0.00    +0.259 C 
BRANCH   3   4
ATOM      4  C   UNL     1      -1.204   1.593   0.017  0.00  0.00    +0.258 C 
ATOM      5  O   UNL     1      -1.254   2.802  -0.067  0.00  0.00    -0.271 OA
ATOM      6  N   UNL     1      -0.011   0.966   0.007  0.00  0.00    -0.282 N 
ATOM      7  H   UNL     1       0.032  -0.133   0.011  0.00  0.00    +0.155 HD
BRANCH   6   8
ATOM      8  C   UNL     1       1.174   1.713  -0.008  0.00  0.00    +0.037 A 
ATOM      9  C   UNL     1       1.230   2.911  -0.708  0.00  0.00    +0.027 A 
ATOM     10  C   UNL     1       2.397   3.652  -0.720  0.00  0.00    +0.051 A 
ATOM     11  C   UNL     1       3.516   3.197  -0.041  0.00  0.00    +0.166 A 
ATOM     12  C   UNL     1       3.464   1.994   0.658  0.00  0.00    +0.168 A 
ATOM     13  C   UNL     1       2.293   1.254   0.673  0.00  0.00    +0.072 A 
ATOM     14  O   UNL     1       4.681   1.770   1.234  0.00  0.00    -0.453 OA
ATOM     15  C   UNL     1       5.598   2.641   0.545  0.00  0.00    +0.466 C 
ATOM     16  O   UNL     1       4.767   3.728   0.097  0.00  0.00    -0.453 OA
ENDBRANCH   6   8
ENDBRANCH   3   4
ENDBRANCH   1   3
BRANCH   1  17
ATOM     17  C   UNL     1      -4.740   1.156  -0.530  0.00  0.00    +0.340 C 
ATOM     18  O   UNL     1      -4.763  -0.009  -0.874  0.00  0.00    -0.245 OA
BRANCH  17  19
ATOM     19  C   UNL     1      -5.943   1.998  -0.693  0.00  0.00    +0.062 A 
ATOM     20  C   UNL     1      -5.921   3.336  -0.292  0.00  0.00    +0.015 A 
ATOM     21  C   UNL     1      -7.045   4.121  -0.452  0.00  0.00    +0.004 A 
ATOM     22  C   UNL     1      -8.197   3.584  -0.997  0.00  0.00    +0.046 A 
ATOM     23  C   UNL     1      -8.230   2.254  -1.393  0.00  0.00    +0.121 A 
ATOM     24  C   UNL     1      -7.106   1.459  -1.243  0.00  0.00    +0.060 A 
BRANCH  23  25
ATOM     25  O   UNL     1      -9.365   1.733  -1.928  0.00  0.00    -0.489 OA
BRANCH  25  26
ATOM     26  C   UNL     1     -10.486   2.611  -2.053  0.00  0.00    +0.260 C 
BRANCH  26  27
ATOM     27  C   UNL     1     -11.662   1.851  -2.671  0.00  0.00    +0.156 C 
ATOM     28  C   UNL     1     -12.844   2.811  -2.932  0.00  0.00    +0.037 C 
ATOM     29  C   UNL     1     -14.094   1.963  -2.606  0.00  0.00    +0.031 C 
ATOM     30  C   UNL     1     -13.519   0.592  -2.188  0.00  0.00    +0.160 C 
ATOM     31  O   UNL     1     -12.176   0.876  -1.738  0.00  0.00    -0.373 OA
ENDBRANCH  26  27
ENDBRANCH  25  26
ENDBRANCH  23  25
ENDBRANCH  17  19
ENDBRANCH   1  17
TORSDOF 8
