REMARK  Name = ZINC33256729
REMARK  12 active torsions:
REMARK  status: ('A' for Active; 'I' for Inactive)
REMARK    1  A    between atoms: C_1  and  C_2
REMARK    2  A    between atoms: C_2  and  C_3
REMARK    3  A    between atoms: C_3  and  C_5
REMARK    4  A    between atoms: C_3  and  N_6
REMARK    5  A    between atoms: C_7  and  C_9
REMARK    6  A    between atoms: C_19  and  S_20
REMARK    7  A    between atoms: S_20  and  C_21
REMARK    8  A    between atoms: C_21  and  C_22
REMARK    9  A    between atoms: N_25  and  C_28
REMARK   10  A    between atoms: C_28  and  C_29
REMARK   11  A    between atoms: C_29  and  C_30
REMARK   12  A    between atoms: C_29  and  C_31
REMARK                            x       y       z     vdW  Elec       q    Type
REMARK                         _______ _______ _______ _____ _____    ______ ____
ROOT
ATOM      1  C   UNL     1       0.204   1.106   4.840  0.00  0.00    +0.039 A 
ATOM      2  C   UNL     1       1.580   0.888   4.731  0.00  0.00    +0.014 A 
ATOM      3  C   UNL     1       2.314   0.527   5.840  0.00  0.00    +0.016 A 
ATOM      4  C   UNL     1       1.680   0.380   7.073  0.00  0.00    +0.064 A 
ATOM      5  C   UNL     1       0.299   0.598   7.187  0.00  0.00    +0.065 A 
ATOM      6  C   UNL     1      -0.435   0.966   6.070  0.00  0.00    +0.040 A 
ATOM      7  N   UNL     1      -0.317   0.447   8.428  0.00  0.00    -0.256 N 
ATOM      8  C   UNL     1       0.414   0.089   9.528  0.00  0.00    +0.240 A 
ATOM      9  N   UNL     1      -0.409   0.018  10.551  0.00  0.00    -0.109 NA
ATOM     10  N   UNL     1      -1.694   0.338  10.099  0.00  0.00    -0.120 NA
ATOM     11  C   UNL     1      -1.621   0.594   8.815  0.00  0.00    +0.198 A 
ATOM     12  N   UNL     1       1.780  -0.134   9.449  0.00  0.00    -0.276 N 
ATOM     13  C   UNL     1       2.439  -0.005   8.279  0.00  0.00    +0.263 A 
ATOM     14  O   UNL     1       3.637  -0.204   8.219  0.00  0.00    -0.267 OA
ENDROOT
BRANCH   1  16
ATOM     15  N   UNL     1       0.038   1.636   2.453  0.00  0.00    -0.309 N 
ATOM     16  C   UNL     1      -0.578   1.494   3.643  0.00  0.00    +0.244 C 
ATOM     17  O   UNL     1      -1.774   1.684   3.735  0.00  0.00    -0.270 OA
ATOM     18  H   UNL     1       1.122   1.463   2.370  0.00  0.00    +0.149 HD
BRANCH  15  19
ATOM     19  C   UNL     1      -0.735   2.019   1.269  0.00  0.00    +0.070 C 
ATOM     20  C   UNL     1      -0.866   3.543   1.217  0.00  0.00    +0.028 C 
BRANCH  19  22
ATOM     21  C   UNL     1       0.002  -0.004   0.002  0.00  0.00    +0.005 C 
ATOM     22  C   UNL     1      -0.019   1.526   0.010  0.00  0.00    +0.018 C 
ENDBRANCH  19  22
ENDBRANCH  15  19
ENDBRANCH   1  16
BRANCH  11  23
ATOM     23  S   UNL     1      -2.966   1.048   7.771  0.00  0.00    -0.076 S 
BRANCH  23  24
ATOM     24  C   UNL     1      -4.399   1.066   8.884  0.00  0.00    +0.172 C 
BRANCH  24  25
ATOM     25  C   UNL     1      -5.633   1.445   8.108  0.00  0.00    +0.221 C 
ATOM     26  O   UNL     1      -5.555   1.680   6.921  0.00  0.00    -0.275 OA
ATOM     27  N   UNL     1      -6.825   1.523   8.733  0.00  0.00    -0.329 N 
ATOM     28  H   UNL     1      -7.726   1.799   8.166  0.00  0.00    +0.145 HD
ATOM     29  H   UNL     1      -6.896   1.310   9.809  0.00  0.00    +0.145 HD
ENDBRANCH  24  25
ENDBRANCH  23  24
ENDBRANCH  11  23
BRANCH  12  30
ATOM     30  C   UNL     1       2.519  -0.516  10.654  0.00  0.00    +0.131 C 
BRANCH  30  31
ATOM     31  C   UNL     1       2.532  -2.041  10.783  0.00  0.00    +0.003 C 
ATOM     32  C   UNL     1       3.319  -2.644   9.617  0.00  0.00    +0.009 C 
ATOM     33  C   UNL     1       3.195  -2.436  12.104  0.00  0.00    +0.009 C 
ENDBRANCH  30  31
ENDBRANCH  12  30
TORSDOF 8
