REMARK  Name = ZINC13127422
REMARK  9 active torsions:
REMARK  status: ('A' for Active; 'I' for Inactive)
REMARK    1  A    between atoms: C_1  and  O_2
REMARK    2  A    between atoms: O_2  and  C_3
REMARK    3  A    between atoms: C_3  and  C_4
REMARK    4  A    between atoms: C_12  and  C_26
REMARK    5  A    between atoms: C_15  and  C_18
REMARK    6  A    between atoms: C_21  and  O_24
REMARK    7  A    between atoms: O_24  and  C_25
REMARK    8  A    between atoms: C_29  and  O_32
REMARK    9  A    between atoms: O_32  and  C_33
REMARK                            x       y       z     vdW  Elec       q    Type
REMARK                         _______ _______ _______ _____ _____    ______ ____
ROOT
ATOM      1  C   UNL     1      -1.156  -2.103   0.002  0.00  0.00    +0.245 C 
ATOM      2  O   UNL     1      -0.054  -2.610  -0.011  0.00  0.00    -0.273 OA
ATOM      3  N   UNL     1      -2.256  -2.882   0.008  0.00  0.00    -0.251 N 
ATOM      4  C   UNL     1      -2.127  -4.275  -0.001  0.00  0.00    +0.242 A 
ATOM      5  N   UNL     1      -0.967  -4.949  -0.009  0.00  0.00    -0.180 NA
ATOM      6  C   UNL     1      -1.210  -6.232  -0.014  0.00  0.00    +0.216 A 
ATOM      7  N   UNL     1      -2.553  -6.408  -0.011  0.00  0.00    -0.224 N 
ATOM      8  N   UNL     1      -3.121  -5.133   0.004  0.00  0.00    -0.131 NA
ATOM      9  C   UNL     1      -3.214  -7.713  -0.019  0.00  0.00    +0.143 C 
ATOM     10  C   UNL     1      -2.214  -8.771  -0.502  0.00  0.00    +0.058 C 
ATOM     11  C   UNL     1      -0.897  -8.628   0.270  0.00  0.00    +0.106 C 
ATOM     12  N   UNL     1      -0.322  -7.300  -0.021  0.00  0.00    -0.307 N 
ATOM     13  H   UNL     1      -3.137  -2.477   0.019  0.00  0.00    +0.158 HD
ATOM     14  H   UNL     1       0.622  -7.180  -0.207  0.00  0.00    +0.149 HD
ENDROOT
BRANCH  11  15
ATOM     15  C   UNL     1       0.064  -9.705  -0.165  0.00  0.00    -0.027 A 
ATOM     16  C   UNL     1       0.782  -9.557  -1.337  0.00  0.00    +0.009 A 
ATOM     17  C   UNL     1       1.662 -10.543  -1.738  0.00  0.00    +0.046 A 
ATOM     18  C   UNL     1       1.826 -11.682  -0.964  0.00  0.00    +0.120 A 
ATOM     19  C   UNL     1       1.105 -11.828   0.212  0.00  0.00    +0.046 A 
ATOM     20  C   UNL     1       0.229 -10.837   0.612  0.00  0.00    +0.009 A 
BRANCH  18  21
ATOM     21  O   UNL     1       2.691 -12.653  -1.357  0.00  0.00    -0.495 OA
ATOM     22  C   UNL     1       2.809 -13.799  -0.510  0.00  0.00    +0.277 C 
ENDBRANCH  18  21
ENDBRANCH  11  15
BRANCH   9  23
ATOM     23  C   UNL     1      -4.399  -7.673  -0.949  0.00  0.00    -0.023 A 
ATOM     24  C   UNL     1      -4.216  -7.390  -2.289  0.00  0.00    +0.009 A 
ATOM     25  C   UNL     1      -5.301  -7.352  -3.143  0.00  0.00    +0.046 A 
ATOM     26  C   UNL     1      -6.575  -7.600  -2.655  0.00  0.00    +0.120 A 
ATOM     27  C   UNL     1      -6.757  -7.885  -1.309  0.00  0.00    +0.046 A 
ATOM     28  C   UNL     1      -5.668  -7.926  -0.460  0.00  0.00    +0.009 A 
BRANCH  26  29
ATOM     29  O   UNL     1      -7.644  -7.563  -3.493  0.00  0.00    -0.495 OA
ATOM     30  C   UNL     1      -8.927  -7.828  -2.921  0.00  0.00    +0.277 C 
ENDBRANCH  26  29
ENDBRANCH   9  23
BRANCH   1  31
ATOM     31  C   UNL     1      -1.295  -0.603   0.011  0.00  0.00    +0.255 C 
BRANCH  31  33
ATOM     32  C   UNL     1      -0.017   1.425   0.010  0.00  0.00    +0.194 C 
ATOM     33  O   UNL     1       0.002  -0.004   0.002  0.00  0.00    -0.374 OA
ENDBRANCH  31  33
ENDBRANCH   1  31
TORSDOF 6
