REMARK  Name = ZINC03444778
REMARK  10 active torsions:
REMARK  status: ('A' for Active; 'I' for Inactive)
REMARK    1  A    between atoms: C_1  and  C_2
REMARK    2  A    between atoms: C_3  and  C_11
REMARK    3  A    between atoms: C_7  and  N_8
REMARK    4  A    between atoms: C_11  and  O_13
REMARK    5  A    between atoms: O_13  and  C_14
REMARK    6  A    between atoms: C_14  and  C_16
REMARK    7  A    between atoms: C_14  and  C_17
REMARK    8  A    between atoms: N_19  and  C_20
REMARK    9  A    between atoms: C_20  and  C_21
REMARK   10  A    between atoms: N_23  and  C_24
REMARK                            x       y       z     vdW  Elec       q    Type
REMARK                         _______ _______ _______ _____ _____    ______ ____
ROOT
ATOM      1  C   UNL     1       4.245   7.338   0.487  0.00  0.00    +0.254 C 
ATOM      2  O   UNL     1       3.266   8.053   0.493  0.00  0.00    -0.272 OA
ATOM      3  N   UNL     1       4.103   6.001   0.392  0.00  0.00    -0.304 N 
ATOM      4  H   UNL     1       4.886   5.428   0.387  0.00  0.00    +0.149 HD
ENDROOT
BRANCH   1   5
ATOM      5  C   UNL     1       5.622   7.943   0.585  0.00  0.00    +0.259 C 
ATOM      6  C   UNL     1       6.390   7.678  -0.712  0.00  0.00    +0.062 C 
BRANCH   5   7
ATOM      7  O   UNL     1       5.507   9.375   0.795  0.00  0.00    -0.449 OA
BRANCH   7   8
ATOM      8  C   UNL     1       6.490   9.972   1.496  0.00  0.00    +0.340 C 
ATOM      9  O   UNL     1       7.419   9.313   1.920  0.00  0.00    -0.245 OA
BRANCH   8  12
ATOM     10  C   UNL     1       8.698  11.266   2.848  0.00  0.00    +0.047 C 
ATOM     11  C   UNL     1       7.499  12.062   2.401  0.00  0.00    -0.006 A 
ATOM     12  C   UNL     1       6.440  11.426   1.749  0.00  0.00    +0.064 A 
ATOM     13  C   UNL     1       5.331  12.170   1.343  0.00  0.00    +0.015 A 
ATOM     14  C   UNL     1       5.290  13.528   1.583  0.00  0.00    +0.003 A 
ATOM     15  C   UNL     1       6.345  14.153   2.224  0.00  0.00    +0.033 A 
ATOM     16  C   UNL     1       7.448  13.421   2.628  0.00  0.00    +0.130 A 
BRANCH  16  17
ATOM     17  N   UNL     1       8.572  14.098   3.314  0.00  0.00    +0.057 N 
ATOM     18  O   UNL     1       8.564  15.309   3.447  0.00  0.00    -0.126 OA
ATOM     19  O   UNL     1       9.505  13.444   3.745  0.00  0.00    -0.126 OA
ENDBRANCH  16  17
ENDBRANCH   8  12
ENDBRANCH   7   8
ENDBRANCH   5   7
ENDBRANCH   1   5
BRANCH   3  20
ATOM     20  C   UNL     1       2.764   5.412   0.296  0.00  0.00    +0.200 C 
BRANCH  20  21
ATOM     21  C   UNL     1       2.881   3.913   0.201  0.00  0.00    +0.234 C 
ATOM     22  O   UNL     1       3.974   3.387   0.212  0.00  0.00    -0.274 OA
ATOM     23  N   UNL     1       1.770   3.155   0.104  0.00  0.00    -0.282 N 
ATOM     24  H   UNL     1       0.902   3.578   0.008  0.00  0.00    +0.155 HD
BRANCH  23  25
ATOM     25  C   UNL     1       1.870   1.758   0.141  0.00  0.00    +0.072 A 
ATOM     26  C   UNL     1       2.952   1.155   0.767  0.00  0.00    +0.029 A 
ATOM     27  C   UNL     1       3.050  -0.223   0.804  0.00  0.00    +0.043 A 
ATOM     28  C   UNL     1       2.069  -1.004   0.217  0.00  0.00    +0.161 A 
ATOM     29  C   UNL     1       0.986  -0.406  -0.409  0.00  0.00    +0.195 A 
ATOM     30  C   UNL     1       0.885   0.974  -0.448  0.00  0.00    +0.182 A 
ATOM     31  F   UNL     1      -0.167   1.558  -1.063  0.00  0.00    -0.200 F 
ATOM     32  F   UNL     1       0.030  -1.170  -0.982  0.00  0.00    -0.199 F 
ATOM     33  F   UNL     1       2.168  -2.351   0.254  0.00  0.00    -0.202 F 
ENDBRANCH  23  25
ENDBRANCH  20  21
ENDBRANCH   3  20
TORSDOF 8
