REMARK  Name = ZINC03622921
REMARK  8 active torsions:
REMARK  status: ('A' for Active; 'I' for Inactive)
REMARK    1  A    between atoms: C_4  and  N_7
REMARK    2  A    between atoms: C_9  and  C_36
REMARK    3  A    between atoms: C_13  and  C_15
REMARK    4  A    between atoms: C_15  and  N_16
REMARK    5  A    between atoms: C_18  and  C_21
REMARK    6  A    between atoms: C_24  and  O_27
REMARK    7  A    between atoms: O_27  and  C_28
REMARK    8  A    between atoms: C_28  and  C_29
REMARK                            x       y       z     vdW  Elec       q    Type
REMARK                         _______ _______ _______ _____ _____    ______ ____
ROOT
ATOM      1  C   UNL     1       0.311   6.779   0.061  0.00  0.00    +0.264 C 
ENDROOT
BRANCH   1   8
ATOM      2  N   UNL     1      -3.402   2.434   0.033  0.00  0.00    -0.148 N 
ATOM      3  N   UNL     1      -2.504   1.512   0.023  0.00  0.00    -0.140 NA
ATOM      4  C   UNL     1      -1.304   2.064   0.019  0.00  0.00    +0.189 A 
ATOM      5  C   UNL     1      -1.472   3.466   0.034  0.00  0.00    +0.180 A 
ATOM      6  N   UNL     1      -2.771   3.685   0.036  0.00  0.00    -0.131 NA
ATOM      7  N   UNL     1      -0.462   4.430   0.040  0.00  0.00    -0.265 N 
ATOM      8  C   UNL     1      -0.779   5.739   0.054  0.00  0.00    +0.242 C 
ATOM      9  O   UNL     1      -1.943   6.081   0.060  0.00  0.00    -0.273 OA
ATOM     10  H   UNL     1       0.469   4.156   0.035  0.00  0.00    +0.156 HD
BRANCH   2  14
ATOM     11  C   UNL     1      -7.521   1.800   0.051  0.00  0.00    +0.000 A 
ATOM     12  C   UNL     1      -6.657   0.721   0.041  0.00  0.00    +0.002 A 
ATOM     13  C   UNL     1      -5.291   0.927   0.034  0.00  0.00    +0.029 A 
ATOM     14  C   UNL     1      -4.786   2.221   0.038  0.00  0.00    +0.086 A 
ATOM     15  C   UNL     1      -5.657   3.303   0.054  0.00  0.00    +0.029 A 
ATOM     16  C   UNL     1      -7.021   3.089   0.055  0.00  0.00    +0.002 A 
ENDBRANCH   2  14
BRANCH   4  17
ATOM     17  C   UNL     1      -0.016   1.344   0.009  0.00  0.00    +0.265 C 
ATOM     18  O   UNL     1       1.028   1.966   0.003  0.00  0.00    -0.269 OA
ATOM     19  N   UNL     1       0.002  -0.004   0.002  0.00  0.00    -0.324 N 
ATOM     20  H   UNL     1       0.849  -0.478  -0.009  0.00  0.00    +0.145 HD
ATOM     21  H   UNL     1      -0.831  -0.500   0.007  0.00  0.00    +0.145 HD
ENDBRANCH   4  17
ENDBRANCH   1   8
BRANCH   1  22
ATOM     22  N   UNL     1      -0.289   8.116   0.076  0.00  0.00    -0.154 N 
ATOM     23  N   UNL     1      -0.592   8.808  -0.968  0.00  0.00    -0.130 NA
ATOM     24  C   UNL     1      -1.111   9.949  -0.558  0.00  0.00    +0.205 A 
ATOM     25  N   UNL     1      -1.098   9.917   0.782  0.00  0.00    -0.108 NA
ATOM     26  N   UNL     1      -0.591   8.785   1.133  0.00  0.00    -0.045 NA
BRANCH  24  27
ATOM     27  C   UNL     1      -1.606  11.056  -1.415  0.00  0.00    +0.023 A 
ATOM     28  C   UNL     1      -1.547  10.944  -2.803  0.00  0.00    +0.015 A 
ATOM     29  C   UNL     1      -2.013  11.972  -3.596  0.00  0.00    +0.046 A 
ATOM     30  C   UNL     1      -2.529  13.121  -3.013  0.00  0.00    +0.121 A 
ATOM     31  C   UNL     1      -2.583  13.237  -1.630  0.00  0.00    +0.046 A 
ATOM     32  C   UNL     1      -2.124  12.210  -0.832  0.00  0.00    +0.015 A 
BRANCH  30  33
ATOM     33  O   UNL     1      -2.982  14.134  -3.796  0.00  0.00    -0.487 OA
BRANCH  33  34
ATOM     34  C   UNL     1      -2.897  13.949  -5.211  0.00  0.00    +0.267 C 
BRANCH  34  35
ATOM     35  C   UNL     1      -3.442  15.167  -5.911  0.00  0.00    +0.025 A 
ATOM     36  C   UNL     1      -3.926  16.230  -5.173  0.00  0.00    +0.010 A 
ATOM     37  C   UNL     1      -4.420  17.350  -5.815  0.00  0.00    +0.001 A 
ATOM     38  C   UNL     1      -4.442  17.402  -7.197  0.00  0.00    +0.003 A 
ATOM     39  C   UNL     1      -3.963  16.338  -7.937  0.00  0.00    +0.039 A 
ATOM     40  C   UNL     1      -3.462  15.219  -7.294  0.00  0.00    +0.130 A 
ATOM     41  F   UNL     1      -2.995  14.177  -8.017  0.00  0.00    -0.205 F 
ENDBRANCH  34  35
ENDBRANCH  33  34
ENDBRANCH  30  33
ENDBRANCH  24  27
ENDBRANCH   1  22
TORSDOF 8
