REMARK  Name = ZINC14161398
REMARK  6 active torsions:
REMARK  status: ('A' for Active; 'I' for Inactive)
REMARK    1  A    between atoms: C_1  and  C_2
REMARK    2  A    between atoms: C_4  and  C_34
REMARK    3  A    between atoms: N_10  and  C_11
REMARK    4  A    between atoms: C_11  and  N_13
REMARK    5  A    between atoms: N_13  and  C_14
REMARK    6  A    between atoms: C_21  and  C_23
REMARK                            x       y       z     vdW  Elec       q    Type
REMARK                         _______ _______ _______ _____ _____    ______ ____
ROOT
ATOM      1  C   UNL     1       3.472   4.061   0.871  0.00  0.00    +0.066 C 
ATOM      2  C   UNL     1       2.098   4.436   1.363  0.00  0.00    +0.044 A 
ATOM      3  C   UNL     1       1.895   5.632   2.033  0.00  0.00    +0.046 A 
ATOM      4  C   UNL     1       0.615   5.938   2.469  0.00  0.00    +0.044 A 
ATOM      5  N   UNL     1      -0.367   5.085   2.234  0.00  0.00    -0.219 NA
ATOM      6  C   UNL     1      -0.140   3.950   1.590  0.00  0.00    +0.222 A 
ATOM      7  N   UNL     1       1.072   3.625   1.165  0.00  0.00    -0.219 NA
ATOM      8  N   UNL     1      -1.195   3.078   1.361  0.00  0.00    -0.258 N 
ATOM      9  C   UNL     1      -0.976   1.897   0.703  0.00  0.00    +0.180 C 
ATOM     10  N   UNL     1       0.215   1.635   0.194  0.00  0.00    -0.164 NA
ATOM     11  N   UNL     1      -1.989   0.992   0.572  0.00  0.00    -0.302 N 
ATOM     12  C   UNL     1      -1.721  -0.450   0.672  0.00  0.00    +0.126 C 
ATOM     13  C   UNL     1      -2.633  -1.039   1.761  0.00  0.00    +0.127 C 
ATOM     14  N   UNL     1      -4.010  -0.591   1.510  0.00  0.00    -0.295 N 
ATOM     15  C   UNL     1      -4.278   0.851   1.405  0.00  0.00    +0.127 C 
ATOM     16  C   UNL     1      -3.366   1.440   0.321  0.00  0.00    +0.126 C 
ATOM     17  C   UNL     1      -5.010  -1.485   1.380  0.00  0.00    +0.260 C 
ATOM     18  O   UNL     1      -6.125  -1.110   1.085  0.00  0.00    -0.271 OA
ATOM     19  C   UNL     1       0.347   7.228   3.201  0.00  0.00    +0.066 C 
ATOM     20  H   UNL     1      -2.086   3.302   1.671  0.00  0.00    +0.157 HD
ENDROOT
BRANCH  17  21
ATOM     21  C   UNL     1      -4.742  -2.951   1.600  0.00  0.00    +0.296 C 
ATOM     22  C   UNL     1      -3.907  -3.505   0.438  0.00  0.00    +0.283 C 
ATOM     23  O   UNL     1      -3.684  -4.900   0.672  0.00  0.00    -0.484 OA
ATOM     24  C   UNL     1      -4.763  -5.638   1.050  0.00  0.00    +0.162 A 
ATOM     25  C   UNL     1      -4.713  -7.020   0.948  0.00  0.00    +0.049 A 
ATOM     26  C   UNL     1      -5.799  -7.783   1.333  0.00  0.00    +0.004 A 
ATOM     27  C   UNL     1      -6.938  -7.171   1.822  0.00  0.00    +0.004 A 
ATOM     28  C   UNL     1      -6.995  -5.794   1.925  0.00  0.00    +0.049 A 
ATOM     29  C   UNL     1      -5.909  -5.022   1.539  0.00  0.00    +0.163 A 
ATOM     30  O   UNL     1      -5.982  -3.667   1.644  0.00  0.00    -0.473 OA
ENDBRANCH  17  21
BRANCH  10  31
ATOM     31  C   UNL     1       0.390   0.557  -0.584  0.00  0.00    +0.157 C 
ATOM     32  S   UNL     1      -0.582   0.341  -1.977  0.00  0.00    -0.017 S 
BRANCH  31  33
ATOM     33  N   UNL     1       1.329  -0.356  -0.269  0.00  0.00    -0.328 N 
ATOM     34  C   UNL     1       1.520  -1.534  -1.119  0.00  0.00    +0.127 C 
ATOM     35  H   UNL     1       1.879  -0.234   0.520  0.00  0.00    +0.147 HD
ENDBRANCH  31  33
ENDBRANCH  10  31
TORSDOF 3
