REMARK  Name = ZINC09414088
REMARK  4 active torsions:
REMARK  status: ('A' for Active; 'I' for Inactive)
REMARK    1  A    between atoms: C_4  and  C_7
REMARK    2  A    between atoms: C_12  and  N_21
REMARK    3  A    between atoms: C_14  and  C_16
REMARK    4  A    between atoms: C_24  and  C_27
REMARK                            x       y       z     vdW  Elec       q    Type
REMARK                         _______ _______ _______ _____ _____    ______ ____
ROOT
ATOM      1  C   UNL     1       3.085   2.043   0.434  0.00  0.00    +0.002 A 
ATOM      2  C   UNL     1       3.611   1.500   1.558  0.00  0.00    +0.056 A 
ATOM      3  S   UNL     1       5.050   0.630   0.968  0.00  0.00    -0.076 S 
ATOM      4  C   UNL     1       4.918   1.009  -0.759  0.00  0.00    +0.114 A 
ATOM      5  C   UNL     1       3.753   1.801  -0.840  0.00  0.00    +0.055 A 
ATOM      6  C   UNL     1       3.409   2.257  -2.143  0.00  0.00    +0.134 A 
ATOM      7  N   UNL     1       4.168   1.918  -3.170  0.00  0.00    -0.211 NA
ATOM      8  C   UNL     1       5.254   1.163  -3.026  0.00  0.00    +0.169 A 
ATOM      9  N   UNL     1       5.625   0.713  -1.831  0.00  0.00    -0.219 NA
ENDROOT
BRANCH   6  10
ATOM     10  N   UNL     1       2.287   3.044  -2.333  0.00  0.00    -0.317 N 
ATOM     11  C   UNL     1       1.224   2.290  -3.013  0.00  0.00    +0.087 C 
ATOM     12  C   UNL     1      -0.024   3.169  -3.133  0.00  0.00    -0.062 C 
ATOM     13  C   UNL     1       1.373   5.144  -3.197  0.00  0.00    +0.033 C 
ATOM     14  C   UNL     1       2.621   4.266  -3.077  0.00  0.00    +0.100 C 
ATOM     15  N   UNL     1       0.306   4.394  -3.886  0.00  0.00    +0.389 N 
ATOM     16  H   UNL     1      -0.531   4.984  -3.957  0.00  0.00    -0.085 HD
ATOM     17  H   UNL     1       0.626   4.138  -4.827  0.00  0.00    -0.085 HD
BRANCH  13  18
ATOM     18  C   UNL     1       1.703   6.380  -3.994  0.00  0.00    +0.198 C 
ATOM     19  O   UNL     1       1.401   6.443  -5.167  0.00  0.00    -0.278 OA
ATOM     20  N   UNL     1       2.333   7.415  -3.404  0.00  0.00    -0.331 N 
ATOM     21  H   UNL     1       2.575   7.364  -2.466  0.00  0.00    +0.145 HD
ATOM     22  H   UNL     1       2.546   8.210  -3.917  0.00  0.00    +0.145 HD
ENDBRANCH  13  18
ENDBRANCH   6  10
BRANCH   1  26
ATOM     23  C   UNL     1      -0.452   4.393   0.614  0.00  0.00    +0.000 A 
ATOM     24  C   UNL     1      -0.465   3.092   1.085  0.00  0.00    +0.001 A 
ATOM     25  C   UNL     1       0.682   2.326   1.034  0.00  0.00    +0.008 A 
ATOM     26  C   UNL     1       1.852   2.862   0.497  0.00  0.00    -0.017 A 
ATOM     27  C   UNL     1       1.857   4.172   0.019  0.00  0.00    +0.008 A 
ATOM     28  C   UNL     1       0.705   4.930   0.080  0.00  0.00    +0.001 A 
ENDBRANCH   1  26
BRANCH   8  29
ATOM     29  C   UNL     1       6.061   0.819  -4.212  0.00  0.00    +0.056 A 
ATOM     30  C   UNL     1       7.205   0.068  -4.291  0.00  0.00    +0.019 A 
ATOM     31  C   UNL     1       7.787  -0.123  -5.522  0.00  0.00    +0.008 A 
ATOM     32  C   UNL     1       7.218   0.444  -6.619  0.00  0.00    +0.046 A 
ATOM     33  S   UNL     1       5.804   1.278  -5.918  0.00  0.00    -0.094 S 
ENDBRANCH   8  29
TORSDOF 4
