REMARK  Name = ZINC08858201
REMARK  12 active torsions:
REMARK  status: ('A' for Active; 'I' for Inactive)
REMARK    1  A    between atoms: C_1  and  C_2
REMARK    2  A    between atoms: C_2  and  C_3
REMARK    3  A    between atoms: C_3  and  O_4
REMARK    4  A    between atoms: O_4  and  C_5
REMARK    5  A    between atoms: C_8  and  C_11
REMARK    6  A    between atoms: C_11  and  C_13
REMARK    7  A    between atoms: C_14  and  O_36
REMARK    8  A    between atoms: N_17  and  C_29
REMARK    9  A    between atoms: C_18  and  C_20
REMARK   10  A    between atoms: C_23  and  N_26
REMARK   11  A    between atoms: C_29  and  C_30
REMARK   12  A    between atoms: C_30  and  N_65
REMARK                            x       y       z     vdW  Elec       q    Type
REMARK                         _______ _______ _______ _____ _____    ______ ____
ROOT
ATOM      1  C   UNL     1      -1.390   2.758   2.896  0.00  0.00    +0.071 C 
ATOM      2  C   UNL     1      -2.119   1.663   2.578  0.00  0.00    +0.188 C 
ATOM      3  C   UNL     1      -1.584   1.067   1.335  0.00  0.00    +0.282 C 
ATOM      4  O   UNL     1      -2.025   0.074   0.792  0.00  0.00    -0.267 OA
ATOM      5  N   UNL     1      -0.537   1.788   0.894  0.00  0.00    -0.285 N 
ATOM      6  C   UNL     1      -0.326   2.897   1.832  0.00  0.00    +0.144 C 
ENDROOT
BRANCH   6   7
ATOM      7  C   UNL     1      -0.480   4.216   1.118  0.00  0.00    -0.022 A 
ATOM      8  C   UNL     1      -1.578   4.439   0.309  0.00  0.00    +0.008 A 
ATOM      9  C   UNL     1      -1.722   5.650  -0.342  0.00  0.00    +0.033 A 
ATOM     10  C   UNL     1      -0.763   6.634  -0.191  0.00  0.00    +0.126 A 
ATOM     11  C   UNL     1       0.338   6.409   0.615  0.00  0.00    +0.033 A 
ATOM     12  C   UNL     1       0.479   5.200   1.269  0.00  0.00    +0.008 A 
BRANCH  10  13
ATOM     13  N   UNL     1      -0.914   7.929  -0.892  0.00  0.00    +0.056 N 
ATOM     14  O   UNL     1      -0.069   8.796  -0.758  0.00  0.00    -0.126 OA
ATOM     15  O   UNL     1      -1.884   8.128  -1.602  0.00  0.00    -0.126 OA
ENDBRANCH  10  13
ENDBRANCH   6   7
BRANCH   1  16
ATOM     16  C   UNL     1      -1.590   3.636   4.053  0.00  0.00    +0.195 C 
ATOM     17  O   UNL     1      -2.602   4.306   4.140  0.00  0.00    -0.287 OA
BRANCH  16  21
ATOM     18  C   UNL     1       1.361   3.840   7.100  0.00  0.00    +0.121 A 
ATOM     19  C   UNL     1       0.182   4.566   7.227  0.00  0.00    +0.046 A 
ATOM     20  C   UNL     1      -0.777   4.503   6.241  0.00  0.00    +0.015 A 
ATOM     21  C   UNL     1      -0.564   3.707   5.112  0.00  0.00    +0.022 A 
ATOM     22  C   UNL     1       0.620   2.974   4.990  0.00  0.00    +0.015 A 
ATOM     23  C   UNL     1       1.577   3.047   5.978  0.00  0.00    +0.046 A 
BRANCH  18  24
ATOM     24  O   UNL     1       2.304   3.905   8.074  0.00  0.00    -0.492 OA
BRANCH  24  25
ATOM     25  C   UNL     1       3.491   3.134   7.880  0.00  0.00    +0.229 C 
BRANCH  25  27
ATOM     26  C   UNL     1       5.700   2.506   8.865  0.00  0.00    +0.007 C 
ATOM     27  C   UNL     1       4.428   3.332   9.073  0.00  0.00    +0.038 C 
ENDBRANCH  25  27
ENDBRANCH  24  25
ENDBRANCH  18  24
ENDBRANCH  16  21
ENDBRANCH   1  16
BRANCH   2  28
ATOM     28  O   UNL     1      -3.171   1.189   3.285  0.00  0.00    -0.502 OA
ATOM     29  H   UNL     1      -3.532   0.371   2.837  0.00  0.00    +0.292 HD
ENDBRANCH   2  28
BRANCH   5  30
ATOM     30  C   UNL     1       0.255   1.512  -0.307  0.00  0.00    +0.090 C 
BRANCH  30  31
ATOM     31  C   UNL     1      -0.362   2.237  -1.504  0.00  0.00    -0.059 C 
BRANCH  31  37
ATOM     32  C   UNL     1       1.773   2.553  -2.602  0.00  0.00    -0.050 C 
ATOM     33  C   UNL     1       2.586   2.190  -3.848  0.00  0.00    +0.141 C 
ATOM     34  O   UNL     1       1.887   2.636  -5.013  0.00  0.00    -0.383 OA
ATOM     35  C   UNL     1       0.577   2.078  -5.148  0.00  0.00    +0.141 C 
ATOM     36  C   UNL     1      -0.256   2.439  -3.915  0.00  0.00    -0.050 C 
ATOM     37  N   UNL     1       0.436   1.933  -2.711  0.00  0.00    +0.384 N 
ATOM     38  H   UNL     1       0.544   0.915  -2.792  0.00  0.00    -0.082 HD
ENDBRANCH  31  37
ENDBRANCH  30  31
ENDBRANCH   5  30
TORSDOF 11
