REMARK  Name = ZINC07595048
REMARK  5 active torsions:
REMARK  status: ('A' for Active; 'I' for Inactive)
REMARK    1  A    between atoms: C_10  and  C_11
REMARK    2  A    between atoms: C_11  and  N_12
REMARK    3  A    between atoms: C_14  and  C_19
REMARK    4  A    between atoms: N_21  and  C_22
REMARK    5  A    between atoms: C_25  and  N_28
REMARK                            x       y       z     vdW  Elec       q    Type
REMARK                         _______ _______ _______ _____ _____    ______ ____
ROOT
ATOM      1  N   UNL     1      -2.287  -4.204   0.419  0.00  0.00    -0.310 N 
ATOM      2  C   UNL     1      -2.326  -2.863   0.303  0.00  0.00    +0.102 A 
ATOM      3  C   UNL     1      -1.159  -2.137   0.182  0.00  0.00    +0.053 A 
ATOM      4  C   UNL     1       0.086  -2.813   0.193  0.00  0.00    +0.020 A 
ATOM      5  C   UNL     1       0.101  -4.167   0.317  0.00  0.00    +0.071 A 
ATOM      6  C   UNL     1      -1.116  -4.865   0.431  0.00  0.00    +0.252 A 
ATOM      7  O   UNL     1      -1.108  -6.080   0.542  0.00  0.00    -0.268 OA
ENDROOT
BRANCH   3   8
ATOM      8  C   UNL     1      -1.206  -0.670   0.050  0.00  0.00    +0.250 C 
ATOM      9  O   UNL     1      -2.278  -0.095   0.042  0.00  0.00    -0.270 OA
ATOM     10  N   UNL     1      -0.063   0.035  -0.061  0.00  0.00    -0.281 N 
ATOM     11  H   UNL     1       0.787  -0.428  -0.130  0.00  0.00    +0.155 HD
BRANCH  10  12
ATOM     12  C   UNL     1      -0.101   1.432  -0.079  0.00  0.00    +0.034 A 
ATOM     13  C   UNL     1       0.828   2.145  -0.825  0.00  0.00    +0.025 A 
ATOM     14  C   UNL     1       0.784   3.525  -0.845  0.00  0.00    +0.034 A 
ATOM     15  C   UNL     1      -0.177   4.198  -0.112  0.00  0.00    +0.126 A 
ATOM     16  C   UNL     1      -1.100   3.492   0.636  0.00  0.00    +0.034 A 
ATOM     17  C   UNL     1      -1.065   2.111   0.655  0.00  0.00    +0.025 A 
BRANCH  15  18
ATOM     18  N   UNL     1      -0.217   5.678  -0.130  0.00  0.00    +0.056 N 
ATOM     19  O   UNL     1      -1.063   6.272   0.514  0.00  0.00    -0.126 OA
ATOM     20  O   UNL     1       0.595   6.301  -0.789  0.00  0.00    -0.126 OA
ENDBRANCH  15  18
ENDBRANCH  10  12
ENDBRANCH   3   8
BRANCH   1  21
ATOM     21  C   UNL     1      -3.540  -4.954   0.539  0.00  0.00    +0.160 C 
BRANCH  21  31
ATOM     22  C   UNL     1      -7.632  -6.657   3.099  0.00  0.00    +0.001 A 
ATOM     23  C   UNL     1      -7.260  -6.624   1.756  0.00  0.00    +0.001 A 
ATOM     24  C   UNL     1      -6.069  -6.087   1.373  0.00  0.00    +0.009 A 
ATOM     25  C   UNL     1      -5.202  -5.555   2.342  0.00  0.00    -0.013 A 
ATOM     26  C   UNL     1      -5.579  -5.592   3.708  0.00  0.00    -0.018 A 
ATOM     27  C   UNL     1      -6.817  -6.154   4.065  0.00  0.00    +0.008 A 
ATOM     28  C   UNL     1      -4.710  -5.064   4.677  0.00  0.00    +0.008 A 
ATOM     29  C   UNL     1      -3.519  -4.528   4.294  0.00  0.00    +0.001 A 
ATOM     30  C   UNL     1      -3.146  -4.495   2.952  0.00  0.00    +0.006 A 
ATOM     31  C   UNL     1      -3.962  -4.999   1.985  0.00  0.00    -0.020 A 
ENDBRANCH  21  31
ENDBRANCH   1  21
TORSDOF 5
