REMARK  Name = ZINC16711598
REMARK  9 active torsions:
REMARK  status: ('A' for Active; 'I' for Inactive)
REMARK    1  A    between atoms: C_1  and  C_2
REMARK    2  A    between atoms: C_2  and  C_3
REMARK    3  A    between atoms: C_2  and  C_4
REMARK    4  A    between atoms: C_2  and  C_5
REMARK    5  A    between atoms: C_8  and  C_11
REMARK    6  A    between atoms: C_13  and  C_25
REMARK    7  A    between atoms: C_15  and  C_20
REMARK    8  A    between atoms: C_15  and  O_24
REMARK    9  A    between atoms: C_25  and  C_27
REMARK                            x       y       z     vdW  Elec       q    Type
REMARK                         _______ _______ _______ _____ _____    ______ ____
ROOT
ATOM      1  C   UNL     1       0.234  -0.263   0.166  0.00  0.00    +0.120 C 
ATOM      2  C   UNL     1       1.695  -0.436  -0.261  0.00  0.00    +0.144 C 
ATOM      3  C   UNL     1       2.545   0.606   0.473  0.00  0.00    +0.243 C 
ATOM      4  N   UNL     1       2.006   1.940   0.205  0.00  0.00    -0.264 N 
ATOM      5  C   UNL     1       0.703   2.128  -0.049  0.00  0.00    +0.302 C 
ATOM      6  O   UNL     1       0.305   3.259  -0.255  0.00  0.00    -0.253 OA
ATOM      7  N   UNL     1      -0.180   1.119  -0.085  0.00  0.00    -0.292 N 
ATOM      8  H   UNL     1       2.604   2.704   0.212  0.00  0.00    +0.153 HD
ATOM      9  H   UNL     1      -1.110   1.308  -0.285  0.00  0.00    +0.151 HD
ENDROOT
BRANCH   1  13
ATOM     10  C   UNL     1      -0.148  -1.133   4.331  0.00  0.00    -0.042 A 
ATOM     11  C   UNL     1      -0.115   0.180   3.899  0.00  0.00    +0.004 A 
ATOM     12  C   UNL     1       0.008   0.462   2.551  0.00  0.00    +0.006 A 
ATOM     13  C   UNL     1       0.099  -0.570   1.635  0.00  0.00    -0.026 A 
ATOM     14  C   UNL     1       0.061  -1.883   2.067  0.00  0.00    +0.006 A 
ATOM     15  C   UNL     1      -0.059  -2.164   3.415  0.00  0.00    +0.004 A 
BRANCH  10  17
ATOM     16  C   UNL     1      -1.589  -0.844   6.328  0.00  0.00    +0.015 C 
ATOM     17  C   UNL     1      -0.283  -1.440   5.800  0.00  0.00    -0.013 C 
ATOM     18  C   UNL     1      -0.294  -2.956   6.005  0.00  0.00    +0.015 C 
ATOM     19  C   UNL     1       0.899  -0.831   6.558  0.00  0.00    +0.015 C 
ENDBRANCH  10  17
ENDBRANCH   1  13
BRANCH   3  20
ATOM     20  C   UNL     1       3.990   0.529  -0.023  0.00  0.00    +0.436 C 
ATOM     21  F   UNL     1       4.046   0.934  -1.361  0.00  0.00    -0.166 F 
ATOM     22  F   UNL     1       4.795   1.369   0.753  0.00  0.00    -0.166 F 
ATOM     23  F   UNL     1       4.451  -0.788   0.085  0.00  0.00    -0.166 F 
ENDBRANCH   3  20
BRANCH   3  24
ATOM     24  O   UNL     1       2.507   0.348   1.878  0.00  0.00    -0.364 OA
ATOM     25  H   UNL     1       3.025   0.972   2.406  0.00  0.00    +0.212 HD
ENDBRANCH   3  24
BRANCH   2  26
ATOM     26  C   UNL     1       1.815  -0.229  -1.749  0.00  0.00    +0.173 C 
ATOM     27  O   UNL     1       1.583   0.860  -2.231  0.00  0.00    -0.292 OA
BRANCH  26  28
ATOM     28  C   UNL     1       2.213  -1.348  -2.618  0.00  0.00    +0.018 A 
ATOM     29  C   UNL     1       2.356  -2.634  -2.086  0.00  0.00    +0.013 A 
ATOM     30  C   UNL     1       2.723  -3.678  -2.907  0.00  0.00    +0.020 A 
ATOM     31  C   UNL     1       2.962  -3.454  -4.253  0.00  0.00    +0.041 A 
ATOM     32  C   UNL     1       2.828  -2.182  -4.786  0.00  0.00    +0.020 A 
ATOM     33  C   UNL     1       2.455  -1.129  -3.978  0.00  0.00    +0.013 A 
ATOM     34 CL   UNL     1       3.432  -4.775  -5.278  0.00  0.00    -0.084 Cl
ENDBRANCH  26  28
ENDBRANCH   2  26
TORSDOF 6
