REMARK  Name = ZINC08803524
REMARK  9 active torsions:
REMARK  status: ('A' for Active; 'I' for Inactive)
REMARK    1  A    between atoms: C_1  and  C_2
REMARK    2  A    between atoms: C_2  and  N_3
REMARK    3  A    between atoms: C_7  and  C_9
REMARK    4  A    between atoms: C_9  and  C_11
REMARK    5  A    between atoms: C_9  and  S_12
REMARK    6  A    between atoms: S_12  and  C_13
REMARK    7  A    between atoms: C_16  and  C_18
REMARK    8  A    between atoms: N_27  and  C_29
REMARK    9  A    between atoms: C_29  and  C_30
REMARK                            x       y       z     vdW  Elec       q    Type
REMARK                         _______ _______ _______ _____ _____    ______ ____
ROOT
ATOM      1  C   UNL     1      -1.351  -3.883   4.211  0.00  0.00    +0.278 A 
ATOM      2  N   UNL     1      -2.002  -3.533   5.297  0.00  0.00    -0.101 NA
ATOM      3  N   UNL     1      -2.585  -2.403   5.101  0.00  0.00    -0.105 NA
ATOM      4  C   UNL     1      -2.337  -1.990   3.881  0.00  0.00    +0.270 A 
ATOM      5  O   UNL     1      -1.547  -2.917   3.293  0.00  0.00    -0.409 OA
ENDROOT
BRANCH   4   6
ATOM      6  C   UNL     1      -2.824  -0.742   3.265  0.00  0.00    +0.155 A 
ATOM      7  C   UNL     1      -3.681   0.174   4.034  0.00  0.00    +0.020 A 
ATOM      8  C   UNL     1      -4.056  -0.101   5.348  0.00  0.00    +0.011 A 
ATOM      9  C   UNL     1      -4.861   0.789   6.026  0.00  0.00    +0.001 A 
ATOM     10  C   UNL     1      -5.301   1.955   5.414  0.00  0.00    +0.001 A 
ATOM     11  C   UNL     1      -4.942   2.247   4.117  0.00  0.00    +0.014 A 
ATOM     12  C   UNL     1      -4.128   1.360   3.413  0.00  0.00    +0.050 A 
ATOM     13  C   UNL     1      -3.715   1.620   2.027  0.00  0.00    +0.275 A 
ATOM     14  O   UNL     1      -4.078   2.630   1.453  0.00  0.00    -0.266 OA
ATOM     15  N   UNL     1      -2.927   0.722   1.401  0.00  0.00    -0.224 N 
ATOM     16  N   UNL     1      -2.498  -0.447   2.030  0.00  0.00    -0.162 NA
BRANCH  15  17
ATOM     17  C   UNL     1      -2.514   0.980   0.019  0.00  0.00    +0.182 C 
BRANCH  17  18
ATOM     18  C   UNL     1      -1.219   1.751   0.017  0.00  0.00    -0.026 A 
ATOM     19  C   UNL     1      -0.013   1.076   0.008  0.00  0.00    +0.005 A 
ATOM     20  C   UNL     1       1.175   1.783   0.000  0.00  0.00    +0.000 A 
ATOM     21  C   UNL     1       1.156   3.165   0.008  0.00  0.00    +0.000 A 
ATOM     22  C   UNL     1      -0.050   3.840   0.022  0.00  0.00    +0.000 A 
ATOM     23  C   UNL     1      -1.238   3.133   0.030  0.00  0.00    +0.005 A 
ENDBRANCH  17  18
ENDBRANCH  15  17
ENDBRANCH   4   6
BRANCH   1  24
ATOM     24  S   UNL     1      -0.396  -5.348   3.994  0.00  0.00    -0.053 S 
BRANCH  24  25
ATOM     25  C   UNL     1      -0.612  -6.107   5.623  0.00  0.00    +0.139 C 
ATOM     26  C   UNL     1       0.041  -5.224   6.688  0.00  0.00    +0.029 C 
BRANCH  25  31
ATOM     27  N   UNL     1      -0.241 -10.573   7.363  0.00  0.00    -0.299 N 
ATOM     28  C   UNL     1       0.188  -9.629   6.502  0.00  0.00    +0.306 C 
ATOM     29  O   UNL     1       1.097  -9.875   5.734  0.00  0.00    -0.252 OA
ATOM     30  N   UNL     1      -0.392  -8.412   6.494  0.00  0.00    -0.239 N 
ATOM     31  C   UNL     1       0.036  -7.468   5.633  0.00  0.00    +0.234 C 
ATOM     32  O   UNL     1       0.943  -7.713   4.866  0.00  0.00    -0.274 OA
ATOM     33  H   UNL     1      -0.966 -10.378   7.976  0.00  0.00    +0.150 HD
ATOM     34  H   UNL     1      -1.118  -8.216   7.107  0.00  0.00    +0.159 HD
BRANCH  27  36
ATOM     35  C   UNL     1      -0.279 -12.772   8.434  0.00  0.00    +0.024 C 
ATOM     36  C   UNL     1       0.389 -11.896   7.373  0.00  0.00    +0.102 C 
ENDBRANCH  27  36
ENDBRANCH  25  31
ENDBRANCH  24  25
ENDBRANCH   1  24
TORSDOF 7
