REMARK  Name = ZINC27850212
REMARK  8 active torsions:
REMARK  status: ('A' for Active; 'I' for Inactive)
REMARK    1  A    between atoms: C_3  and  N_21
REMARK    2  A    between atoms: C_6  and  N_7
REMARK    3  A    between atoms: C_8  and  C_10
REMARK    4  A    between atoms: C_10  and  S_11
REMARK    5  A    between atoms: S_11  and  C_12
REMARK    6  A    between atoms: C_15  and  N_18
REMARK    7  A    between atoms: N_24  and  C_25
REMARK    8  A    between atoms: C_25  and  C_26
REMARK                            x       y       z     vdW  Elec       q    Type
REMARK                         _______ _______ _______ _____ _____    ______ ____
ROOT
ATOM      1  C   UNL     1      -0.308   1.873  -0.275  0.00  0.00    +0.025 A 
ATOM      2  C   UNL     1      -1.586   2.380  -0.148  0.00  0.00    +0.025 A 
ATOM      3  C   UNL     1      -1.785   3.751  -0.062  0.00  0.00    +0.035 A 
ATOM      4  C   UNL     1      -0.698   4.614  -0.113  0.00  0.00    +0.025 A 
ATOM      5  C   UNL     1       0.580   4.109  -0.245  0.00  0.00    +0.025 A 
ATOM      6  C   UNL     1       0.778   2.736  -0.326  0.00  0.00    +0.034 A 
ENDROOT
BRANCH   3   7
ATOM      7  N   UNL     1      -3.081   4.265   0.071  0.00  0.00    -0.269 N 
ATOM      8  C   UNL     1      -3.407   5.434  -0.516  0.00  0.00    +0.304 C 
ATOM      9  O   UNL     1      -2.607   5.994  -1.240  0.00  0.00    -0.253 OA
ATOM     10  N   UNL     1      -4.619   5.981  -0.299  0.00  0.00    -0.297 N 
ATOM     11  H   UNL     1      -3.834   3.714   0.654  0.00  0.00    +0.156 HD
ATOM     12  H   UNL     1      -5.343   5.474   0.356  0.00  0.00    +0.150 HD
BRANCH  10  13
ATOM     13  C   UNL     1      -4.973   7.252  -0.937  0.00  0.00    +0.137 C 
BRANCH  13  14
ATOM     14  C   UNL     1      -6.393   7.649  -0.529  0.00  0.00    +0.135 C 
ATOM     15  C   UNL     1      -6.835   8.921  -1.287  0.00  0.00    +0.035 C 
ATOM     16  C   UNL     1      -7.663   9.709  -0.248  0.00  0.00    +0.031 C 
ATOM     17  C   UNL     1      -7.623   8.820   1.015  0.00  0.00    +0.160 C 
ATOM     18  O   UNL     1      -6.431   8.020   0.866  0.00  0.00    -0.375 OA
ENDBRANCH  13  14
ENDBRANCH  10  13
ENDBRANCH   3   7
BRANCH   6  19
ATOM     19  N   UNL     1       2.075   2.223  -0.459  0.00  0.00    -0.285 N 
ATOM     20  C   UNL     1       2.997   2.898  -1.173  0.00  0.00    +0.227 C 
ATOM     21  O   UNL     1       2.680   3.898  -1.782  0.00  0.00    -0.275 OA
ATOM     22  H   UNL     1       2.341   1.269   0.021  0.00  0.00    +0.155 HD
BRANCH  20  23
ATOM     23  C   UNL     1       4.422   2.410  -1.217  0.00  0.00    +0.170 C 
BRANCH  23  24
ATOM     24  S   UNL     1       5.411   3.523  -2.253  0.00  0.00    -0.116 S 
BRANCH  24  25
ATOM     25  C   UNL     1       7.029   2.826  -2.204  0.00  0.00    +0.008 A 
ATOM     26  C   UNL     1       7.269   1.675  -1.463  0.00  0.00    +0.017 A 
ATOM     27  C   UNL     1       8.537   1.128  -1.431  0.00  0.00    +0.034 A 
ATOM     28  C   UNL     1       9.569   1.732  -2.126  0.00  0.00    +0.126 A 
ATOM     29  C   UNL     1       9.335   2.880  -2.860  0.00  0.00    +0.034 A 
ATOM     30  C   UNL     1       8.069   3.429  -2.901  0.00  0.00    +0.017 A 
BRANCH  28  31
ATOM     31  N   UNL     1      10.928   1.146  -2.084  0.00  0.00    +0.056 N 
ATOM     32  O   UNL     1      11.838   1.677  -2.695  0.00  0.00    -0.126 OA
ATOM     33  O   UNL     1      11.136   0.135  -1.438  0.00  0.00    -0.126 OA
ENDBRANCH  28  31
ENDBRANCH  24  25
ENDBRANCH  23  24
ENDBRANCH  20  23
ENDBRANCH   6  19
TORSDOF 8
