REMARK  Name = ZINC13077409
REMARK  8 active torsions:
REMARK  status: ('A' for Active; 'I' for Inactive)
REMARK    1  A    between atoms: C_1  and  C_2
REMARK    2  A    between atoms: C_3  and  C_14
REMARK    3  A    between atoms: N_5  and  C_7
REMARK    4  A    between atoms: C_17  and  C_24
REMARK    5  A    between atoms: C_27  and  O_30
REMARK    6  A    between atoms: O_30  and  C_31
REMARK    7  A    between atoms: C_31  and  C_33
REMARK    8  A    between atoms: C_31  and  C_34
REMARK                            x       y       z     vdW  Elec       q    Type
REMARK                         _______ _______ _______ _____ _____    ______ ____
ROOT
ATOM      1  C   UNL     1      -8.063   4.406  -4.351  0.00  0.00    +0.172 C 
ATOM      2  C   UNL     1      -6.909   3.862  -3.553  0.00  0.00    +0.028 C 
ATOM      3  C   UNL     1      -6.900   2.649  -3.017  0.00  0.00    +0.039 C 
ATOM      4  N   UNL     1      -7.981   1.768  -3.151  0.00  0.00    -0.282 N 
ATOM      5  C   UNL     1      -8.952   2.100  -4.084  0.00  0.00    +0.240 A 
ATOM      6  N   UNL     1      -8.998   3.331  -4.657  0.00  0.00    -0.202 N 
ATOM      7  N   UNL     1     -10.082   3.293  -5.533  0.00  0.00    -0.042 NA
ATOM      8  N   UNL     1     -10.596   2.110  -5.433  0.00  0.00    -0.021 NA
ATOM      9  N   UNL     1      -9.935   1.404  -4.580  0.00  0.00    -0.092 NA
ATOM     10  H   UNL     1      -8.048   0.962  -2.616  0.00  0.00    +0.155 HD
ENDROOT
BRANCH   1  13
ATOM     11  C   UNL     1      -8.425   7.439  -5.189  0.00  0.00    +0.068 C 
ATOM     12  C   UNL     1      -8.928   6.809  -3.915  0.00  0.00    +0.067 A 
ATOM     13  C   UNL     1      -8.767   5.469  -3.546  0.00  0.00    +0.040 A 
ATOM     14  C   UNL     1      -9.360   5.294  -2.341  0.00  0.00    +0.139 A 
ATOM     15  N   UNL     1      -9.873   6.492  -1.958  0.00  0.00    -0.221 N 
ATOM     16  N   UNL     1      -9.589   7.421  -2.967  0.00  0.00    -0.170 NA
ATOM     17 CL   UNL     1      -9.446   3.808  -1.447  0.00  0.00    -0.062 Cl
BRANCH  15  18
ATOM     18  C   UNL     1     -10.567   6.750  -0.768  0.00  0.00    +0.067 A 
ATOM     19  C   UNL     1     -11.402   5.782  -0.226  0.00  0.00    +0.028 A 
ATOM     20  C   UNL     1     -12.081   6.038   0.950  0.00  0.00    +0.002 A 
ATOM     21  C   UNL     1     -11.938   7.261   1.580  0.00  0.00    +0.000 A 
ATOM     22  C   UNL     1     -11.112   8.228   1.039  0.00  0.00    +0.002 A 
ATOM     23  C   UNL     1     -10.426   7.977  -0.133  0.00  0.00    +0.028 A 
ENDBRANCH  15  18
ENDBRANCH   1  13
BRANCH   3  24
ATOM     24  C   UNL     1      -5.712   2.214  -2.247  0.00  0.00    -0.004 A 
ATOM     25  C   UNL     1      -5.680   0.945  -1.668  0.00  0.00    +0.013 A 
ATOM     26  C   UNL     1      -4.573   0.544  -0.952  0.00  0.00    +0.046 A 
ATOM     27  C   UNL     1      -3.490   1.401  -0.805  0.00  0.00    +0.122 A 
ATOM     28  C   UNL     1      -3.521   2.667  -1.375  0.00  0.00    +0.046 A 
ATOM     29  C   UNL     1      -4.623   3.073  -2.098  0.00  0.00    +0.013 A 
BRANCH  27  30
ATOM     30  O   UNL     1      -2.401   1.002  -0.099  0.00  0.00    -0.478 OA
BRANCH  30  31
ATOM     31  C   UNL     1      -2.485  -0.261   0.565  0.00  0.00    +0.282 C 
ATOM     32  C   UNL     1      -2.113  -1.377  -0.412  0.00  0.00    +0.064 C 
BRANCH  31  33
ATOM     33  C   UNL     1      -1.533  -0.279   1.734  0.00  0.00    +0.395 C 
ATOM     34  O   UNL     1      -0.788   0.654   1.920  0.00  0.00    -0.242 OA
ATOM     35  O   UNL     1      -1.517  -1.328   2.570  0.00  0.00    -0.242 OA
ENDBRANCH  31  33
ENDBRANCH  30  31
ENDBRANCH  27  30
ENDBRANCH   3  24
TORSDOF 6
