REMARK  Name = ZINC27559058
REMARK  11 active torsions:
REMARK  status: ('A' for Active; 'I' for Inactive)
REMARK    1  A    between atoms: C_2  and  C_3
REMARK    2  A    between atoms: C_3  and  N_4
REMARK    3  A    between atoms: C_5  and  C_7
REMARK    4  A    between atoms: C_7  and  N_8
REMARK    5  A    between atoms: N_11  and  C_14
REMARK    6  A    between atoms: C_14  and  C_15
REMARK    7  A    between atoms: N_17  and  C_18
REMARK    8  A    between atoms: C_18  and  C_19
REMARK    9  A    between atoms: C_19  and  C_20
REMARK   10  A    between atoms: C_23  and  S_26
REMARK   11  A    between atoms: S_26  and  N_29
REMARK                            x       y       z     vdW  Elec       q    Type
REMARK                         _______ _______ _______ _____ _____    ______ ____
ROOT
ATOM      1  C   UNL     1      -0.543   1.446  -3.655  0.00  0.00    +0.227 C 
ATOM      2  O   UNL     1      -1.540   2.130  -3.753  0.00  0.00    -0.274 OA
ATOM      3  N   UNL     1      -0.067   1.120  -2.437  0.00  0.00    -0.314 N 
ATOM      4  H   UNL     1       0.837   0.499  -2.348  0.00  0.00    +0.149 HD
ENDROOT
BRANCH   1   5
ATOM      5  C   UNL     1       0.162   0.960  -4.895  0.00  0.00    +0.180 C 
BRANCH   5   9
ATOM      6  N   UNL     1      -1.837   1.182  -8.609  0.00  0.00    +0.387 N 
ATOM      7  C   UNL     1      -0.502   1.788  -8.508  0.00  0.00    -0.063 C 
ATOM      8  C   UNL     1       0.233   1.197  -7.304  0.00  0.00    +0.066 C 
ATOM      9  N   UNL     1      -0.549   1.447  -6.085  0.00  0.00    -0.298 NA
ATOM     10  C   UNL     1      -1.884   0.841  -6.186  0.00  0.00    +0.066 C 
ATOM     11  C   UNL     1      -2.619   1.432  -7.391  0.00  0.00    -0.063 C 
ATOM     12  H   UNL     1      -1.710   0.095  -8.714  0.00  0.00    -0.081 HD
BRANCH   6  13
ATOM     13  C   UNL     1      -2.548   1.669  -9.800  0.00  0.00    +0.019 C 
BRANCH  13  15
ATOM     14  N   UNL     1      -4.614   1.122 -11.045  0.00  0.00    -0.313 N 
ATOM     15  C   UNL     1      -3.798   0.853 -10.007  0.00  0.00    +0.197 C 
ATOM     16  O   UNL     1      -4.071  -0.045  -9.238  0.00  0.00    -0.278 OA
ATOM     17  H   UNL     1      -4.367   1.937 -11.742  0.00  0.00    +0.149 HD
BRANCH  14  18
ATOM     18  C   UNL     1      -5.829   0.330 -11.246  0.00  0.00    +0.131 C 
BRANCH  18  20
ATOM     19  C   UNL     1      -6.860  -0.001 -13.435  0.00  0.00    +0.005 C 
ATOM     20  C   UNL     1      -6.558   0.829 -12.467  0.00  0.00    -0.016 C 
ENDBRANCH  18  20
ENDBRANCH  14  18
ENDBRANCH  13  15
ENDBRANCH   6  13
ENDBRANCH   5   9
ENDBRANCH   1   5
BRANCH   3  21
ATOM     21  C   UNL     1      -0.753   1.593  -1.232  0.00  0.00    +0.109 C 
BRANCH  21  22
ATOM     22  C   UNL     1      -0.013   1.086   0.008  0.00  0.00    +0.054 C 
BRANCH  22  23
ATOM     23  C   UNL     1      -0.718   1.572   1.248  0.00  0.00    -0.046 A 
ATOM     24  C   UNL     1      -0.360   2.779   1.819  0.00  0.00    +0.005 A 
ATOM     25  C   UNL     1      -1.010   3.227   2.953  0.00  0.00    +0.029 A 
ATOM     26  C   UNL     1      -2.012   2.463   3.523  0.00  0.00    +0.105 A 
ATOM     27  C   UNL     1      -2.366   1.254   2.955  0.00  0.00    +0.029 A 
ATOM     28  C   UNL     1      -1.719   0.808   1.818  0.00  0.00    +0.005 A 
BRANCH  26  29
ATOM     29  S   UNL     1      -2.837   3.032   4.972  0.00  0.00    +0.056 S 
ATOM     30  O   UNL     1      -2.695   4.446   4.992  0.00  0.00    -0.153 OA
ATOM     31  O   UNL     1      -4.107   2.394   4.993  0.00  0.00    -0.153 OA
BRANCH  29  32
ATOM     32  N   UNL     1      -1.995   2.453   6.274  0.00  0.00    -0.204 NA
ATOM     33  H   UNL     1      -2.480   2.788   7.203  0.00  0.00    +0.144 HD
ATOM     34  H   UNL     1      -0.963   2.834   6.242  0.00  0.00    +0.144 HD
ENDBRANCH  29  32
ENDBRANCH  26  29
ENDBRANCH  22  23
ENDBRANCH  21  22
ENDBRANCH   3  21
TORSDOF 11
