REMARK  Name = ZINC36500672
REMARK  12 active torsions:
REMARK  status: ('A' for Active; 'I' for Inactive)
REMARK    1  A    between atoms: C_1  and  C_2
REMARK    2  A    between atoms: C_2  and  C_3
REMARK    3  A    between atoms: C_2  and  C_4
REMARK    4  A    between atoms: C_2  and  N_5
REMARK    5  A    between atoms: C_6  and  C_8
REMARK    6  A    between atoms: C_8  and  C_10
REMARK    7  A    between atoms: C_8  and  N_19
REMARK    8  A    between atoms: N_19  and  C_20
REMARK    9  A    between atoms: C_20  and  C_21
REMARK   10  A    between atoms: C_26  and  C_28
REMARK   11  A    between atoms: C_29  and  O_35
REMARK   12  A    between atoms: C_33  and  O_34
REMARK                            x       y       z     vdW  Elec       q    Type
REMARK                         _______ _______ _______ _____ _____    ______ ____
ROOT
ATOM      1  N   UNL     1       3.769  -0.362  -2.734  0.00  0.00    -0.274 N 
ATOM      2  C   UNL     1       4.585  -1.008  -3.590  0.00  0.00    +0.255 C 
ATOM      3  O   UNL     1       4.122  -1.775  -4.411  0.00  0.00    -0.270 OA
ENDROOT
BRANCH   2   4
ATOM      4  C   UNL     1       6.040  -0.783  -3.530  0.00  0.00    +0.119 A 
ATOM      5  C   UNL     1       6.846  -1.591  -2.716  0.00  0.00    +0.133 A 
ATOM      6  C   UNL     1       8.213  -1.371  -2.667  0.00  0.00    +0.046 A 
ATOM      7  C   UNL     1       8.783  -0.361  -3.419  0.00  0.00    +0.007 A 
ATOM      8  C   UNL     1       7.997   0.441  -4.226  0.00  0.00    +0.046 A 
ATOM      9  C   UNL     1       6.629   0.236  -4.293  0.00  0.00    +0.133 A 
BRANCH   9  10
ATOM     10  O   UNL     1       5.861   1.020  -5.090  0.00  0.00    -0.506 OA
ATOM     11  H   UNL     1       5.523   1.814  -4.653  0.00  0.00    +0.292 HD
ENDBRANCH   9  10
BRANCH   5  12
ATOM     12  O   UNL     1       6.289  -2.583  -1.976  0.00  0.00    -0.506 OA
ATOM     13  H   UNL     1       6.242  -3.434  -2.433  0.00  0.00    +0.292 HD
ENDBRANCH   5  12
ENDBRANCH   2   4
BRANCH   1  14
ATOM     14  C   UNL     1       2.322  -0.585  -2.793  0.00  0.00    +0.193 C 
BRANCH  14  15
ATOM     15  C   UNL     1       1.746   0.161  -3.969  0.00  0.00    -0.014 A 
ATOM     16  C   UNL     1       2.230   1.415  -4.295  0.00  0.00    +0.010 A 
ATOM     17  C   UNL     1       1.706   2.103  -5.373  0.00  0.00    +0.050 A 
ATOM     18  C   UNL     1       0.692   1.538  -6.130  0.00  0.00    +0.166 A 
ATOM     19  C   UNL     1       0.205   0.275  -5.801  0.00  0.00    +0.167 A 
ATOM     20  C   UNL     1       0.739  -0.411  -4.723  0.00  0.00    +0.055 A 
ATOM     21  O   UNL     1      -0.779  -0.057  -6.688  0.00  0.00    -0.453 OA
ATOM     22  C   UNL     1      -1.169   1.182  -7.310  0.00  0.00    +0.466 C 
ATOM     23  O   UNL     1       0.014   1.997  -7.221  0.00  0.00    -0.453 OA
ENDBRANCH  14  15
BRANCH  14  25
ATOM     24  N   UNL     1       0.344   0.016  -1.435  0.00  0.00    -0.309 N 
ATOM     25  C   UNL     1       1.685  -0.087  -1.521  0.00  0.00    +0.239 C 
ATOM     26  O   UNL     1       2.378   0.220  -0.575  0.00  0.00    -0.273 OA
ATOM     27  H   UNL     1      -0.211  -0.230  -2.192  0.00  0.00    +0.149 HD
BRANCH  24  29
ATOM     28  C   UNL     1       0.224   1.914   0.102  0.00  0.00    +0.031 C 
ATOM     29  C   UNL     1      -0.276   0.500  -0.199  0.00  0.00    +0.026 C 
ATOM     30  C   UNL     1       0.098  -0.430   0.957  0.00  0.00    +0.031 C 
ATOM     31  C   UNL     1      -1.797   0.521  -0.365  0.00  0.00    +0.031 C 
ENDBRANCH  24  29
ENDBRANCH  14  25
ENDBRANCH   1  14
BRANCH   1  32
ATOM     32  C   UNL     1       4.327   0.563  -1.745  0.00  0.00    +0.183 C 
BRANCH  32  33
ATOM     33  C   UNL     1       4.820  -0.215  -0.552  0.00  0.00    +0.122 A 
ATOM     34  C   UNL     1       6.095  -0.577  -0.321  0.00  0.00    +0.046 A 
ATOM     35  C   UNL     1       6.104  -1.286   0.902  0.00  0.00    +0.041 A 
ATOM     36  C   UNL     1       4.835  -1.314   1.346  0.00  0.00    +0.195 A 
ATOM     37  O   UNL     1       4.062  -0.659   0.464  0.00  0.00    -0.466 OA
ENDBRANCH  32  33
ENDBRANCH   1  32
TORSDOF 9
