REMARK  Name = ZINC64996414
REMARK  8 active torsions:
REMARK  status: ('A' for Active; 'I' for Inactive)
REMARK    1  A    between atoms: C_1  and  C_2
REMARK    2  A    between atoms: C_5  and  C_8
REMARK    3  A    between atoms: C_8  and  N_9
REMARK    4  A    between atoms: N_12  and  C_13
REMARK    5  A    between atoms: C_13  and  C_14
REMARK    6  A    between atoms: N_16  and  C_17
REMARK    7  A    between atoms: C_21  and  N_24
REMARK    8  A    between atoms: C_22  and  C_23
REMARK                            x       y       z     vdW  Elec       q    Type
REMARK                         _______ _______ _______ _____ _____    ______ ____
ROOT
ATOM      1  C   UNL     1       4.764  -8.152  -0.072  0.00  0.00    +0.234 C 
ATOM      2  O   UNL     1       5.514  -7.199  -0.064  0.00  0.00    -0.274 OA
ATOM      3  N   UNL     1       5.265  -9.403  -0.078  0.00  0.00    -0.284 N 
ATOM      4  H   UNL     1       4.668 -10.165  -0.004  0.00  0.00    +0.155 HD
ENDROOT
BRANCH   3   5
ATOM      5  C   UNL     1       6.645  -9.604  -0.193  0.00  0.00    +0.038 A 
ATOM      6  C   UNL     1       7.440  -8.639  -0.798  0.00  0.00    +0.024 A 
ATOM      7  C   UNL     1       8.803  -8.836  -0.911  0.00  0.00    +0.004 A 
ATOM      8  C   UNL     1       9.379  -9.993  -0.423  0.00  0.00    +0.024 A 
ATOM      9  C   UNL     1       8.589 -10.962   0.184  0.00  0.00    +0.041 A 
ATOM     10  C   UNL     1       7.221 -10.764   0.304  0.00  0.00    -0.008 A 
ATOM     11  C   UNL     1       6.362 -11.810   0.967  0.00  0.00    +0.047 C 
BRANCH   9  12
ATOM     12  N   UNL     1       9.174 -12.133   0.678  0.00  0.00    -0.271 N 
ATOM     13  C   UNL     1       9.358 -13.361  -0.105  0.00  0.00    +0.114 C 
ATOM     14  C   UNL     1      10.399 -14.194   0.674  0.00  0.00    +0.029 C 
ATOM     15  C   UNL     1      10.211 -13.667   2.115  0.00  0.00    +0.098 C 
ATOM     16  C   UNL     1       9.644 -12.277   1.929  0.00  0.00    +0.220 C 
ATOM     17  O   UNL     1       9.616 -11.418   2.785  0.00  0.00    -0.275 OA
ENDBRANCH   9  12
ENDBRANCH   3   5
BRANCH   1  18
ATOM     18  C   UNL     1       3.272  -7.937  -0.074  0.00  0.00    +0.202 C 
BRANCH  18  22
ATOM     19  N   UNL     1       1.446  -4.746  -0.059  0.00  0.00    -0.295 N 
ATOM     20  C   UNL     1       1.710  -6.068  -0.066  0.00  0.00    +0.300 C 
ATOM     21  O   UNL     1       0.796  -6.870  -0.074  0.00  0.00    -0.253 OA
ATOM     22  N   UNL     1       2.986  -6.501  -0.066  0.00  0.00    -0.291 N 
ATOM     23  H   UNL     1       2.175  -4.106  -0.053  0.00  0.00    +0.151 HD
ATOM     24  H   UNL     1       3.715  -5.861  -0.060  0.00  0.00    +0.151 HD
BRANCH  19  25
ATOM     25  C   UNL     1       0.058  -4.276  -0.059  0.00  0.00    +0.141 C 
BRANCH  25  30
ATOM     26  C   UNL     1      -0.021   1.502  -0.023  0.00  0.00    +0.044 C 
ATOM     27  C   UNL     1       0.000  -0.005  -0.033  0.00  0.00    -0.050 A 
ATOM     28  C   UNL     1       0.013  -0.689  -1.234  0.00  0.00    +0.003 A 
ATOM     29  C   UNL     1       0.033  -2.071  -1.243  0.00  0.00    +0.005 A 
ATOM     30  C   UNL     1       0.039  -2.769  -0.050  0.00  0.00    -0.030 A 
ATOM     31  C   UNL     1       0.026  -2.086   1.151  0.00  0.00    +0.005 A 
ATOM     32  C   UNL     1       0.011  -0.703   1.160  0.00  0.00    +0.003 A 
ENDBRANCH  25  30
ENDBRANCH  19  25
ENDBRANCH  18  22
ENDBRANCH   1  18
TORSDOF 6
