REMARK  Name = ZINC19794022
REMARK  8 active torsions:
REMARK  status: ('A' for Active; 'I' for Inactive)
REMARK    1  A    between atoms: C_1  and  C_2
REMARK    2  A    between atoms: C_3  and  N_9
REMARK    3  A    between atoms: C_10  and  C_12
REMARK    4  A    between atoms: C_13  and  C_30
REMARK    5  A    between atoms: C_17  and  C_22
REMARK    6  A    between atoms: C_18  and  O_21
REMARK    7  A    between atoms: C_22  and  N_23
REMARK    8  A    between atoms: N_26  and  C_29
REMARK                            x       y       z     vdW  Elec       q    Type
REMARK                         _______ _______ _______ _____ _____    ______ ____
ROOT
ATOM      1  C   UNL     1      -0.343  -0.012  -4.229  0.00  0.00    +0.086 A 
ATOM      2  C   UNL     1       0.863   0.281  -4.787  0.00  0.00    +0.115 A 
ATOM      3  O   UNL     1       0.683   0.913  -5.952  0.00  0.00    -0.459 OA
ATOM      4  C   UNL     1      -0.629   1.073  -6.227  0.00  0.00    +0.136 A 
ATOM      5  C   UNL     1      -1.356   0.500  -5.174  0.00  0.00    +0.040 A 
ATOM      6  C   UNL     1      -2.747   0.512  -5.192  0.00  0.00    +0.019 A 
ATOM      7  C   UNL     1      -3.410   1.089  -6.260  0.00  0.00    +0.122 A 
ATOM      8  C   UNL     1      -2.689   1.654  -7.306  0.00  0.00    +0.049 A 
ATOM      9  C   UNL     1      -1.311   1.654  -7.289  0.00  0.00    +0.050 A 
ATOM     10  C   UNL     1       2.201  -0.056  -4.182  0.00  0.00    +0.087 C 
ENDROOT
BRANCH   1  12
ATOM     11  N   UNL     1      -0.633   0.003  -1.805  0.00  0.00    -0.281 N 
ATOM     12  C   UNL     1      -0.588  -0.702  -2.953  0.00  0.00    +0.252 C 
ATOM     13  O   UNL     1      -0.749  -1.907  -2.934  0.00  0.00    -0.270 OA
ATOM     14  H   UNL     1      -0.580   0.971  -1.827  0.00  0.00    +0.155 HD
BRANCH  11  17
ATOM     15  C   UNL     1      -1.573   1.480   0.438  0.00  0.00    +0.047 C 
ATOM     16  C   UNL     1      -1.213   0.020   0.539  0.00  0.00    -0.011 A 
ATOM     17  C   UNL     1      -0.757  -0.663  -0.581  0.00  0.00    +0.038 A 
ATOM     18  C   UNL     1      -0.426  -2.008  -0.484  0.00  0.00    +0.023 A 
ATOM     19  C   UNL     1      -0.550  -2.663   0.726  0.00  0.00    +0.003 A 
ATOM     20  C   UNL     1      -1.004  -1.982   1.840  0.00  0.00    +0.020 A 
ATOM     21  C   UNL     1      -1.330  -0.640   1.748  0.00  0.00    +0.046 A 
ATOM     22 CL   UNL     1      -1.893   0.214   3.151  0.00  0.00    -0.083 Cl
ENDBRANCH  11  17
ENDBRANCH   1  12
BRANCH   7  23
ATOM     23  O   UNL     1      -4.770   1.105  -6.286  0.00  0.00    -0.506 OA
ATOM     24  H   UNL     1      -5.162   1.887  -5.873  0.00  0.00    +0.292 HD
ENDBRANCH   7  23
BRANCH   6  25
ATOM     25  C   UNL     1      -3.525  -0.102  -4.057  0.00  0.00    +0.123 C 
BRANCH  25  26
ATOM     26  N   UNL     1      -3.692  -1.541  -4.299  0.00  0.00    -0.302 NA
ATOM     27  C   UNL     1      -4.656  -1.784  -5.382  0.00  0.00    +0.066 C 
ATOM     28  C   UNL     1      -4.757  -3.289  -5.643  0.00  0.00    -0.064 C 
ATOM     29  N   UNL     1      -5.190  -3.971  -4.416  0.00  0.00    +0.379 N 
ATOM     30  C   UNL     1      -4.205  -3.739  -3.351  0.00  0.00    -0.064 C 
ATOM     31  C   UNL     1      -4.100  -2.238  -3.071  0.00  0.00    +0.066 C 
ATOM     32  C   UNL     1      -5.304  -5.413  -4.671  0.00  0.00    -0.096 C 
ATOM     33  H   UNL     1      -6.087  -3.608  -4.129  0.00  0.00    -0.082 HD
ENDBRANCH  25  26
ENDBRANCH   6  25
TORSDOF 5
