REMARK  Name = ZINC12616484
REMARK  6 active torsions:
REMARK  status: ('A' for Active; 'I' for Inactive)
REMARK    1  A    between atoms: C_3  and  C_6
REMARK    2  A    between atoms: C_6  and  C_8
REMARK    3  A    between atoms: C_6  and  N_15
REMARK    4  A    between atoms: N_15  and  C_16
REMARK    5  A    between atoms: C_16  and  C_17
REMARK    6  A    between atoms: N_19  and  N_20
REMARK                            x       y       z     vdW  Elec       q    Type
REMARK                         _______ _______ _______ _____ _____    ______ ____
ROOT
ATOM      1  C   UNL     1       5.364   0.581   3.117  0.00  0.00    +0.244 C 
ATOM      2  O   UNL     1       5.987  -0.335   2.623  0.00  0.00    -0.273 OA
ATOM      3  N   UNL     1       5.441   0.811   4.443  0.00  0.00    -0.223 N 
ATOM      4  H   UNL     1       4.943   1.544   4.838  0.00  0.00    +0.174 HD
ENDROOT
BRANCH   3   5
ATOM      5  N   UNL     1       6.241  -0.007   5.250  0.00  0.00    -0.137 N 
ATOM      6  C   UNL     1       5.760  -0.958   6.078  0.00  0.00    +0.263 C 
ATOM      7  O   UNL     1       4.599  -1.255   6.259  0.00  0.00    -0.271 OA
ATOM      8  C   UNL     1       6.975  -1.575   6.733  0.00  0.00    +0.114 C 
ATOM      9  C   UNL     1       7.068  -3.058   6.391  0.00  0.00    +0.035 C 
ATOM     10  C   UNL     1       8.320  -3.655   7.039  0.00  0.00    +0.003 C 
ATOM     11  C   UNL     1       8.247  -3.468   8.555  0.00  0.00    +0.000 C 
ATOM     12  C   UNL     1       8.178  -1.975   8.884  0.00  0.00    +0.003 C 
ATOM     13  C   UNL     1       6.925  -1.371   8.244  0.00  0.00    +0.035 C 
ATOM     14  N   UNL     1       8.105  -0.840   6.152  0.00  0.00    -0.284 N 
ATOM     15  C   UNL     1       7.578   0.052   5.292  0.00  0.00    +0.326 C 
ATOM     16  O   UNL     1       8.241   0.827   4.630  0.00  0.00    -0.251 OA
ATOM     17  H   UNL     1       9.046  -0.973   6.346  0.00  0.00    +0.151 HD
ENDBRANCH   3   5
BRANCH   1  18
ATOM     18  C   UNL     1       4.503   1.462   2.248  0.00  0.00    +0.179 C 
BRANCH  18  19
ATOM     19  N   UNL     1       4.589   1.008   0.854  0.00  0.00    -0.297 NA
ATOM     20  H   UNL     1       4.332   0.036   0.774  0.00  0.00    +0.123 HD
BRANCH  19  21
ATOM     21  C   UNL     1       3.761   1.845  -0.024  0.00  0.00    +0.122 C 
BRANCH  21  22
ATOM     22  C   UNL     1       4.303   1.790  -1.429  0.00  0.00    -0.025 A 
ATOM     23  C   UNL     1       4.760   0.592  -1.947  0.00  0.00    +0.008 A 
ATOM     24  C   UNL     1       5.258   0.540  -3.235  0.00  0.00    +0.038 A 
ATOM     25  C   UNL     1       5.298   1.689  -4.008  0.00  0.00    +0.123 A 
ATOM     26  C   UNL     1       4.840   2.888  -3.488  0.00  0.00    +0.038 A 
ATOM     27  C   UNL     1       4.338   2.936  -2.202  0.00  0.00    +0.008 A 
ATOM     28  F   UNL     1       5.784   1.639  -5.267  0.00  0.00    -0.205 F 
ENDBRANCH  21  22
BRANCH  21  31
ATOM     29  C   UNL     1      -0.016   1.351   0.009  0.00  0.00    +0.008 A 
ATOM     30  C   UNL     1       1.183   2.038   0.002  0.00  0.00    +0.013 A 
ATOM     31  C   UNL     1       2.343   1.336  -0.013  0.00  0.00    +0.011 A 
ATOM     32  S   UNL     1       1.754  -0.349  -0.017  0.00  0.00    -0.100 S 
ATOM     33  C   UNL     1       0.002  -0.004   0.002  0.00  0.00    +0.045 A 
ENDBRANCH  21  31
ENDBRANCH  19  21
ENDBRANCH  18  19
ENDBRANCH   1  18
TORSDOF 6
