REMARK  Name = ZINC38598845
REMARK  9 active torsions:
REMARK  status: ('A' for Active; 'I' for Inactive)
REMARK    1  A    between atoms: C_1  and  C_2
REMARK    2  A    between atoms: C_4  and  C_24
REMARK    3  A    between atoms: C_27  and  O_32
REMARK    4  A    between atoms: C_28  and  O_30
REMARK    5  A    between atoms: O_30  and  C_31
REMARK    6  A    between atoms: O_32  and  C_33
REMARK    7  A    between atoms: C_33  and  C_34
REMARK    8  A    between atoms: C_34  and  C_35
REMARK    9  A    between atoms: C_34  and  C_36
REMARK                            x       y       z     vdW  Elec       q    Type
REMARK                         _______ _______ _______ _____ _____    ______ ____
ROOT
ATOM      1  C   UNL     1      -0.018   1.503   0.010  0.00  0.00    +0.062 C 
ATOM      2  C   UNL     1       0.002  -0.004   0.002  0.00  0.00    +0.022 C 
ATOM      3  C   UNL     1      -1.064  -0.752   0.003  0.00  0.00    -0.004 C 
ATOM      4  C   UNL     1      -2.521  -0.388   0.166  0.00  0.00    +0.059 C 
ATOM      5  C   UNL     1      -3.003  -1.102   1.437  0.00  0.00    +0.108 C 
ATOM      6  C   UNL     1      -2.404  -2.464   1.570  0.00  0.00    +0.216 C 
ATOM      7  O   UNL     1      -2.986  -3.238   2.301  0.00  0.00    -0.276 OA
ATOM      8  N   UNL     1      -1.302  -2.927   0.979  0.00  0.00    -0.292 N 
ATOM      9  C   UNL     1      -0.616  -2.202  -0.084  0.00  0.00    +0.210 C 
ATOM     10  N   UNL     1       0.834  -2.134   0.106  0.00  0.00    -0.213 N 
ATOM     11  N   UNL     1       1.158  -0.770  -0.014  0.00  0.00    -0.265 N 
ATOM     12  C   UNL     1       1.678  -3.159   0.339  0.00  0.00    +0.150 C 
ATOM     13  N   UNL     1       1.241  -4.403   0.418  0.00  0.00    -0.221 NA
ATOM     14  C   UNL     1       2.016  -5.443   0.709  0.00  0.00    +0.225 C 
ATOM     15  N   UNL     1       3.218  -5.304   1.255  0.00  0.00    -0.218 NA
ATOM     16  C   UNL     1       3.637  -4.055   1.434  0.00  0.00    +0.164 C 
ATOM     17  N   UNL     1       4.394  -3.467   2.311  0.00  0.00    -0.219 NA
ATOM     18  C   UNL     1       4.229  -2.138   2.282  0.00  0.00    +0.218 C 
ATOM     19  N   UNL     1       3.490  -1.734   1.286  0.00  0.00    -0.253 NA
ATOM     20  C   UNL     1       3.156  -2.931   0.513  0.00  0.00    +0.239 C 
ATOM     21  H   UNL     1      -0.943  -3.780   1.267  0.00  0.00    +0.151 HD
ATOM     22  H   UNL     1       2.058  -0.416  -0.093  0.00  0.00    +0.170 HD
ENDROOT
BRANCH   4  23
ATOM     23  C   UNL     1      -3.309  -0.861  -1.028  0.00  0.00    -0.036 A 
ATOM     24  C   UNL     1      -3.348  -2.208  -1.339  0.00  0.00    +0.008 A 
ATOM     25  C   UNL     1      -4.070  -2.647  -2.433  0.00  0.00    +0.050 A 
ATOM     26  C   UNL     1      -4.757  -1.737  -3.220  0.00  0.00    +0.162 A 
ATOM     27  C   UNL     1      -4.718  -0.382  -2.907  0.00  0.00    +0.162 A 
ATOM     28  C   UNL     1      -3.997   0.051  -1.806  0.00  0.00    +0.053 A 
BRANCH  27  29
ATOM     29  O   UNL     1      -5.391   0.515  -3.676  0.00  0.00    -0.491 OA
ATOM     30  C   UNL     1      -5.306   1.890  -3.295  0.00  0.00    +0.277 C 
ENDBRANCH  27  29
BRANCH  26  31
ATOM     31  O   UNL     1      -5.468  -2.167  -4.297  0.00  0.00    -0.488 OA
BRANCH  31  32
ATOM     32  C   UNL     1      -5.462  -3.572  -4.559  0.00  0.00    +0.232 C 
BRANCH  32  33
ATOM     33  C   UNL     1      -6.309  -3.863  -5.799  0.00  0.00    +0.020 C 
ATOM     34  C   UNL     1      -5.655  -3.221  -7.025  0.00  0.00    +0.010 C 
ATOM     35  C   UNL     1      -6.405  -5.376  -6.007  0.00  0.00    +0.010 C 
ENDBRANCH  32  33
ENDBRANCH  31  32
ENDBRANCH  26  31
ENDBRANCH   4  23
TORSDOF 5
