REMARK  Name = ZINC11029435
REMARK  8 active torsions:
REMARK  status: ('A' for Active; 'I' for Inactive)
REMARK    1  A    between atoms: C_1  and  C_2
REMARK    2  A    between atoms: C_2  and  C_4
REMARK    3  A    between atoms: C_2  and  O_21
REMARK    4  A    between atoms: C_9  and  C_12
REMARK    5  A    between atoms: C_16  and  N_18
REMARK    6  A    between atoms: O_21  and  C_22
REMARK    7  A    between atoms: C_22  and  C_24
REMARK    8  A    between atoms: C_24  and  C_25
REMARK                            x       y       z     vdW  Elec       q    Type
REMARK                         _______ _______ _______ _____ _____    ______ ____
ROOT
ATOM      1  C   UNL     1       1.935   9.537   0.034  0.00  0.00    +0.259 C 
ATOM      2  O   UNL     1       0.803   9.971   0.047  0.00  0.00    -0.271 OA
ATOM      3  N   UNL     1       2.147   8.207   0.025  0.00  0.00    -0.262 N 
ATOM      4  C   UNL     1       1.069   7.331   0.030  0.00  0.00    +0.165 A 
ATOM      5  N   UNL     1       1.064   6.011   0.028  0.00  0.00    -0.225 NA
ATOM      6  C   UNL     1      -0.070   5.327   0.029  0.00  0.00    +0.080 A 
ATOM      7  C   UNL     1      -1.260   6.001   0.044  0.00  0.00    +0.076 A 
ATOM      8  S   UNL     1      -0.682   7.693   0.048  0.00  0.00    -0.060 S 
ATOM      9  H   UNL     1       3.053   7.860   0.014  0.00  0.00    +0.157 HD
ENDROOT
BRANCH   6  10
ATOM     10  C   UNL     1      -0.050   3.844   0.022  0.00  0.00    +0.003 A 
ATOM     11  C   UNL     1      -1.246   3.128   0.030  0.00  0.00    +0.010 A 
ATOM     12  C   UNL     1      -1.222   1.749   0.017  0.00  0.00    +0.003 A 
ATOM     13  C   UNL     1      -0.013   1.076   0.008  0.00  0.00    +0.033 A 
ATOM     14  C   UNL     1       1.177   1.781   0.000  0.00  0.00    +0.127 A 
ATOM     15  C   UNL     1       1.165   3.161   0.007  0.00  0.00    +0.042 A 
BRANCH  14  16
ATOM     16  N   UNL     1       2.467   1.054  -0.015  0.00  0.00    +0.056 N 
ATOM     17  O   UNL     1       2.479  -0.164  -0.022  0.00  0.00    -0.126 OA
ATOM     18  O   UNL     1       3.515   1.674  -0.022  0.00  0.00    -0.126 OA
ENDBRANCH  14  16
ENDBRANCH   6  10
BRANCH   1  20
ATOM     19  C   UNL     1       3.898  10.328   1.328  0.00  0.00    +0.062 C 
ATOM     20  C   UNL     1       3.106  10.487   0.029  0.00  0.00    +0.259 C 
BRANCH  20  21
ATOM     21  O   UNL     1       2.621  11.852  -0.078  0.00  0.00    -0.452 OA
BRANCH  21  22
ATOM     22  C   UNL     1       3.420  12.735  -0.697  0.00  0.00    +0.308 C 
ATOM     23  O   UNL     1       4.489  12.380  -1.134  0.00  0.00    -0.251 OA
BRANCH  22  24
ATOM     24  C   UNL     1       2.984  14.170  -0.845  0.00  0.00    +0.124 C 
BRANCH  24  25
ATOM     25  C   UNL     1       4.069  14.960  -1.581  0.00  0.00    -0.000 C 
ATOM     26  C   UNL     1       5.328  15.077  -0.697  0.00  0.00    +0.004 C 
ATOM     27  C   UNL     1       5.865  16.500  -0.988  0.00  0.00    +0.000 C 
ATOM     28  C   UNL     1       4.567  17.335  -1.121  0.00  0.00    +0.000 C 
ATOM     29  C   UNL     1       3.585  16.395  -1.850  0.00  0.00    +0.004 C 
ENDBRANCH  24  25
ENDBRANCH  22  24
ENDBRANCH  21  22
ENDBRANCH  20  21
ENDBRANCH   1  20
TORSDOF 7
