REMARK  Name = ZINC30874700
REMARK  4 active torsions:
REMARK  status: ('A' for Active; 'I' for Inactive)
REMARK    1  A    between atoms: C_6  and  C_7
REMARK    2  A    between atoms: C_7  and  N_8
REMARK    3  A    between atoms: N_14  and  S_15
REMARK    4  A    between atoms: S_15  and  C_18
REMARK                            x       y       z     vdW  Elec       q    Type
REMARK                         _______ _______ _______ _____ _____    ______ ____
ROOT
ATOM      1  N   UNL     1       4.566  -2.449  -3.928  0.00  0.00    -0.267 NA
ATOM      2  C   UNL     1       3.281  -2.475  -4.651  0.00  0.00    +0.193 C 
ATOM      3  N   UNL     1       2.272  -3.033  -3.736  0.00  0.00    -0.303 N 
ATOM      4  C   UNL     1       2.291  -2.627  -2.420  0.00  0.00    +0.202 C 
ATOM      5  N   UNL     1       3.296  -1.966  -1.938  0.00  0.00    -0.303 N 
ATOM      6  C   UNL     1       4.462  -1.600  -2.735  0.00  0.00    +0.193 C 
ATOM      7  N   UNL     1       1.223  -2.922  -1.606  0.00  0.00    -0.097 NA
ATOM      8  H   UNL     1       1.530  -3.754  -4.110  0.00  0.00    +0.150 HD
ATOM      9  H   UNL     1       3.244  -1.679  -0.877  0.00  0.00    +0.150 HD
ENDROOT
BRANCH   7  10
ATOM     10  S   UNL     1       1.232  -2.441  -0.022  0.00  0.00    +0.102 S 
ATOM     11  O   UNL     1       2.487  -2.833   0.515  0.00  0.00    -0.146 OA
ATOM     12  O   UNL     1      -0.003  -2.866   0.538  0.00  0.00    -0.146 OA
BRANCH  10  13
ATOM     13  C   UNL     1       1.208  -0.679  -0.013  0.00  0.00    +0.113 A 
ATOM     14  C   UNL     1       0.002  -0.004   0.002  0.00  0.00    +0.030 A 
ATOM     15  C   UNL     1      -0.017   1.378   0.010  0.00  0.00    +0.017 A 
ATOM     16  C   UNL     1       1.172   2.086   0.002  0.00  0.00    +0.018 A 
ATOM     17  C   UNL     1       2.379   1.410  -0.013  0.00  0.00    +0.017 A 
ATOM     18  C   UNL     1       2.396   0.028  -0.020  0.00  0.00    +0.030 A 
ATOM     19 BR   UNL     1       1.147   3.976   0.013  0.00  0.00    -0.050 Br
ENDBRANCH  10  13
ENDBRANCH   7  10
BRANCH   1  20
ATOM     20  C   UNL     1       5.654  -1.995  -4.805  0.00  0.00    +0.122 C 
BRANCH  20  26
ATOM     21  C   UNL     1       7.123  -0.495  -3.442  0.00  0.00    +0.006 A 
ATOM     22  C   UNL     1       8.255  -0.269  -2.682  0.00  0.00    +0.020 A 
ATOM     23  C   UNL     1       9.163  -1.291  -2.472  0.00  0.00    +0.041 A 
ATOM     24  C   UNL     1       8.934  -2.542  -3.018  0.00  0.00    +0.020 A 
ATOM     25  C   UNL     1       7.799  -2.769  -3.773  0.00  0.00    +0.006 A 
ATOM     26  C   UNL     1       6.892  -1.747  -3.982  0.00  0.00    -0.033 A 
ATOM     27 CL   UNL     1      10.589  -1.005  -1.524  0.00  0.00    -0.084 Cl
ENDBRANCH  20  26
ENDBRANCH   1  20
TORSDOF 4
