REMARK  Name = ZINC39404392
REMARK  13 active torsions:
REMARK  status: ('A' for Active; 'I' for Inactive)
REMARK    1  A    between atoms: C_1  and  C_2
REMARK    2  A    between atoms: C_2  and  O_3
REMARK    3  A    between atoms: O_3  and  C_4
REMARK    4  A    between atoms: C_4  and  C_6
REMARK    5  A    between atoms: C_8  and  C_37
REMARK    6  A    between atoms: C_10  and  C_35
REMARK    7  A    between atoms: C_12  and  N_15
REMARK    8  A    between atoms: C_16  and  C_18
REMARK    9  A    between atoms: C_18  and  S_19
REMARK   10  A    between atoms: S_19  and  C_20
REMARK   11  A    between atoms: N_26  and  N_27
REMARK   12  A    between atoms: C_28  and  C_29
REMARK   13  A    between atoms: C_32  and  C_34
REMARK                            x       y       z     vdW  Elec       q    Type
REMARK                         _______ _______ _______ _____ _____    ______ ____
ROOT
ATOM      1  C   UNL     1       1.133  -5.349  -8.114  0.00  0.00    +0.168 C 
ENDROOT
BRANCH   1   3
ATOM      2  N   UNL     1       1.439  -4.518  -5.805  0.00  0.00    -0.302 N 
ATOM      3  C   UNL     1       0.806  -5.362  -6.644  0.00  0.00    +0.224 C 
ATOM      4  O   UNL     1      -0.026  -6.132  -6.214  0.00  0.00    -0.275 OA
ATOM      5  H   UNL     1       2.105  -3.902  -6.148  0.00  0.00    +0.150 HD
BRANCH   2   9
ATOM      6  C   UNL     1       1.442  -2.379  -2.596  0.00  0.00    +0.161 C 
ATOM      7  C   UNL     1       2.165  -3.706  -2.227  0.00  0.00    +0.029 C 
ATOM      8  C   UNL     1       2.414  -4.492  -3.525  0.00  0.00    +0.126 C 
ATOM      9  C   UNL     1       1.122  -4.531  -4.375  0.00  0.00    +0.149 C 
ATOM     10  S   UNL     1       0.265  -2.980  -3.879  0.00  0.00    -0.122 S 
ATOM     11  C   UNL     1       1.284  -4.530  -1.286  0.00  0.00    +0.010 C 
BRANCH   6  12
ATOM     12  C   UNL     1       0.711  -1.809  -1.408  0.00  0.00    +0.321 C 
ATOM     13  O   UNL     1       1.259  -1.009  -0.687  0.00  0.00    -0.250 OA
BRANCH  12  14
ATOM     14  O   UNL     1      -0.551  -2.189  -1.152  0.00  0.00    -0.464 OA
BRANCH  14  16
ATOM     15  C   UNL     1      -2.606  -2.159   0.120  0.00  0.00    +0.048 C 
ATOM     16  C   UNL     1      -1.184  -1.608  -0.010  0.00  0.00    +0.229 C 
ENDBRANCH  14  16
ENDBRANCH  12  14
ENDBRANCH   6  12
BRANCH   8  17
ATOM     17  C   UNL     1       3.484  -3.837  -4.295  0.00  0.00    +0.069 C 
ATOM     18  N   UNL     1       4.310  -3.332  -4.889  0.00  0.00    -0.196 NA
ENDBRANCH   8  17
ENDBRANCH   2   9
ENDBRANCH   1   3
BRANCH   1  19
ATOM     19  S   UNL     1       0.123  -6.589  -8.970  0.00  0.00    -0.100 S 
BRANCH  19  20
ATOM     20  C   UNL     1       0.630  -6.447 -10.706  0.00  0.00    +0.303 C 
ATOM     21  N   UNL     1       2.080  -6.677 -10.842  0.00  0.00    -0.213 NA
ATOM     22  C   UNL     1       2.556  -5.563 -11.326  0.00  0.00    +0.227 C 
ATOM     23  N   UNL     1       1.564  -4.646 -11.512  0.00  0.00    -0.249 N 
ATOM     24  N   UNL     1       0.446  -5.069 -11.188  0.00  0.00    -0.171 NA
ATOM     25  N   UNL     1       3.886  -5.343 -11.610  0.00  0.00    -0.206 N 
ATOM     26  H   UNL     1       4.170  -4.487 -11.968  0.00  0.00    +0.177 HD
ATOM     27  H   UNL     1       1.718  -3.755 -11.864  0.00  0.00    +0.192 HD
BRANCH  25  28
ATOM     28  N   UNL     1       4.828  -6.354 -11.381  0.00  0.00    -0.184 NA
ATOM     29  C   UNL     1       6.084  -6.145 -11.649  0.00  0.00    +0.176 C 
BRANCH  29  30
ATOM     30  C   UNL     1       7.070  -7.203 -11.409  0.00  0.00    +0.148 A 
ATOM     31  C   UNL     1       8.413  -7.115 -11.640  0.00  0.00    +0.051 A 
ATOM     32  C   UNL     1       8.969  -8.354 -11.271  0.00  0.00    +0.045 A 
ATOM     33  C   UNL     1       7.955  -9.130 -10.837  0.00  0.00    +0.103 A 
ATOM     34  O   UNL     1       6.811  -8.431 -10.917  0.00  0.00    -0.459 OA
ATOM     35  C   UNL     1       8.085 -10.547 -10.340  0.00  0.00    +0.086 C 
ENDBRANCH  29  30
ENDBRANCH  25  28
ENDBRANCH  19  20
ENDBRANCH   1  19
TORSDOF 10
