REMARK  Name = ZINC59599507
REMARK  13 active torsions:
REMARK  status: ('A' for Active; 'I' for Inactive)
REMARK    1  A    between atoms: C_1  and  C_2
REMARK    2  A    between atoms: C_2  and  O_3
REMARK    3  A    between atoms: O_3  and  C_4
REMARK    4  A    between atoms: C_6  and  C_22
REMARK    5  A    between atoms: C_9  and  O_10
REMARK    6  A    between atoms: O_10  and  C_11
REMARK    7  A    between atoms: C_12  and  N_21
REMARK    8  A    between atoms: N_13  and  C_20
REMARK    9  A    between atoms: N_16  and  C_19
REMARK   10  A    between atoms: C_23  and  C_24
REMARK   11  A    between atoms: C_23  and  C_26
REMARK   12  A    between atoms: N_28  and  C_29
REMARK   13  A    between atoms: C_34  and  C_35
REMARK                            x       y       z     vdW  Elec       q    Type
REMARK                         _______ _______ _______ _____ _____    ______ ____
ROOT
ATOM      1  C   UNL     1      -1.757  -2.115  -0.365  0.00  0.00    +0.163 A 
ATOM      2  C   UNL     1      -0.518  -2.700  -0.211  0.00  0.00    +0.057 A 
ATOM      3  C   UNL     1      -0.425  -4.066   0.096  0.00  0.00    -0.020 A 
ATOM      4  C   UNL     1      -1.593  -4.828   0.244  0.00  0.00    +0.012 A 
ATOM      5  C   UNL     1      -2.825  -4.234   0.088  0.00  0.00    +0.050 A 
ATOM      6  C   UNL     1      -2.915  -2.879  -0.211  0.00  0.00    +0.170 A 
ENDROOT
BRANCH   3   7
ATOM      7  C   UNL     1       0.887  -4.694   0.261  0.00  0.00    +0.032 C 
ATOM      8  C   UNL     1       1.036  -5.764   1.118  0.00  0.00    +0.114 C 
BRANCH   8   9
ATOM      9  C   UNL     1       2.308  -6.500   1.161  0.00  0.00    +0.259 C 
ATOM     10  O   UNL     1       3.229  -6.165   0.440  0.00  0.00    -0.269 OA
ATOM     11  N   UNL     1       2.454  -7.546   1.999  0.00  0.00    -0.281 N 
ATOM     12  H   UNL     1       1.696  -7.866   2.511  0.00  0.00    +0.155 HD
BRANCH  11  13
ATOM     13  C   UNL     1       3.699  -8.169   2.129  0.00  0.00    +0.038 A 
ATOM     14  C   UNL     1       4.584  -8.186   1.058  0.00  0.00    +0.043 A 
ATOM     15  C   UNL     1       5.814  -8.803   1.190  0.00  0.00    +0.043 A 
ATOM     16  C   UNL     1       6.163  -9.402   2.388  0.00  0.00    +0.020 A 
ATOM     17  C   UNL     1       5.284  -9.386   3.455  0.00  0.00    +0.006 A 
ATOM     18  C   UNL     1       4.056  -8.767   3.330  0.00  0.00    -0.029 A 
ATOM     19  C   UNL     1       3.101  -8.745   4.496  0.00  0.00    +0.045 C 
ATOM     20 CL   UNL     1       6.921  -8.826  -0.147  0.00  0.00    -0.083 Cl
ENDBRANCH  11  13
ENDBRANCH   8   9
BRANCH   8  21
ATOM     21  C   UNL     1      -0.048  -6.158   1.967  0.00  0.00    +0.104 C 
ATOM     22  N   UNL     1      -0.908  -6.471   2.640  0.00  0.00    -0.191 NA
ENDBRANCH   8  21
ENDBRANCH   3   7
BRANCH   1  23
ATOM     23  O   UNL     1      -1.851  -0.791  -0.663  0.00  0.00    -0.489 OA
BRANCH  23  25
ATOM     24  C   UNL     1      -0.930   1.392  -1.138  0.00  0.00    +0.048 C 
ATOM     25  C   UNL     1      -0.625  -0.070  -0.807  0.00  0.00    +0.226 C 
ENDBRANCH  23  25
ENDBRANCH   1  23
BRANCH   6  26
ATOM     26  O   UNL     1      -4.133  -2.299  -0.357  0.00  0.00    -0.443 OA
BRANCH  26  27
ATOM     27  C   UNL     1      -5.233  -3.102  -0.316  0.00  0.00    +0.230 A 
ATOM     28  C   UNL     1      -6.123  -3.007   0.720  0.00  0.00    +0.149 A 
ATOM     29  N   UNL     1      -7.227  -3.828   0.739  0.00  0.00    -0.282 N 
ATOM     30  C   UNL     1      -7.431  -4.717  -0.251  0.00  0.00    +0.333 A 
ATOM     31  O   UNL     1      -8.412  -5.434  -0.218  0.00  0.00    -0.246 OA
ATOM     32  N   UNL     1      -6.566  -4.823  -1.277  0.00  0.00    -0.261 N 
ATOM     33  C   UNL     1      -5.475  -4.035  -1.339  0.00  0.00    +0.301 A 
ATOM     34  O   UNL     1      -4.699  -4.135  -2.275  0.00  0.00    -0.263 OA
ATOM     35  C   UNL     1      -6.817  -5.801  -2.339  0.00  0.00    +0.157 C 
ATOM     36  C   UNL     1      -8.185  -3.736   1.843  0.00  0.00    +0.155 C 
BRANCH  28  37
ATOM     37  N   UNL     1      -5.916  -2.100   1.732  0.00  0.00    -0.341 N 
ATOM     38  H   UNL     1      -5.093  -1.587   1.763  0.00  0.00    +0.144 HD
ATOM     39  H   UNL     1      -6.592  -1.973   2.416  0.00  0.00    +0.144 HD
ENDBRANCH  28  37
ENDBRANCH  26  27
ENDBRANCH   6  26
TORSDOF 9
