REMARK  Name = ZINC66978347
REMARK  7 active torsions:
REMARK  status: ('A' for Active; 'I' for Inactive)
REMARK    1  A    between atoms: C_4  and  C_7
REMARK    2  A    between atoms: C_7  and  C_9
REMARK    3  A    between atoms: C_7  and  N_15
REMARK    4  A    between atoms: C_9  and  N_10
REMARK    5  A    between atoms: N_18  and  C_19
REMARK    6  A    between atoms: C_19  and  C_20
REMARK    7  A    between atoms: C_20  and  O_30
REMARK                            x       y       z     vdW  Elec       q    Type
REMARK                         _______ _______ _______ _____ _____    ______ ____
ROOT
ATOM      1  N   UNL     1       3.193  -1.637  -1.078  0.00  0.00    -0.291 N 
ATOM      2  C   UNL     1       4.261  -2.299  -1.566  0.00  0.00    +0.300 C 
ATOM      3  O   UNL     1       5.383  -1.885  -1.351  0.00  0.00    -0.253 OA
ATOM      4  N   UNL     1       4.084  -3.420  -2.293  0.00  0.00    -0.296 N 
ATOM      5  H   UNL     1       2.296  -1.927  -1.308  0.00  0.00    +0.151 HD
ATOM      6  H   UNL     1       3.188  -3.751  -2.465  0.00  0.00    +0.150 HD
ENDROOT
BRANCH   1   7
ATOM      7  C   UNL     1       3.386  -0.480  -0.201  0.00  0.00    +0.126 C 
BRANCH   7  11
ATOM      8  C   UNL     1      -0.098   1.988  -0.310  0.00  0.00    +0.000 A 
ATOM      9  C   UNL     1       1.157   2.566  -0.289  0.00  0.00    +0.000 A 
ATOM     10  C   UNL     1       2.285   1.767  -0.254  0.00  0.00    +0.005 A 
ATOM     11  C   UNL     1       2.157   0.391  -0.239  0.00  0.00    -0.025 A 
ATOM     12  C   UNL     1       0.901  -0.187  -0.259  0.00  0.00    +0.005 A 
ATOM     13  C   UNL     1      -0.226   0.612  -0.296  0.00  0.00    +0.000 A 
ENDBRANCH   7  11
BRANCH   7  14
ATOM     14  C   UNL     1       3.627  -0.961   1.232  0.00  0.00    +0.172 C 
BRANCH  14  15
ATOM     15  N   UNL     1       3.962   0.185   2.082  0.00  0.00    -0.250 N 
ATOM     16  C   UNL     1       3.337   0.559   3.212  0.00  0.00    +0.219 A 
ATOM     17  N   UNL     1       3.937   1.627   3.672  0.00  0.00    -0.223 NA
ATOM     18  C   UNL     1       4.944   1.963   2.866  0.00  0.00    +0.244 A 
ATOM     19  N   UNL     1       5.002   1.106   1.881  0.00  0.00    -0.158 NA
ENDBRANCH  14  15
ENDBRANCH   7  14
ENDBRANCH   1   7
BRANCH   4  20
ATOM     20  C   UNL     1       5.244  -4.140  -2.823  0.00  0.00    +0.145 C 
BRANCH  20  21
ATOM     21  C   UNL     1       4.768  -5.304  -3.694  0.00  0.00    +0.107 C 
ATOM     22  C   UNL     1       3.862  -6.214  -2.868  0.00  0.00    +0.041 C 
ATOM     23  C   UNL     1       3.573  -7.480  -3.683  0.00  0.00    +0.008 C 
ATOM     24  C   UNL     1       4.859  -8.300  -3.769  0.00  0.00    +0.035 C 
ATOM     25  C   UNL     1       6.004  -7.443  -4.239  0.00  0.00    -0.041 A 
ATOM     26  C   UNL     1       5.964  -6.067  -4.201  0.00  0.00    -0.011 A 
ATOM     27  C   UNL     1       7.058  -5.335  -4.644  0.00  0.00    +0.007 A 
ATOM     28  C   UNL     1       8.182  -5.974  -5.124  0.00  0.00    +0.000 A 
ATOM     29  C   UNL     1       8.221  -7.356  -5.166  0.00  0.00    +0.000 A 
ATOM     30  C   UNL     1       7.136  -8.085  -4.725  0.00  0.00    +0.004 A 
BRANCH  21  31
ATOM     31  O   UNL     1       4.032  -4.790  -4.806  0.00  0.00    -0.382 OA
ATOM     32  H   UNL     1       4.541  -4.196  -5.374  0.00  0.00    +0.211 HD
ENDBRANCH  21  31
ENDBRANCH  20  21
ENDBRANCH   4  20
TORSDOF 7
