REMARK  Name = ZINC24800481
REMARK  12 active torsions:
REMARK  status: ('A' for Active; 'I' for Inactive)
REMARK    1  A    between atoms: C_1  and  C_2
REMARK    2  A    between atoms: C_2  and  C_3
REMARK    3  A    between atoms: C_3  and  N_4
REMARK    4  A    between atoms: N_4  and  C_5
REMARK    5  A    between atoms: N_4  and  C_17
REMARK    6  A    between atoms: C_5  and  C_6
REMARK    7  A    between atoms: N_8  and  C_9
REMARK    8  A    between atoms: C_17  and  C_18
REMARK    9  A    between atoms: N_20  and  N_21
REMARK   10  A    between atoms: C_24  and  C_28
REMARK   11  A    between atoms: C_24  and  C_29
REMARK   12  A    between atoms: C_29  and  C_30
REMARK                            x       y       z     vdW  Elec       q    Type
REMARK                         _______ _______ _______ _____ _____    ______ ____
ROOT
ATOM      1  N   UNL     1       3.228   6.966   2.966  0.00  0.00    +0.391 N 
ATOM      2  H   UNL     1       4.052   6.338   3.335  0.00  0.00    -0.080 HD
ENDROOT
BRANCH   1   3
ATOM      3  C   UNL     1       3.193   6.848   1.502  0.00  0.00    -0.078 C 
BRANCH   3   5
ATOM      4  C   UNL     1       1.926   7.458  -0.564  0.00  0.00    +0.002 C 
ATOM      5  C   UNL     1       1.992   7.622   0.956  0.00  0.00    -0.022 C 
ENDBRANCH   3   5
ENDBRANCH   1   3
BRANCH   1   6
ATOM      6  C   UNL     1       3.495   8.351   3.376  0.00  0.00    +0.020 C 
BRANCH   6   7
ATOM      7  C   UNL     1       4.936   8.690   3.092  0.00  0.00    +0.201 C 
ATOM      8  O   UNL     1       5.693   7.831   2.691  0.00  0.00    -0.278 OA
ATOM      9  N   UNL     1       5.383   9.947   3.283  0.00  0.00    -0.286 N 
ATOM     10  H   UNL     1       4.720  10.705   3.726  0.00  0.00    +0.155 HD
BRANCH   9  11
ATOM     11  C   UNL     1       6.691  10.288   2.918  0.00  0.00    +0.052 A 
ATOM     12  C   UNL     1       7.687   9.320   2.915  0.00  0.00    +0.026 A 
ATOM     13  C   UNL     1       8.976   9.659   2.555  0.00  0.00    +0.022 A 
ATOM     14  C   UNL     1       9.277  10.962   2.197  0.00  0.00    +0.042 A 
ATOM     15  C   UNL     1       8.287  11.929   2.200  0.00  0.00    +0.041 A 
ATOM     16  C   UNL     1       6.993  11.594   2.553  0.00  0.00    +0.064 A 
ATOM     17 CL   UNL     1       5.750  12.805   2.549  0.00  0.00    -0.082 Cl
ATOM     18 CL   UNL     1      10.899  11.384   1.745  0.00  0.00    -0.083 Cl
ENDBRANCH   9  11
ENDBRANCH   6   7
ENDBRANCH   1   6
BRANCH   1  19
ATOM     19  C   UNL     1       1.981   6.471   3.563  0.00  0.00    +0.021 C 
BRANCH  19  20
ATOM     20  C   UNL     1       1.864   4.987   3.325  0.00  0.00    +0.213 C 
ATOM     21  O   UNL     1       2.734   4.400   2.718  0.00  0.00    -0.276 OA
ATOM     22  N   UNL     1       0.792   4.313   3.788  0.00  0.00    -0.225 N 
ATOM     23  H   UNL     1       0.003   4.846   4.339  0.00  0.00    +0.173 HD
BRANCH  22  24
ATOM     24  N   UNL     1       0.683   2.934   3.567  0.00  0.00    -0.137 N 
ATOM     25  C   UNL     1      -0.145   2.375   2.663  0.00  0.00    +0.263 C 
ATOM     26  O   UNL     1      -0.908   2.949   1.915  0.00  0.00    -0.271 OA
ATOM     27  C   UNL     1       0.076   0.880   2.773  0.00  0.00    +0.111 C 
ATOM     28  N   UNL     1       1.099   0.758   3.826  0.00  0.00    -0.284 N 
ATOM     29  C   UNL     1       1.390   2.009   4.226  0.00  0.00    +0.326 C 
ATOM     30  O   UNL     1       2.203   2.270   5.091  0.00  0.00    -0.251 OA
ATOM     31  C   UNL     1       0.594   0.313   1.450  0.00  0.00    +0.041 C 
ATOM     32  H   UNL     1       1.464  -0.235   4.125  0.00  0.00    +0.151 HD
BRANCH  27  33
ATOM     33  C   UNL     1      -1.214   0.171   3.192  0.00  0.00    +0.032 C 
ATOM     34  C   UNL     1      -0.918  -1.304   3.470  0.00  0.00    +0.006 C 
ENDBRANCH  27  33
ENDBRANCH  22  24
ENDBRANCH  19  20
ENDBRANCH   1  19
TORSDOF 9
