REMARK  Name = ZINC16771786
REMARK  16 active torsions:
REMARK  status: ('A' for Active; 'I' for Inactive)
REMARK    1  A    between atoms: C_1  and  C_2
REMARK    2  A    between atoms: C_2  and  C_3
REMARK    3  A    between atoms: C_3  and  C_4
REMARK    4  A    between atoms: C_3  and  N_6
REMARK    5  A    between atoms: C_4  and  C_5
REMARK    6  A    between atoms: C_7  and  C_25
REMARK    7  A    between atoms: C_10  and  S_11
REMARK    8  A    between atoms: S_11  and  C_12
REMARK    9  A    between atoms: C_12  and  C_14
REMARK   10  A    between atoms: C_12  and  C_15
REMARK   11  A    between atoms: N_20  and  C_21
REMARK   12  A    between atoms: C_21  and  C_22
REMARK   13  A    between atoms: C_21  and  C_23
REMARK   14  A    between atoms: C_21  and  C_24
REMARK   15  A    between atoms: C_25  and  O_26
REMARK   16  A    between atoms: O_26  and  C_27
REMARK                            x       y       z     vdW  Elec       q    Type
REMARK                         _______ _______ _______ _____ _____    ______ ____
ROOT
ATOM      1  N   UNL     1       3.390  -5.448  -1.062  0.00  0.00    -0.300 N 
ATOM      2  C   UNL     1       2.722  -6.635  -0.936  0.00  0.00    +0.172 A 
ATOM      3  N   UNL     1       1.524  -6.361  -0.500  0.00  0.00    -0.130 NA
ATOM      4  N   UNL     1       1.393  -5.093  -0.339  0.00  0.00    -0.122 NA
ATOM      5  C   UNL     1       2.506  -4.483  -0.673  0.00  0.00    +0.193 A 
ENDROOT
BRANCH   1   6
ATOM      6  C   UNL     1       4.768  -5.253  -1.518  0.00  0.00    +0.091 C 
BRANCH   6   8
ATOM      7  C   UNL     1       4.066  -5.102  -3.911  0.00  0.00    +0.006 C 
ATOM      8  C   UNL     1       4.771  -4.370  -2.768  0.00  0.00    +0.022 C 
ENDBRANCH   6   8
BRANCH   6   9
ATOM      9  C   UNL     1       5.580  -4.575  -0.413  0.00  0.00    +0.022 C 
ATOM     10  C   UNL     1       5.682  -5.512   0.792  0.00  0.00    +0.006 C 
ENDBRANCH   6   9
ENDBRANCH   1   6
BRANCH   5  11
ATOM     11  S   UNL     1       2.805  -2.747  -0.623  0.00  0.00    -0.074 S 
BRANCH  11  12
ATOM     12  C   UNL     1       1.199  -2.169  -0.021  0.00  0.00    +0.137 C 
ATOM     13  C   UNL     1       0.969  -2.690   1.399  0.00  0.00    +0.029 C 
BRANCH  12  14
ATOM     14  C   UNL     1       1.178  -0.662  -0.013  0.00  0.00    +0.233 C 
ATOM     15  O   UNL     1       2.220  -0.042  -0.019  0.00  0.00    -0.274 OA
ATOM     16  N   UNL     1       0.002  -0.004   0.002  0.00  0.00    -0.239 N 
ATOM     17  C   UNL     1      -0.016   1.344   0.009  0.00  0.00    +0.306 C 
ATOM     18  O   UNL     1       1.028   1.966   0.003  0.00  0.00    -0.252 OA
ATOM     19  N   UNL     1      -1.192   2.002   0.019  0.00  0.00    -0.294 N 
ATOM     20  H   UNL     1      -0.831  -0.500   0.007  0.00  0.00    +0.159 HD
ATOM     21  H   UNL     1      -2.026   1.505   0.020  0.00  0.00    +0.151 HD
BRANCH  19  22
ATOM     22  C   UNL     1      -1.212   3.466   0.027  0.00  0.00    +0.028 C 
ATOM     23  C   UNL     1      -0.504   3.993  -1.223  0.00  0.00    +0.031 C 
ATOM     24  C   UNL     1      -2.662   3.957   0.036  0.00  0.00    +0.031 C 
ATOM     25  C   UNL     1      -0.492   3.979   1.275  0.00  0.00    +0.031 C 
ENDBRANCH  19  22
ENDBRANCH  12  14
ENDBRANCH  11  12
ENDBRANCH   5  11
BRANCH   2  26
ATOM     26  C   UNL     1       3.269  -8.005  -1.244  0.00  0.00    +0.305 C 
BRANCH  26  27
ATOM     27  O   UNL     1       3.878  -8.549  -0.072  0.00  0.00    -0.483 OA
BRANCH  27  28
ATOM     28  C   UNL     1       4.425  -9.789  -0.179  0.00  0.00    +0.139 A 
ATOM     29  C   UNL     1       4.371 -10.469  -1.387  0.00  0.00    +0.047 A 
ATOM     30  C   UNL     1       4.933 -11.727  -1.495  0.00  0.00    +0.004 A 
ATOM     31  C   UNL     1       5.538 -12.312  -0.399  0.00  0.00    +0.002 A 
ATOM     32  C   UNL     1       5.589 -11.639   0.808  0.00  0.00    +0.023 A 
ATOM     33  C   UNL     1       5.034 -10.378   0.920  0.00  0.00    +0.083 A 
ATOM     34 CL   UNL     1       5.096  -9.533   2.436  0.00  0.00    -0.080 Cl
ENDBRANCH  27  28
ENDBRANCH  26  27
ENDBRANCH   2  26
TORSDOF 10
