REMARK  Name = ZINC40824403
REMARK  5 active torsions:
REMARK  status: ('A' for Active; 'I' for Inactive)
REMARK    1  A    between atoms: C_1  and  C_2
REMARK    2  A    between atoms: C_6  and  C_7
REMARK    3  A    between atoms: C_7  and  O_9
REMARK    4  A    between atoms: O_9  and  C_10
REMARK    5  A    between atoms: N_20  and  N_21
REMARK                            x       y       z     vdW  Elec       q    Type
REMARK                         _______ _______ _______ _____ _____    ______ ____
ROOT
ATOM      1  C   UNL     1       0.107   1.494   0.003  0.00  0.00    +0.048 C 
ATOM      2  C   UNL     1       0.079  -0.013  -0.002  0.00  0.00    +0.011 A 
ATOM      3  C   UNL     1       0.070  -0.850  -1.123  0.00  0.00    +0.042 A 
ATOM      4  C   UNL     1       0.042  -2.148  -0.670  0.00  0.00    +0.115 A 
ATOM      5  O   UNL     1       0.038  -2.119   0.660  0.00  0.00    -0.452 OA
ATOM      6  C   UNL     1       0.064  -0.837   1.090  0.00  0.00    +0.215 A 
ATOM      7  C   UNL     1       0.019  -3.339  -1.594  0.00  0.00    +0.075 C 
ATOM      8  C   UNL     1      -0.478  -2.902  -2.975  0.00  0.00    +0.014 C 
ATOM      9  C   UNL     1       0.336  -1.711  -3.491  0.00  0.00    +0.058 C 
ATOM     10  C   UNL     1       0.086  -0.528  -2.568  0.00  0.00    +0.070 C 
ATOM     11  N   UNL     1      -0.099   0.676  -3.015  0.00  0.00    -0.183 NA
ENDROOT
BRANCH  11  12
ATOM     12  N   UNL     1      -0.072   0.923  -4.393  0.00  0.00    -0.191 N 
ATOM     13  C   UNL     1      -0.264   2.174  -4.857  0.00  0.00    +0.317 C 
ATOM     14  O   UNL     1      -0.241   2.389  -6.054  0.00  0.00    -0.251 OA
ATOM     15  N   UNL     1      -0.481   3.187  -3.995  0.00  0.00    -0.312 N 
ATOM     16  H   UNL     1       0.084   0.195  -5.014  0.00  0.00    +0.179 HD
ATOM     17  H   UNL     1      -0.499   3.016  -3.040  0.00  0.00    +0.147 HD
ATOM     18  H   UNL     1      -0.620   4.087  -4.329  0.00  0.00    +0.147 HD
ENDBRANCH  11  12
BRANCH   6  19
ATOM     19  C   UNL     1       0.071  -0.404   2.490  0.00  0.00    +0.380 C 
ATOM     20  O   UNL     1       0.092   0.782   2.759  0.00  0.00    -0.241 OA
BRANCH  19  21
ATOM     21  O   UNL     1       0.054  -1.320   3.480  0.00  0.00    -0.420 OA
BRANCH  21  22
ATOM     22  C   UNL     1       0.164  -0.878   4.760  0.00  0.00    +0.132 A 
ATOM     23  C   UNL     1      -0.929  -0.306   5.395  0.00  0.00    +0.046 A 
ATOM     24  C   UNL     1      -0.814   0.142   6.697  0.00  0.00    +0.004 A 
ATOM     25  C   UNL     1       0.389   0.021   7.367  0.00  0.00    +0.000 A 
ATOM     26  C   UNL     1       1.480  -0.548   6.737  0.00  0.00    +0.004 A 
ATOM     27  C   UNL     1       1.369  -1.003   5.437  0.00  0.00    +0.046 A 
ENDBRANCH  21  22
ENDBRANCH  19  21
ENDBRANCH   6  19
TORSDOF 4
