REMARK  Name = ZINC09436830
REMARK  6 active torsions:
REMARK  status: ('A' for Active; 'I' for Inactive)
REMARK    1  A    between atoms: C_4  and  N_7
REMARK    2  A    between atoms: C_8  and  C_26
REMARK    3  A    between atoms: C_10  and  C_15
REMARK    4  A    between atoms: C_15  and  C_17
REMARK    5  A    between atoms: C_20  and  N_23
REMARK    6  A    between atoms: C_31  and  N_32
REMARK                            x       y       z     vdW  Elec       q    Type
REMARK                         _______ _______ _______ _____ _____    ______ ____
ROOT
ATOM      1  N   UNL     1      -5.529   1.313   0.051  0.00  0.00    -0.253 N 
ATOM      2  C   UNL     1      -4.108   1.671   0.129  0.00  0.00    +0.152 C 
ATOM      3  C   UNL     1      -4.055   3.182   0.135  0.00  0.00    +0.077 C 
ATOM      4  C   UNL     1      -5.335   3.618   0.071  0.00  0.00    +0.250 C 
ATOM      5  C   UNL     1      -6.242   2.453   0.013  0.00  0.00    +0.292 C 
ATOM      6  O   UNL     1      -7.454   2.516  -0.053  0.00  0.00    -0.266 OA
ATOM      7  O   UNL     1      -5.721   4.914   0.059  0.00  0.00    -0.282 OA
ENDROOT
BRANCH   1  11
ATOM      8  C   UNL     1      -7.080  -2.551  -0.043  0.00  0.00    +0.000 A 
ATOM      9  C   UNL     1      -7.934  -1.464  -0.087  0.00  0.00    +0.002 A 
ATOM     10  C   UNL     1      -7.423  -0.181  -0.056  0.00  0.00    +0.023 A 
ATOM     11  C   UNL     1      -6.050   0.016   0.020  0.00  0.00    +0.038 A 
ATOM     12  C   UNL     1      -5.195  -1.078   0.059  0.00  0.00    +0.023 A 
ATOM     13  C   UNL     1      -5.713  -2.358   0.032  0.00  0.00    +0.002 A 
ENDBRANCH   1  11
BRANCH   2  14
ATOM     14  C   UNL     1      -3.506   1.127   1.399  0.00  0.00    +0.008 A 
ATOM     15  C   UNL     1      -4.321   0.813   2.471  0.00  0.00    +0.008 A 
ATOM     16  C   UNL     1      -3.768   0.314   3.636  0.00  0.00    +0.000 A 
ATOM     17  C   UNL     1      -2.401   0.128   3.728  0.00  0.00    +0.002 A 
ATOM     18  C   UNL     1      -1.587   0.441   2.656  0.00  0.00    +0.033 A 
ATOM     19  C   UNL     1      -2.140   0.937   1.490  0.00  0.00    +0.131 A 
BRANCH  19  20
ATOM     20  N   UNL     1      -1.269   1.267   0.340  0.00  0.00    +0.057 N 
ATOM     21  O   UNL     1      -0.060   1.159   0.441  0.00  0.00    -0.126 OA
ATOM     22  O   UNL     1      -1.761   1.647  -0.708  0.00  0.00    -0.126 OA
ENDBRANCH  19  20
ENDBRANCH   2  14
BRANCH   3  23
ATOM     23  C   UNL     1      -2.850   4.013   0.202  0.00  0.00    +0.195 C 
ATOM     24  O   UNL     1      -2.258   4.143   1.258  0.00  0.00    -0.287 OA
BRANCH  23  25
ATOM     25  C   UNL     1      -2.353   4.695  -1.012  0.00  0.00    +0.022 A 
ATOM     26  C   UNL     1      -2.964   4.463  -2.246  0.00  0.00    +0.014 A 
ATOM     27  C   UNL     1      -2.493   5.099  -3.376  0.00  0.00    +0.033 A 
ATOM     28  C   UNL     1      -1.423   5.973  -3.287  0.00  0.00    +0.126 A 
ATOM     29  C   UNL     1      -0.816   6.211  -2.066  0.00  0.00    +0.033 A 
ATOM     30  C   UNL     1      -1.274   5.578  -0.929  0.00  0.00    +0.014 A 
BRANCH  28  31
ATOM     31  N   UNL     1      -0.926   6.656  -4.502  0.00  0.00    +0.056 N 
ATOM     32  O   UNL     1      -1.459   6.448  -5.578  0.00  0.00    -0.126 OA
ATOM     33  O   UNL     1       0.015   7.426  -4.426  0.00  0.00    -0.126 OA
ENDBRANCH  28  31
ENDBRANCH  23  25
ENDBRANCH   3  23
TORSDOF 6
