REMARK  Name = ZINC13370958
REMARK  8 active torsions:
REMARK  status: ('A' for Active; 'I' for Inactive)
REMARK    1  A    between atoms: C_1  and  N_2
REMARK    2  A    between atoms: N_2  and  C_3
REMARK    3  A    between atoms: N_2  and  C_4
REMARK    4  A    between atoms: C_7  and  C_10
REMARK    5  A    between atoms: N_11  and  N_12
REMARK    6  A    between atoms: C_17  and  C_20
REMARK    7  A    between atoms: C_20  and  C_21
REMARK    8  A    between atoms: C_26  and  N_27
REMARK                            x       y       z     vdW  Elec       q    Type
REMARK                         _______ _______ _______ _____ _____    ______ ____
ROOT
ATOM      1  N   UNL     1       1.101  -2.156  -7.093  0.00  0.00    -0.127 NA
ATOM      2  C   UNL     1       0.897  -1.596  -8.267  0.00  0.00    +0.183 C 
ATOM      3  N   UNL     1       0.845  -0.252  -8.571  0.00  0.00    -0.263 N 
ATOM      4  C   UNL     1       0.631   0.190  -9.799  0.00  0.00    +0.232 C 
ATOM      5  O   UNL     1       0.587   1.373 -10.059  0.00  0.00    -0.274 OA
ATOM      6  C   UNL     1       0.444  -0.879 -10.864  0.00  0.00    +0.144 C 
ATOM      7  S   UNL     1       0.629  -2.398  -9.840  0.00  0.00    -0.075 S 
ATOM      8  H   UNL     1       0.970   0.394  -7.858  0.00  0.00    +0.157 HD
ENDROOT
BRANCH   1  10
ATOM      9  C   UNL     1       1.480  -1.975  -4.885  0.00  0.00    +0.143 C 
ATOM     10  N   UNL     1       1.277  -1.419  -6.049  0.00  0.00    -0.155 NA
BRANCH   9  14
ATOM     11  C   UNL     1       2.061   0.448  -1.450  0.00  0.00    +0.029 A 
ATOM     12  C   UNL     1       2.086  -0.938  -1.333  0.00  0.00    +0.024 A 
ATOM     13  C   UNL     1       1.898  -1.728  -2.446  0.00  0.00    +0.011 A 
ATOM     14  C   UNL     1       1.681  -1.135  -3.694  0.00  0.00    -0.005 A 
ATOM     15  C   UNL     1       1.656   0.259  -3.807  0.00  0.00    +0.011 A 
ATOM     16  C   UNL     1       1.841   1.042  -2.688  0.00  0.00    +0.024 A 
BRANCH  11  18
ATOM     17  C   UNL     1       2.220   2.704  -0.440  0.00  0.00    +0.129 C 
ATOM     18  N   UNL     1       2.252   1.244  -0.321  0.00  0.00    -0.336 N 
ATOM     19  C   UNL     1       2.485   0.621   0.985  0.00  0.00    +0.129 C 
ENDBRANCH  11  18
ENDBRANCH   9  14
ENDBRANCH   1  10
BRANCH   6  20
ATOM     20  C   UNL     1       1.538  -0.797 -11.930  0.00  0.00    +0.061 C 
BRANCH  20  21
ATOM     21  C   UNL     1       1.247  -1.790 -13.026  0.00  0.00    -0.016 A 
ATOM     22  C   UNL     1       1.906  -3.005 -13.051  0.00  0.00    +0.006 A 
ATOM     23  C   UNL     1       1.639  -3.915 -14.056  0.00  0.00    +0.000 A 
ATOM     24  C   UNL     1       0.713  -3.611 -15.036  0.00  0.00    +0.002 A 
ATOM     25  C   UNL     1       0.053  -2.396 -15.011  0.00  0.00    +0.033 A 
ATOM     26  C   UNL     1       0.318  -1.488 -14.003  0.00  0.00    +0.129 A 
BRANCH  26  27
ATOM     27  N   UNL     1      -0.392  -0.189 -13.972  0.00  0.00    +0.057 N 
ATOM     28  O   UNL     1      -1.125   0.121 -14.883  0.00  0.00    -0.126 OA
ATOM     29  O   UNL     1      -0.239   0.562 -13.037  0.00  0.00    -0.126 OA
ENDBRANCH  26  27
ENDBRANCH  20  21
ENDBRANCH   6  20
TORSDOF 6
