REMARK  Name = ZINC13346064
REMARK  10 active torsions:
REMARK  status: ('A' for Active; 'I' for Inactive)
REMARK    1  A    between atoms: C_1  and  C_2
REMARK    2  A    between atoms: C_3  and  C_33
REMARK    3  A    between atoms: N_9  and  C_29
REMARK    4  A    between atoms: C_10  and  S_12
REMARK    5  A    between atoms: S_12  and  C_13
REMARK    6  A    between atoms: C_13  and  C_14
REMARK    7  A    between atoms: C_22  and  C_26
REMARK    8  A    between atoms: C_29  and  C_30
REMARK    9  A    between atoms: C_30  and  O_31
REMARK   10  A    between atoms: O_31  and  C_32
REMARK                            x       y       z     vdW  Elec       q    Type
REMARK                         _______ _______ _______ _____ _____    ______ ____
ROOT
ATOM      1  S   UNL     1       0.095  -3.592   4.753  0.00  0.00    -0.080 S 
ENDROOT
BRANCH   1  11
ATOM      2  C   UNL     1      -0.018   1.503   0.010  0.00  0.00    +0.045 C 
ATOM      3  C   UNL     1       0.002  -0.004   0.002  0.00  0.00    -0.026 A 
ATOM      4  C   UNL     1       0.006  -0.676  -1.159  0.00  0.00    -0.008 A 
ATOM      5  S   UNL     1       0.031  -2.384  -0.648  0.00  0.00    -0.073 S 
ATOM      6  C   UNL     1       0.036  -2.146   1.110  0.00  0.00    +0.117 A 
ATOM      7  C   UNL     1       0.024  -0.746   1.251  0.00  0.00    +0.075 A 
ATOM      8  C   UNL     1       0.030  -0.255   2.595  0.00  0.00    +0.263 A 
ATOM      9  O   UNL     1       0.015   0.944   2.815  0.00  0.00    -0.267 OA
ATOM     10  N   UNL     1       0.051  -1.135   3.613  0.00  0.00    -0.285 N 
ATOM     11  C   UNL     1       0.067  -2.481   3.386  0.00  0.00    +0.173 A 
ATOM     12  N   UNL     1       0.052  -2.960   2.159  0.00  0.00    -0.216 NA
ATOM     13  C   UNL     1      -0.009  -0.120  -2.559  0.00  0.00    +0.052 C 
BRANCH  10  14
ATOM     14  C   UNL     1       0.057  -0.638   4.992  0.00  0.00    +0.155 C 
BRANCH  14  15
ATOM     15  C   UNL     1      -1.383  -0.485   5.485  0.00  0.00    +0.181 C 
BRANCH  15  16
ATOM     16  O   UNL     1      -2.004  -1.770   5.549  0.00  0.00    -0.381 OA
ATOM     17  C   UNL     1      -3.359  -1.738   6.001  0.00  0.00    +0.194 C 
ENDBRANCH  15  16
ENDBRANCH  14  15
ENDBRANCH  10  14
ENDBRANCH   1  11
BRANCH   1  18
ATOM     18  C   UNL     1       0.110  -5.234   3.983  0.00  0.00    +0.151 C 
BRANCH  18  19
ATOM     19  C   UNL     1       0.134  -6.293   5.056  0.00  0.00    +0.121 A 
ATOM     20  N   UNL     1       0.154  -7.596   4.674  0.00  0.00    -0.310 N 
ATOM     21  H   UNL     1       0.152  -7.821   3.731  0.00  0.00    +0.170 HD
ATOM     22  C   UNL     1       0.176  -8.584   5.599  0.00  0.00    +0.259 A 
ATOM     23  O   UNL     1       0.195  -9.756   5.272  0.00  0.00    -0.267 OA
ATOM     24  C   UNL     1       0.178  -8.186   7.017  0.00  0.00    +0.065 A 
ATOM     25  C   UNL     1       0.201  -9.127   8.044  0.00  0.00    +0.016 A 
ATOM     26  C   UNL     1       0.203  -8.714   9.346  0.00  0.00    +0.016 A 
ATOM     27  C   UNL     1       0.182  -7.349   9.660  0.00  0.00    +0.065 A 
ATOM     28  C   UNL     1       0.158  -6.393   8.650  0.00  0.00    +0.043 A 
ATOM     29  C   UNL     1       0.157  -6.806   7.316  0.00  0.00    +0.079 A 
ATOM     30  N   UNL     1       0.140  -5.911   6.296  0.00  0.00    -0.233 NA
BRANCH  27  31
ATOM     31  C   UNL     1       0.184  -6.921  11.075  0.00  0.00    +0.387 C 
ATOM     32  O   UNL     1       0.204  -7.758  11.967  0.00  0.00    -0.241 OA
ATOM     33  O   UNL     1       0.165  -5.731  11.354  0.00  0.00    -0.241 OA
ENDBRANCH  27  31
ENDBRANCH  18  19
ENDBRANCH   1  18
TORSDOF 7
