REMARK  Name = ZINC15043762
REMARK  9 active torsions:
REMARK  status: ('A' for Active; 'I' for Inactive)
REMARK    1  A    between atoms: C_1  and  C_2
REMARK    2  A    between atoms: C_2  and  C_4
REMARK    3  A    between atoms: C_2  and  N_11
REMARK    4  A    between atoms: C_12  and  C_14
REMARK    5  A    between atoms: C_14  and  C_16
REMARK    6  A    between atoms: C_14  and  N_58
REMARK    7  A    between atoms: C_19  and  C_22
REMARK    8  A    between atoms: N_24  and  C_25
REMARK    9  A    between atoms: C_30  and  O_31
REMARK                            x       y       z     vdW  Elec       q    Type
REMARK                         _______ _______ _______ _____ _____    ______ ____
ROOT
ATOM      1  C   UNL     1      -4.957   1.312   0.170  0.00  0.00    -0.077 C 
ATOM      2  C   UNL     1      -3.606   2.029   0.117  0.00  0.00    -0.006 C 
ATOM      3  C   UNL     1      -2.482   0.990   0.131  0.00  0.00    +0.072 C 
ATOM      4  C   UNL     1      -2.662   0.036  -1.054  0.00  0.00    -0.006 C 
ATOM      5  C   UNL     1      -4.041  -0.621  -0.968  0.00  0.00    -0.077 C 
ATOM      6  N   UNL     1      -5.079   0.430  -1.010  0.00  0.00    +0.387 N 
ATOM      7  H   UNL     1      -4.950   0.992  -1.860  0.00  0.00    -0.081 HD
ENDROOT
BRANCH   3   8
ATOM      8  C   UNL     1      -1.150   1.686   0.018  0.00  0.00    +0.220 C 
ATOM      9  O   UNL     1      -1.103   2.896  -0.063  0.00  0.00    -0.275 OA
ATOM     10  N   UNL     1      -0.011   0.966   0.007  0.00  0.00    -0.282 N 
ATOM     11  H   UNL     1      -0.050  -0.003  -0.011  0.00  0.00    +0.155 HD
BRANCH  10  12
ATOM     12  C   UNL     1       1.230   1.617   0.017  0.00  0.00    +0.075 A 
ATOM     13  C   UNL     1       1.339   2.897   0.539  0.00  0.00    +0.027 A 
ATOM     14  C   UNL     1       2.564   3.537   0.548  0.00  0.00    +0.002 A 
ATOM     15  C   UNL     1       3.683   2.904   0.037  0.00  0.00    +0.004 A 
ATOM     16  C   UNL     1       3.581   1.628  -0.485  0.00  0.00    +0.047 A 
ATOM     17  C   UNL     1       2.358   0.977  -0.492  0.00  0.00    +0.138 A 
BRANCH  17  18
ATOM     18  O   UNL     1       2.257  -0.280  -1.000  0.00  0.00    -0.505 OA
ATOM     19  H   UNL     1       2.058  -0.308  -1.945  0.00  0.00    +0.292 HD
ENDBRANCH  17  18
ENDBRANCH  10  12
ENDBRANCH   3   8
BRANCH   6  20
ATOM     20  C   UNL     1      -6.421  -0.186  -1.042  0.00  0.00    +0.016 C 
ATOM     21  C   UNL     1      -6.627  -1.091   0.174  0.00  0.00    -0.004 C 
BRANCH  20  23
ATOM     22  N   UNL     1      -7.704  -1.650  -2.570  0.00  0.00    -0.310 N 
ATOM     23  C   UNL     1      -6.553  -1.002  -2.303  0.00  0.00    +0.200 C 
ATOM     24  O   UNL     1      -5.622  -1.076  -3.077  0.00  0.00    -0.278 OA
ATOM     25  H   UNL     1      -8.448  -1.591  -1.950  0.00  0.00    +0.149 HD
BRANCH  22  27
ATOM     26  C   UNL     1      -7.269  -3.845  -3.555  0.00  0.00    +0.033 C 
ATOM     27  C   UNL     1      -7.832  -2.443  -3.795  0.00  0.00    +0.100 C 
BRANCH  27  28
ATOM     28  C   UNL     1      -9.285  -2.543  -4.179  0.00  0.00    -0.027 A 
ATOM     29  C   UNL     1     -10.246  -2.730  -3.203  0.00  0.00    +0.008 A 
ATOM     30  C   UNL     1     -11.580  -2.817  -3.554  0.00  0.00    +0.038 A 
ATOM     31  C   UNL     1     -11.953  -2.728  -4.884  0.00  0.00    +0.123 A 
ATOM     32  C   UNL     1     -10.989  -2.546  -5.862  0.00  0.00    +0.038 A 
ATOM     33  C   UNL     1      -9.656  -2.454  -5.508  0.00  0.00    +0.008 A 
ATOM     34  F   UNL     1     -13.256  -2.819  -5.229  0.00  0.00    -0.205 F 
ENDBRANCH  27  28
ENDBRANCH  22  27
ENDBRANCH  20  23
ENDBRANCH   6  20
TORSDOF 7
