REMARK  Name = ZINC11116859
REMARK  5 active torsions:
REMARK  status: ('A' for Active; 'I' for Inactive)
REMARK    1  A    between atoms: C_3  and  S_8
REMARK    2  A    between atoms: S_8  and  N_11
REMARK    3  A    between atoms: C_14  and  C_17
REMARK    4  A    between atoms: N_19  and  C_20
REMARK    5  A    between atoms: C_21  and  C_28
REMARK                            x       y       z     vdW  Elec       q    Type
REMARK                         _______ _______ _______ _____ _____    ______ ____
ROOT
ATOM      1  C   UNL     1       0.828  -1.999  -1.218  0.00  0.00    +0.221 C 
ATOM      2  O   UNL     1       0.219  -2.621  -0.373  0.00  0.00    -0.275 OA
ATOM      3  N   UNL     1       1.500  -2.656  -2.184  0.00  0.00    -0.279 N 
ATOM      4  H   UNL     1       1.986  -2.158  -2.860  0.00  0.00    +0.155 HD
ENDROOT
BRANCH   3   5
ATOM      5  C   UNL     1       1.495  -4.042  -2.213  0.00  0.00    +0.084 A 
ATOM      6  C   UNL     1       2.118  -4.886  -3.116  0.00  0.00    +0.068 A 
ATOM      7  C   UNL     1       1.954  -6.326  -2.921  0.00  0.00    -0.023 A 
ATOM      8  C   UNL     1       1.199  -6.677  -1.865  0.00  0.00    -0.004 A 
ATOM      9  S   UNL     1       0.714  -5.137  -1.124  0.00  0.00    -0.077 S 
ATOM     10  C   UNL     1       1.075  -8.171  -1.732  0.00  0.00    +0.043 C 
ATOM     11  C   UNL     1       1.506  -8.722  -3.109  0.00  0.00    +0.010 C 
ATOM     12  C   UNL     1       2.432  -7.600  -3.620  0.00  0.00    +0.037 C 
BRANCH   6  13
ATOM     13  C   UNL     1       2.913  -4.355  -4.228  0.00  0.00    +0.244 C 
ATOM     14  O   UNL     1       4.104  -4.150  -4.080  0.00  0.00    -0.270 OA
ATOM     15  N   UNL     1       2.326  -4.095  -5.412  0.00  0.00    -0.325 N 
ATOM     16  H   UNL     1       1.377  -4.258  -5.530  0.00  0.00    +0.145 HD
ATOM     17  H   UNL     1       2.852  -3.744  -6.148  0.00  0.00    +0.145 HD
ENDBRANCH   6  13
ENDBRANCH   3   5
BRANCH   1  21
ATOM     18  N   UNL     1       1.366   2.019  -0.000  0.00  0.00    -0.177 NA
ATOM     19  C   UNL     1      -0.019   1.528   0.010  0.00  0.00    +0.110 C 
ATOM     20  C   UNL     1       0.002  -0.004   0.002  0.00  0.00    +0.030 C 
ATOM     21  C   UNL     1       0.834  -0.492  -1.186  0.00  0.00    +0.078 C 
ATOM     22  C   UNL     1       2.272   0.009  -1.045  0.00  0.00    +0.030 C 
ATOM     23  C   UNL     1       2.277   1.541  -1.048  0.00  0.00    +0.110 C 
BRANCH  18  24
ATOM     24  S   UNL     1       1.889   3.092   1.148  0.00  0.00    +0.061 S 
ATOM     25  O   UNL     1       2.997   3.781   0.585  0.00  0.00    -0.153 OA
ATOM     26  O   UNL     1       0.735   3.768   1.628  0.00  0.00    -0.153 OA
BRANCH  24  29
ATOM     27  C   UNL     1       4.344   1.042   3.580  0.00  0.00    +0.040 A 
ATOM     28  C   UNL     1       3.850   1.783   2.523  0.00  0.00    +0.031 A 
ATOM     29  C   UNL     1       2.517   2.147   2.496  0.00  0.00    +0.106 A 
ATOM     30  C   UNL     1       1.677   1.775   3.529  0.00  0.00    +0.031 A 
ATOM     31  C   UNL     1       2.167   1.029   4.585  0.00  0.00    +0.040 A 
ATOM     32  C   UNL     1       3.502   0.664   4.612  0.00  0.00    +0.124 A 
ATOM     33  F   UNL     1       3.983  -0.060   5.646  0.00  0.00    -0.205 F 
ENDBRANCH  24  29
ENDBRANCH  18  24
ENDBRANCH   1  21
TORSDOF 5
