REMARK  Name = ZINC67045645
REMARK  8 active torsions:
REMARK  status: ('A' for Active; 'I' for Inactive)
REMARK    1  A    between atoms: C_1  and  C_2
REMARK    2  A    between atoms: C_2  and  C_3
REMARK    3  A    between atoms: C_2  and  C_4
REMARK    4  A    between atoms: C_2  and  C_5
REMARK    5  A    between atoms: N_16  and  C_17
REMARK    6  A    between atoms: C_17  and  C_18
REMARK    7  A    between atoms: N_24  and  C_25
REMARK    8  A    between atoms: N_24  and  C_26
REMARK                            x       y       z     vdW  Elec       q    Type
REMARK                         _______ _______ _______ _____ _____    ______ ____
ROOT
ATOM      1  C   UNL     1       1.092   0.715  -1.253  0.00  0.00    +0.221 C 
ATOM      2  O   UNL     1       1.706   1.593  -1.822  0.00  0.00    -0.275 OA
ATOM      3  N   UNL     1       1.020  -0.517  -1.795  0.00  0.00    -0.299 N 
ATOM      4  C   UNL     1       1.601  -0.806  -3.059  0.00  0.00    +0.109 C 
ATOM      5  C   UNL     1       0.703  -0.445  -4.287  0.00  0.00    +0.038 C 
ATOM      6  C   UNL     1      -0.773  -0.789  -3.901  0.00  0.00    +0.111 C 
ATOM      7  N   UNL     1      -0.921  -1.970  -3.125  0.00  0.00    -0.284 N 
ATOM      8  C   UNL     1      -1.008  -1.804  -1.651  0.00  0.00    +0.128 C 
ATOM      9  C   UNL     1       0.335  -1.634  -1.095  0.00  0.00    +0.126 C 
ATOM     10  C   UNL     1      -0.981  -3.187  -3.700  0.00  0.00    +0.303 C 
ATOM     11  O   UNL     1      -0.908  -3.292  -4.910  0.00  0.00    -0.253 OA
ATOM     12  N   UNL     1      -1.123  -4.288  -2.936  0.00  0.00    -0.295 N 
ATOM     13  H   UNL     1      -1.181  -4.205  -1.971  0.00  0.00    +0.151 HD
ENDROOT
BRANCH   1  15
ATOM     14  C   UNL     1       0.442   2.506   0.334  0.00  0.00    +0.020 C 
ATOM     15  C   UNL     1       0.410   1.002   0.060  0.00  0.00    +0.039 C 
ATOM     16  C   UNL     1       1.139   0.263   1.185  0.00  0.00    +0.020 C 
ATOM     17  C   UNL     1      -1.042   0.526  -0.005  0.00  0.00    +0.020 C 
ENDBRANCH   1  15
BRANCH  12  18
ATOM     18  C   UNL     1      -1.188  -5.611  -3.562  0.00  0.00    +0.142 C 
BRANCH  18  19
ATOM     19  C   UNL     1      -1.346  -6.664  -2.495  0.00  0.00    -0.014 A 
ATOM     20  C   UNL     1      -0.227  -7.247  -1.914  0.00  0.00    +0.010 A 
ATOM     21  C   UNL     1      -0.416  -8.210  -0.939  0.00  0.00    +0.042 A 
ATOM     22  C   UNL     1      -1.712  -8.559  -0.575  0.00  0.00    +0.098 A 
ATOM     23  N   UNL     1      -2.753  -7.980  -1.153  0.00  0.00    -0.349 N 
ATOM     24  C   UNL     1      -2.603  -7.055  -2.082  0.00  0.00    +0.089 A 
ATOM     25  N   UNL     1      -1.917  -9.525   0.403  0.00  0.00    -0.323 N 
ATOM     26  C   UNL     1      -0.775 -10.079   1.135  0.00  0.00    +0.130 C 
ATOM     27  C   UNL     1      -3.274  -9.990   0.702  0.00  0.00    +0.130 C 
ATOM     28  H   UNL     1      -3.649  -8.240  -0.884  0.00  0.00    +0.167 HD
ENDBRANCH  18  19
ENDBRANCH  12  18
TORSDOF 3
