REMARK  Name = ZINC39598918
REMARK  7 active torsions:
REMARK  status: ('A' for Active; 'I' for Inactive)
REMARK    1  A    between atoms: C_1  and  O_2
REMARK    2  A    between atoms: O_2  and  C_3
REMARK    3  A    between atoms: C_9  and  C_12
REMARK    4  A    between atoms: C_12  and  C_13
REMARK    5  A    between atoms: C_13  and  N_14
REMARK    6  A    between atoms: C_15  and  C_17
REMARK    7  A    between atoms: C_28  and  C_30
REMARK                            x       y       z     vdW  Elec       q    Type
REMARK                         _______ _______ _______ _____ _____    ______ ____
ROOT
ATOM      1  C   UNL     1       1.673  -8.964  -2.031  0.00  0.00    +0.100 C 
ATOM      2  C   UNL     1       0.365  -8.380  -2.611  0.00  0.00    +0.121 C 
ATOM      3  N   UNL     1       0.740  -7.886  -3.957  0.00  0.00    -0.296 N 
ATOM      4  C   UNL     1       1.674  -8.911  -4.479  0.00  0.00    +0.115 C 
ATOM      5  C   UNL     1       2.528  -9.315  -3.261  0.00  0.00    -0.004 C 
ATOM      6  C   UNL     1       2.819 -10.812  -3.292  0.00  0.00    -0.010 C 
ATOM      7  C   UNL     1       3.719 -11.127  -4.490  0.00  0.00    -0.082 C 
ATOM      8  N   UNL     1       4.970 -10.367  -4.379  0.00  0.00    +0.379 N 
ATOM      9  C   UNL     1       4.688  -8.928  -4.443  0.00  0.00    -0.082 C 
ATOM     10  C   UNL     1       3.830  -8.519  -3.243  0.00  0.00    -0.010 C 
ATOM     11  C   UNL     1       0.324  -6.758  -4.568  0.00  0.00    +0.247 C 
ATOM     12  O   UNL     1      -0.349  -5.950  -3.959  0.00  0.00    -0.270 OA
ATOM     13  H   UNL     1       5.415 -10.582  -3.499  0.00  0.00    -0.086 HD
ATOM     14  H   UNL     1       5.586 -10.622  -5.136  0.00  0.00    -0.086 HD
ENDROOT
BRANCH  11  15
ATOM     15  C   UNL     1       0.687  -6.506  -5.978  0.00  0.00    +0.038 A 
ATOM     16  C   UNL     1       1.062  -7.566  -6.806  0.00  0.00    +0.014 A 
ATOM     17  C   UNL     1       1.400  -7.324  -8.121  0.00  0.00    +0.022 A 
ATOM     18  C   UNL     1       1.369  -6.033  -8.621  0.00  0.00    +0.059 A 
ATOM     19  C   UNL     1       0.997  -4.976  -7.805  0.00  0.00    +0.060 A 
ATOM     20  C   UNL     1       0.651  -5.207  -6.489  0.00  0.00    +0.034 A 
ATOM     21 CL   UNL     1       0.960  -3.361  -8.441  0.00  0.00    -0.082 Cl
ATOM     22 CL   UNL     1       1.796  -5.737 -10.278  0.00  0.00    -0.082 Cl
ENDBRANCH  11  15
BRANCH   1  24
ATOM     23  N   UNL     1       3.233  -8.330  -0.220  0.00  0.00    -0.315 N 
ATOM     24  C   UNL     1       2.373  -7.937  -1.180  0.00  0.00    +0.218 C 
ATOM     25  O   UNL     1       2.164  -6.755  -1.359  0.00  0.00    -0.275 OA
ATOM     26  H   UNL     1       3.401  -9.275  -0.077  0.00  0.00    +0.149 HD
BRANCH  23  27
ATOM     27  C   UNL     1       3.915  -7.332   0.607  0.00  0.00    +0.109 C 
BRANCH  27  28
ATOM     28  C   UNL     1       4.827  -8.038   1.612  0.00  0.00    +0.056 C 
BRANCH  28  35
ATOM     29  C   UNL     1       3.618  -5.741   5.530  0.00  0.00    +0.121 A 
ATOM     30  C   UNL     1       4.610  -4.867   5.966  0.00  0.00    +0.047 A 
ATOM     31  C   UNL     1       5.793  -4.744   5.271  0.00  0.00    +0.030 A 
ATOM     32  C   UNL     1       6.004  -5.497   4.121  0.00  0.00    +0.047 A 
ATOM     33  N   UNL     1       7.053  -5.593   3.231  0.00  0.00    -0.360 N 
ATOM     34  C   UNL     1       6.751  -6.499   2.252  0.00  0.00    +0.087 A 
ATOM     35  C   UNL     1       5.528  -7.011   2.463  0.00  0.00    -0.021 A 
ATOM     36  C   UNL     1       5.004  -6.381   3.678  0.00  0.00    +0.006 A 
ATOM     37  C   UNL     1       3.811  -6.501   4.394  0.00  0.00    +0.056 A 
ATOM     38  H   UNL     1       7.882  -5.093   3.291  0.00  0.00    +0.165 HD
BRANCH  29  40
ATOM     39  C   UNL     1       2.325  -5.040   7.398  0.00  0.00    +0.277 C 
ATOM     40  O   UNL     1       2.457  -5.850   6.229  0.00  0.00    -0.495 OA
ENDBRANCH  29  40
ENDBRANCH  28  35
ENDBRANCH  27  28
ENDBRANCH  23  27
ENDBRANCH   1  24
TORSDOF 6
