REMARK  Name = ZINC64417542
REMARK  8 active torsions:
REMARK  status: ('A' for Active; 'I' for Inactive)
REMARK    1  A    between atoms: C_4  and  N_22
REMARK    2  A    between atoms: C_5  and  C_7
REMARK    3  A    between atoms: N_9  and  C_10
REMARK    4  A    between atoms: C_10  and  C_11
REMARK    5  A    between atoms: C_11  and  C_12
REMARK    6  A    between atoms: C_23  and  C_25
REMARK    7  A    between atoms: N_27  and  C_28
REMARK    8  A    between atoms: C_28  and  C_29
REMARK                            x       y       z     vdW  Elec       q    Type
REMARK                         _______ _______ _______ _____ _____    ______ ____
ROOT
ATOM      1  C   UNL     1      -0.237   1.326  -0.096  0.00  0.00    +0.001 A 
ATOM      2  C   UNL     1       0.919   2.088  -0.133  0.00  0.00    +0.002 A 
ATOM      3  C   UNL     1       2.158   1.479  -0.117  0.00  0.00    +0.024 A 
ATOM      4  C   UNL     1       2.252   0.094  -0.064  0.00  0.00    +0.046 A 
ATOM      5  C   UNL     1       1.083  -0.680  -0.026  0.00  0.00    +0.058 A 
ATOM      6  C   UNL     1      -0.163  -0.050  -0.042  0.00  0.00    +0.015 A 
ENDROOT
BRANCH   5   7
ATOM      7  C   UNL     1       1.169  -2.152   0.031  0.00  0.00    +0.246 C 
ATOM      8  O   UNL     1       2.252  -2.694   0.141  0.00  0.00    -0.270 OA
ATOM      9  N   UNL     1       0.048  -2.896  -0.041  0.00  0.00    -0.311 N 
ATOM     10  H   UNL     1      -0.816  -2.464  -0.129  0.00  0.00    +0.149 HD
BRANCH   9  11
ATOM     11  C   UNL     1       0.133  -4.357   0.015  0.00  0.00    +0.109 C 
BRANCH  11  12
ATOM     12  C   UNL     1      -1.272  -4.955  -0.085  0.00  0.00    +0.052 C 
BRANCH  12  13
ATOM     13  C   UNL     1      -1.184  -6.458  -0.028  0.00  0.00    -0.040 C 
ATOM     14  C   UNL     1      -1.327  -7.240   1.067  0.00  0.00    +0.000 A 
ATOM     15  C   UNL     1      -1.597  -6.936   2.477  0.00  0.00    +0.030 A 
ATOM     16  C   UNL     1      -1.687  -7.955   3.362  0.00  0.00    +0.042 A 
ATOM     17  C   UNL     1      -1.528  -9.291   2.967  0.00  0.00    +0.022 A 
ATOM     18  C   UNL     1      -1.279  -9.649   1.689  0.00  0.00    +0.027 A 
ATOM     19  C   UNL     1      -1.165  -8.658   0.675  0.00  0.00    +0.043 A 
ATOM     20  N   UNL     1      -0.930  -8.749  -0.612  0.00  0.00    -0.380 N 
ATOM     21  C   UNL     1      -0.924  -7.398  -1.183  0.00  0.00    +0.144 C 
ATOM     22 CL   UNL     1      -2.005  -7.600   5.032  0.00  0.00    -0.084 Cl
ATOM     23  H   UNL     1      -0.788  -9.573  -1.104  0.00  0.00    +0.160 HD
ENDBRANCH  12  13
ENDBRANCH  11  12
ENDBRANCH   9  11
ENDBRANCH   5   7
BRANCH   4  24
ATOM     24  N   UNL     1       3.499  -0.521  -0.049  0.00  0.00    -0.277 N 
ATOM     25  C   UNL     1       4.575   0.146   0.416  0.00  0.00    +0.303 C 
ATOM     26  O   UNL     1       4.439   1.244   0.914  0.00  0.00    -0.265 OA
ATOM     27  H   UNL     1       3.595  -1.431  -0.372  0.00  0.00    +0.155 HD
BRANCH  25  28
ATOM     28  C   UNL     1       5.933  -0.467   0.317  0.00  0.00    +0.300 C 
ATOM     29  O   UNL     1       6.069  -1.565  -0.181  0.00  0.00    -0.265 OA
ATOM     30  N   UNL     1       7.009   0.200   0.781  0.00  0.00    -0.303 N 
ATOM     31  H   UNL     1       6.900   1.078   1.179  0.00  0.00    +0.149 HD
BRANCH  30  32
ATOM     32  C   UNL     1       8.341  -0.401   0.684  0.00  0.00    +0.140 C 
BRANCH  32  33
ATOM     33  C   UNL     1       9.361   0.541   1.270  0.00  0.00    -0.027 A 
ATOM     34  C   UNL     1       9.986   1.492   0.478  0.00  0.00    +0.025 A 
ATOM     35  C   UNL     1      10.916   2.340   1.051  0.00  0.00    +0.111 A 
ATOM     36  N   UNL     1      11.211   2.250   2.333  0.00  0.00    -0.263 NA
ATOM     37  C   UNL     1      10.636   1.358   3.116  0.00  0.00    +0.111 A 
ATOM     38  C   UNL     1       9.692   0.482   2.615  0.00  0.00    +0.025 A 
ENDBRANCH  32  33
ENDBRANCH  30  32
ENDBRANCH  25  28
ENDBRANCH   4  24
TORSDOF 8
