REMARK  Name = ZINC16758944
REMARK  11 active torsions:
REMARK  status: ('A' for Active; 'I' for Inactive)
REMARK    1  A    between atoms: C_1  and  C_2
REMARK    2  A    between atoms: C_2  and  C_3
REMARK    3  A    between atoms: C_3  and  C_4
REMARK    4  A    between atoms: C_4  and  N_5
REMARK    5  A    between atoms: C_11  and  C_16
REMARK    6  A    between atoms: C_16  and  O_18
REMARK    7  A    between atoms: O_18  and  C_19
REMARK    8  A    between atoms: C_19  and  C_21
REMARK    9  A    between atoms: C_19  and  C_22
REMARK   10  A    between atoms: N_24  and  C_25
REMARK   11  A    between atoms: C_26  and  C_30
REMARK                            x       y       z     vdW  Elec       q    Type
REMARK                         _______ _______ _______ _____ _____    ______ ____
ROOT
ATOM      1  C   UNL     1       3.977   4.548  -0.010  0.00  0.00    +0.340 C 
ATOM      2  O   UNL     1       3.281   5.543   0.002  0.00  0.00    -0.245 OA
ENDROOT
BRANCH   1   9
ATOM      3  N   UNL     1       0.002  -0.004   0.002  0.00  0.00    -0.234 N 
ATOM      4  C   UNL     1       1.263  -0.471  -0.013  0.00  0.00    +0.254 C 
ATOM      5  O   UNL     1       1.586  -1.642  -0.021  0.00  0.00    -0.270 OA
ATOM      6  C   UNL     1       2.193   0.681  -0.015  0.00  0.00    +0.049 A 
ATOM      7  C   UNL     1       3.573   0.807  -0.027  0.00  0.00    +0.014 A 
ATOM      8  C   UNL     1       4.151   2.065  -0.026  0.00  0.00    +0.016 A 
ATOM      9  C   UNL     1       3.350   3.208  -0.012  0.00  0.00    +0.060 A 
ATOM     10  C   UNL     1       1.958   3.089   0.000  0.00  0.00    +0.028 A 
ATOM     11  C   UNL     1       1.378   1.832  -0.001  0.00  0.00    +0.050 A 
ATOM     12  C   UNL     1      -0.016   1.341   0.009  0.00  0.00    +0.254 C 
ATOM     13  O   UNL     1      -1.012   2.036   0.018  0.00  0.00    -0.270 OA
BRANCH   3  14
ATOM     14  C   UNL     1      -1.195  -0.849   0.009  0.00  0.00    +0.117 C 
BRANCH  14  15
ATOM     15  C   UNL     1      -1.625  -1.135  -1.432  0.00  0.00    +0.019 C 
BRANCH  15  17
ATOM     16  C   UNL     1      -3.304  -2.304  -2.865  0.00  0.00    +0.004 C 
ATOM     17  C   UNL     1      -2.874  -2.018  -1.425  0.00  0.00    -0.002 C 
ENDBRANCH  15  17
ENDBRANCH  14  15
ENDBRANCH   3  14
ENDBRANCH   1   9
BRANCH   1  18
ATOM     18  O   UNL     1       5.319   4.664  -0.022  0.00  0.00    -0.449 OA
BRANCH  18  19
ATOM     19  C   UNL     1       5.864   6.010  -0.020  0.00  0.00    +0.259 C 
ATOM     20  C   UNL     1       6.042   6.490  -1.461  0.00  0.00    +0.062 C 
BRANCH  19  21
ATOM     21  C   UNL     1       7.200   6.009   0.678  0.00  0.00    +0.258 C 
ATOM     22  O   UNL     1       7.690   4.963   1.049  0.00  0.00    -0.271 OA
ATOM     23  N   UNL     1       7.849   7.171   0.891  0.00  0.00    -0.276 N 
ATOM     24  H   UNL     1       7.457   8.007   0.594  0.00  0.00    +0.155 HD
BRANCH  23  25
ATOM     25  C   UNL     1       9.078   7.170   1.533  0.00  0.00    +0.084 A 
ATOM     26  C   UNL     1       9.895   8.253   1.835  0.00  0.00    +0.065 A 
ATOM     27  C   UNL     1      11.132   7.963   2.519  0.00  0.00    +0.022 A 
ATOM     28  C   UNL     1      11.393   6.672   2.796  0.00  0.00    +0.048 A 
ATOM     29  S   UNL     1       9.971   5.819   2.147  0.00  0.00    -0.081 S 
BRANCH  26  30
ATOM     30  C   UNL     1       9.517   9.625   1.479  0.00  0.00    +0.244 C 
ATOM     31  O   UNL     1       8.465   9.836   0.905  0.00  0.00    -0.270 OA
ATOM     32  N   UNL     1      10.334  10.651   1.788  0.00  0.00    -0.325 N 
ATOM     33  H   UNL     1      11.173  10.482   2.245  0.00  0.00    +0.145 HD
ATOM     34  H   UNL     1      10.084  11.558   1.552  0.00  0.00    +0.145 HD
ENDBRANCH  26  30
ENDBRANCH  23  25
ENDBRANCH  19  21
ENDBRANCH  18  19
ENDBRANCH   1  18
TORSDOF 9
