REMARK  Name = ZINC15675695
REMARK  6 active torsions:
REMARK  status: ('A' for Active; 'I' for Inactive)
REMARK    1  A    between atoms: C_1  and  O_2
REMARK    2  A    between atoms: O_2  and  C_3
REMARK    3  A    between atoms: C_6  and  C_9
REMARK    4  A    between atoms: C_11  and  C_14
REMARK    5  A    between atoms: N_24  and  C_25
REMARK    6  A    between atoms: C_25  and  C_26
REMARK                            x       y       z     vdW  Elec       q    Type
REMARK                         _______ _______ _______ _____ _____    ______ ____
ROOT
ATOM      1  C   UNL     1       3.557  -5.428  -6.220  0.00  0.00    +0.152 C 
ATOM      2  C   UNL     1       5.046  -5.731  -6.008  0.00  0.00    +0.083 C 
ATOM      3  C   UNL     1       5.384  -6.971  -6.800  0.00  0.00    +0.040 A 
ATOM      4  C   UNL     1       4.586  -7.462  -7.776  0.00  0.00    +0.051 A 
ATOM      5  N   UNL     1       5.194  -8.575  -8.266  0.00  0.00    -0.349 N 
ATOM      6  H   UNL     1       4.863  -9.148  -8.975  0.00  0.00    +0.166 HD
ATOM      7  C   UNL     1       6.349  -8.730  -7.577  0.00  0.00    +0.171 A 
ATOM      8  N   UNL     1       6.451  -7.763  -6.702  0.00  0.00    -0.349 N 
ATOM      9  C   UNL     1       3.281  -6.832  -8.186  0.00  0.00    +0.140 C 
ATOM     10  N   UNL     1       3.246  -5.457  -7.656  0.00  0.00    -0.281 NA
ATOM     11  H   UNL     1       7.186  -7.642  -6.080  0.00  0.00    +0.166 HD
ENDROOT
BRANCH   1  14
ATOM     12  C   UNL     1       2.496  -2.494  -4.365  0.00  0.00    +0.202 A 
ATOM     13  N   UNL     1       2.605  -3.822  -4.554  0.00  0.00    -0.190 NA
ATOM     14  C   UNL     1       3.239  -4.063  -5.666  0.00  0.00    +0.245 A 
ATOM     15  O   UNL     1       3.562  -2.894  -6.234  0.00  0.00    -0.336 OA
ATOM     16  N   UNL     1       3.064  -1.879  -5.374  0.00  0.00    -0.056 NA
BRANCH  12  20
ATOM     17  C   UNL     1       0.606  -0.607  -1.055  0.00  0.00    +0.120 A 
ATOM     18  C   UNL     1       1.172   0.164  -2.061  0.00  0.00    +0.046 A 
ATOM     19  C   UNL     1       1.786  -0.445  -3.135  0.00  0.00    +0.015 A 
ATOM     20  C   UNL     1       1.837  -1.836  -3.211  0.00  0.00    +0.023 A 
ATOM     21  C   UNL     1       1.267  -2.607  -2.199  0.00  0.00    +0.015 A 
ATOM     22  C   UNL     1       0.659  -1.993  -1.125  0.00  0.00    +0.046 A 
BRANCH  17  24
ATOM     23  C   UNL     1      -0.017   1.425   0.010  0.00  0.00    +0.277 C 
ATOM     24  O   UNL     1       0.002  -0.004   0.002  0.00  0.00    -0.495 OA
ENDBRANCH  17  24
ENDBRANCH  12  20
ENDBRANCH   1  14
BRANCH  10  25
ATOM     25  C   UNL     1       1.950  -4.822  -7.927  0.00  0.00    +0.120 C 
BRANCH  25  26
ATOM     26  C   UNL     1       1.776  -4.649  -9.414  0.00  0.00    -0.033 A 
ATOM     27  C   UNL     1       2.217  -3.494 -10.032  0.00  0.00    +0.008 A 
ATOM     28  C   UNL     1       2.058  -3.334 -11.395  0.00  0.00    +0.038 A 
ATOM     29  C   UNL     1       1.458  -4.333 -12.143  0.00  0.00    +0.123 A 
ATOM     30  C   UNL     1       1.017  -5.490 -11.524  0.00  0.00    +0.038 A 
ATOM     31  C   UNL     1       1.181  -5.649 -10.161  0.00  0.00    +0.008 A 
ATOM     32  F   UNL     1       1.303  -4.178 -13.476  0.00  0.00    -0.205 F 
ENDBRANCH  25  26
ENDBRANCH  10  25
TORSDOF 5
