REMARK  Name = ZINC36275490
REMARK  4 active torsions:
REMARK  status: ('A' for Active; 'I' for Inactive)
REMARK    1  A    between atoms: C_1  and  C_2
REMARK    2  A    between atoms: C_2  and  C_4
REMARK    3  A    between atoms: C_10  and  C_15
REMARK    4  A    between atoms: C_19  and  N_21
REMARK                            x       y       z     vdW  Elec       q    Type
REMARK                         _______ _______ _______ _____ _____    ______ ____
ROOT
ATOM      1  C   UNL     1       0.731  -0.503   1.223  0.00  0.00    +0.129 A 
ATOM      2  N   UNL     1       2.053  -0.799   1.136  0.00  0.00    -0.309 N 
ATOM      3  H   UNL     1       2.511  -0.685   0.289  0.00  0.00    +0.170 HD
ATOM      4  C   UNL     1       2.741  -1.248   2.203  0.00  0.00    +0.260 A 
ATOM      5  O   UNL     1       3.928  -1.509   2.108  0.00  0.00    -0.267 OA
ATOM      6  C   UNL     1       2.057  -1.413   3.449  0.00  0.00    +0.080 A 
ATOM      7  C   UNL     1       2.575  -1.877   4.731  0.00  0.00    +0.004 A 
ATOM      8  C   UNL     1       1.729  -1.952   5.787  0.00  0.00    +0.056 A 
ATOM      9  S   UNL     1       0.175  -1.398   5.111  0.00  0.00    -0.076 S 
ATOM     10  C   UNL     1       0.692  -1.082   3.443  0.00  0.00    +0.116 A 
ATOM     11  N   UNL     1       0.081  -0.639   2.348  0.00  0.00    -0.225 NA
ENDROOT
BRANCH   7  12
ATOM     12  C   UNL     1       3.999  -2.259   4.876  0.00  0.00    -0.014 A 
ATOM     13  C   UNL     1       4.585  -3.137   3.965  0.00  0.00    +0.009 A 
ATOM     14  C   UNL     1       5.912  -3.489   4.105  0.00  0.00    +0.003 A 
ATOM     15  C   UNL     1       6.661  -2.973   5.147  0.00  0.00    +0.033 A 
ATOM     16  C   UNL     1       6.085  -2.103   6.055  0.00  0.00    +0.127 A 
ATOM     17  C   UNL     1       4.761  -1.739   5.921  0.00  0.00    +0.041 A 
BRANCH  16  18
ATOM     18  N   UNL     1       6.894  -1.555   7.168  0.00  0.00    +0.056 N 
ATOM     19  O   UNL     1       8.055  -1.869   7.282  0.00  0.00    -0.126 OA
ATOM     20  O   UNL     1       6.392  -0.794   7.962  0.00  0.00    -0.126 OA
ENDBRANCH  16  18
ENDBRANCH   7  12
BRANCH   1  22
ATOM     21  C   UNL     1      -0.019   1.526   0.010  0.00  0.00    +0.033 C 
ATOM     22  C   UNL     1       0.002  -0.004   0.002  0.00  0.00    +0.143 C 
ATOM     23 CL   UNL     1      -1.689  -0.628   0.015  0.00  0.00    -0.114 Cl
ENDBRANCH   1  22
TORSDOF 3
