REMARK  Name = ZINC19851132
REMARK  8 active torsions:
REMARK  status: ('A' for Active; 'I' for Inactive)
REMARK    1  A    between atoms: C_1  and  C_2
REMARK    2  A    between atoms: C_2  and  C_3
REMARK    3  A    between atoms: C_3  and  C_5
REMARK    4  A    between atoms: C_8  and  O_11
REMARK    5  A    between atoms: O_11  and  C_12
REMARK    6  A    between atoms: C_12  and  C_13
REMARK    7  A    between atoms: C_15  and  C_18
REMARK    8  A    between atoms: C_19  and  C_28
REMARK                            x       y       z     vdW  Elec       q    Type
REMARK                         _______ _______ _______ _____ _____    ______ ____
ROOT
ATOM      1  C   UNL     1      -4.580   0.909   0.068  0.00  0.00    +0.265 A 
ATOM      2  N   UNL     1      -3.767   1.935   0.064  0.00  0.00    -0.188 NA
ATOM      3  C   UNL     1      -2.520   1.411   0.043  0.00  0.00    +0.204 A 
ATOM      4  N   UNL     1      -2.649   0.110   0.030  0.00  0.00    -0.056 NA
ATOM      5  O   UNL     1      -3.823  -0.193   0.050  0.00  0.00    -0.334 OA
ENDROOT
BRANCH   3   6
ATOM      6  C   UNL     1      -1.245   2.171   0.032  0.00  0.00    +0.047 A 
ATOM      7  C   UNL     1      -1.251   3.564   0.036  0.00  0.00    +0.049 A 
ATOM      8  N   UNL     1      -0.118   4.236   0.031  0.00  0.00    -0.259 NA
ATOM      9  C   UNL     1       1.052   3.629   0.015  0.00  0.00    +0.113 A 
ATOM     10  C   UNL     1       1.141   2.245   0.003  0.00  0.00    -0.043 A 
ATOM     11  C   UNL     1      -0.018   1.500   0.010  0.00  0.00    -0.034 A 
ATOM     12  C   UNL     1       0.002  -0.004   0.002  0.00  0.00    +0.017 C 
ATOM     13  C   UNL     1       1.384  -0.502  -0.425  0.00  0.00    -0.077 C 
ATOM     14  N   UNL     1       2.402   0.191   0.381  0.00  0.00    +0.382 N 
ATOM     15  C   UNL     1       2.499   1.598  -0.019  0.00  0.00    -0.045 C 
ATOM     16  C   UNL     1      -2.562   4.307   0.052  0.00  0.00    +0.066 C 
ATOM     17  H   UNL     1       2.124   0.139   1.444  0.00  0.00    -0.085 HD
ATOM     18  H   UNL     1       3.378  -0.293   0.233  0.00  0.00    -0.085 HD
ENDBRANCH   3   6
BRANCH   1  19
ATOM     19  C   UNL     1      -6.086   0.960   0.089  0.00  0.00    +0.327 C 
BRANCH  19  20
ATOM     20  O   UNL     1      -6.580   0.986  -1.252  0.00  0.00    -0.483 OA
BRANCH  20  24
ATOM     21  C   UNL     1     -10.673   1.128  -1.735  0.00  0.00    +0.018 A 
ATOM     22  C   UNL     1      -9.834   1.107  -2.856  0.00  0.00    +0.015 A 
ATOM     23  C   UNL     1      -8.473   1.060  -2.689  0.00  0.00    +0.046 A 
ATOM     24  C   UNL     1      -7.927   1.032  -1.411  0.00  0.00    +0.121 A 
ATOM     25  C   UNL     1      -8.756   1.047  -0.294  0.00  0.00    +0.046 A 
ATOM     26  C   UNL     1     -10.118   1.101  -0.449  0.00  0.00    +0.015 A 
BRANCH  21  27
ATOM     27  C   UNL     1     -12.131   1.179  -1.907  0.00  0.00    +0.163 C 
ATOM     28  O   UNL     1     -12.609   1.204  -3.021  0.00  0.00    -0.292 OA
BRANCH  27  30
ATOM     29  C   UNL     1     -14.492   1.255  -1.153  0.00  0.00    +0.012 C 
ATOM     30  C   UNL     1     -13.032   1.202  -0.699  0.00  0.00    +0.076 C 
ENDBRANCH  27  30
ENDBRANCH  21  27
ENDBRANCH  20  24
ENDBRANCH  19  20
ENDBRANCH   1  19
TORSDOF 6
