REMARK  Name = ZINC32626794
REMARK  7 active torsions:
REMARK  status: ('A' for Active; 'I' for Inactive)
REMARK    1  A    between atoms: C_2  and  C_3
REMARK    2  A    between atoms: C_3  and  N_4
REMARK    3  A    between atoms: C_10  and  C_30
REMARK    4  A    between atoms: C_14  and  S_15
REMARK    5  A    between atoms: S_15  and  C_16
REMARK    6  A    between atoms: C_16  and  C_17
REMARK    7  A    between atoms: C_19  and  N_27
REMARK                            x       y       z     vdW  Elec       q    Type
REMARK                         _______ _______ _______ _____ _____    ______ ____
ROOT
ATOM      1  N   UNL     1      -2.146   1.365  -1.112  0.00  0.00    -0.283 N 
ATOM      2  C   UNL     1      -2.058   2.007  -2.299  0.00  0.00    +0.263 A 
ATOM      3  O   UNL     1      -1.310   2.955  -2.450  0.00  0.00    -0.267 OA
ATOM      4  C   UNL     1      -2.898   1.515  -3.404  0.00  0.00    +0.065 A 
ATOM      5  C   UNL     1      -2.872   2.111  -4.664  0.00  0.00    +0.016 A 
ATOM      6  C   UNL     1      -3.670   1.628  -5.661  0.00  0.00    +0.016 A 
ATOM      7  C   UNL     1      -4.518   0.537  -5.430  0.00  0.00    +0.065 A 
ATOM      8  C   UNL     1      -4.561  -0.071  -4.182  0.00  0.00    +0.043 A 
ATOM      9  C   UNL     1      -3.748   0.414  -3.154  0.00  0.00    +0.080 A 
ATOM     10  N   UNL     1      -3.756  -0.147  -1.922  0.00  0.00    -0.223 NA
ATOM     11  C   UNL     1      -2.995   0.307  -0.956  0.00  0.00    +0.173 A 
ENDROOT
BRANCH   7  12
ATOM     12  C   UNL     1      -5.376   0.029  -6.524  0.00  0.00    +0.387 C 
ATOM     13  O   UNL     1      -6.113  -0.916  -6.329  0.00  0.00    -0.241 OA
ATOM     14  O   UNL     1      -5.339   0.616  -7.736  0.00  0.00    -0.241 OA
ENDBRANCH   7  12
BRANCH   1  15
ATOM     15  C   UNL     1      -1.328   1.812   0.018  0.00  0.00    +0.154 C 
BRANCH  15  17
ATOM     16  C   UNL     1       1.113   1.746   0.001  0.00  0.00    +0.005 C 
ATOM     17  C   UNL     1      -0.013   1.076   0.008  0.00  0.00    -0.013 C 
ENDBRANCH  15  17
ENDBRANCH   1  15
BRANCH  11  18
ATOM     18  S   UNL     1      -3.072  -0.485   0.616  0.00  0.00    -0.083 S 
BRANCH  18  19
ATOM     19  C   UNL     1      -4.305  -1.763   0.264  0.00  0.00    +0.116 C 
BRANCH  19  20
ATOM     20  C   UNL     1      -4.539  -2.589   1.503  0.00  0.00    +0.010 A 
ATOM     21  C   UNL     1      -5.519  -2.218   2.405  0.00  0.00    +0.041 A 
ATOM     22  C   UNL     1      -5.736  -2.974   3.542  0.00  0.00    +0.130 A 
ATOM     23  C   UNL     1      -4.973  -4.102   3.781  0.00  0.00    +0.082 A 
ATOM     24  C   UNL     1      -3.988  -4.478   2.881  0.00  0.00    +0.165 A 
ATOM     25  C   UNL     1      -3.776  -3.723   1.733  0.00  0.00    +0.166 A 
ATOM     26  O   UNL     1      -2.814  -4.075   0.837  0.00  0.00    -0.485 OA
ATOM     27  C   UNL     1      -1.816  -4.997   1.289  0.00  0.00    +0.270 C 
ATOM     28  C   UNL     1      -2.521  -6.143   2.028  0.00  0.00    +0.270 C 
ATOM     29  O   UNL     1      -3.242  -5.588   3.133  0.00  0.00    -0.485 OA
BRANCH  22  30
ATOM     30  N   UNL     1      -6.787  -2.575   4.504  0.00  0.00    +0.057 N 
ATOM     31  O   UNL     1      -7.460  -1.581   4.294  0.00  0.00    -0.126 OA
ATOM     32  O   UNL     1      -6.980  -3.240   5.506  0.00  0.00    -0.126 OA
ENDBRANCH  22  30
ENDBRANCH  19  20
ENDBRANCH  18  19
ENDBRANCH  11  18
TORSDOF 7
