REMARK  Name = ZINC12679752
REMARK  8 active torsions:
REMARK  status: ('A' for Active; 'I' for Inactive)
REMARK    1  A    between atoms: C_1  and  C_2
REMARK    2  A    between atoms: C_2  and  C_4
REMARK    3  A    between atoms: C_2  and  N_14
REMARK    4  A    between atoms: C_15  and  C_17
REMARK    5  A    between atoms: C_17  and  N_18
REMARK    6  A    between atoms: C_19  and  C_21
REMARK    7  A    between atoms: C_21  and  N_22
REMARK    8  A    between atoms: C_23  and  C_25
REMARK                            x       y       z     vdW  Elec       q    Type
REMARK                         _______ _______ _______ _____ _____    ______ ____
ROOT
ATOM      1  C   UNL     1      -6.653  -0.158  -2.322  0.00  0.00    +0.200 C 
ENDROOT
BRANCH   1   3
ATOM      2  N   UNL     1      -4.657  -0.137  -0.860  0.00  0.00    -0.307 N 
ATOM      3  C   UNL     1      -5.660  -0.844  -1.419  0.00  0.00    +0.231 C 
ATOM      4  O   UNL     1      -5.762  -2.031  -1.195  0.00  0.00    -0.274 OA
ATOM      5  H   UNL     1      -4.575   0.813  -1.039  0.00  0.00    +0.149 HD
BRANCH   2   7
ATOM      6  C   UNL     1      -4.250  -0.858   1.441  0.00  0.00    +0.033 C 
ATOM      7  C   UNL     1      -3.692  -0.803   0.018  0.00  0.00    +0.100 C 
BRANCH   7   8
ATOM      8  C   UNL     1      -2.397  -0.033   0.016  0.00  0.00    -0.024 A 
ATOM      9  C   UNL     1      -2.415   1.349   0.026  0.00  0.00    +0.009 A 
ATOM     10  C   UNL     1      -1.229   2.059   0.019  0.00  0.00    +0.050 A 
ATOM     11  C   UNL     1      -0.017   1.385   0.010  0.00  0.00    +0.162 A 
ATOM     12  C   UNL     1       0.002  -0.004   0.002  0.00  0.00    +0.162 A 
ATOM     13  C   UNL     1      -1.192  -0.710   0.004  0.00  0.00    +0.055 A 
ATOM     14  O   UNL     1       1.181  -0.685  -0.007  0.00  0.00    -0.485 OA
ATOM     15  C   UNL     1       2.347   0.053  -0.387  0.00  0.00    +0.270 C 
ATOM     16  C   UNL     1       2.334   1.392   0.364  0.00  0.00    +0.270 C 
ATOM     17  O   UNL     1       1.143   2.098   0.002  0.00  0.00    -0.485 OA
ENDBRANCH   7   8
ENDBRANCH   2   7
ENDBRANCH   1   3
BRANCH   1  18
ATOM     18  N   UNL     1      -7.635  -1.135  -2.798  0.00  0.00    -0.305 N 
ATOM     19  C   UNL     1      -8.626  -0.746  -3.625  0.00  0.00    +0.231 C 
ATOM     20  O   UNL     1      -8.704   0.412  -3.974  0.00  0.00    -0.274 OA
ATOM     21  H   UNL     1      -7.572  -2.062  -2.518  0.00  0.00    +0.149 HD
BRANCH  19  22
ATOM     22  C   UNL     1      -9.636  -1.751  -4.115  0.00  0.00    +0.200 C 
BRANCH  22  23
ATOM     23  N   UNL     1     -10.602  -1.085  -4.992  0.00  0.00    -0.303 N 
ATOM     24  C   UNL     1     -11.604  -1.792  -5.551  0.00  0.00    +0.246 C 
ATOM     25  O   UNL     1     -11.707  -2.982  -5.327  0.00  0.00    -0.270 OA
ATOM     26  H   UNL     1     -10.520  -0.135  -5.171  0.00  0.00    +0.150 HD
BRANCH  24  27
ATOM     27  C   UNL     1     -12.577  -1.120  -6.436  0.00  0.00    +0.055 A 
ATOM     28  C   UNL     1     -12.462   0.247  -6.696  0.00  0.00    +0.016 A 
ATOM     29  C   UNL     1     -13.373   0.869  -7.523  0.00  0.00    +0.021 A 
ATOM     30  C   UNL     1     -14.402   0.140  -8.097  0.00  0.00    +0.042 A 
ATOM     31  C   UNL     1     -14.524  -1.216  -7.844  0.00  0.00    +0.040 A 
ATOM     32  C   UNL     1     -13.614  -1.851  -7.022  0.00  0.00    +0.054 A 
ATOM     33 CL   UNL     1     -13.763  -3.553  -6.711  0.00  0.00    -0.083 Cl
ATOM     34 CL   UNL     1     -15.546   0.931  -9.137  0.00  0.00    -0.083 Cl
ENDBRANCH  24  27
ENDBRANCH  22  23
ENDBRANCH  19  22
ENDBRANCH   1  18
TORSDOF 7
