REMARK  Name = ZINC13064967
REMARK  12 active torsions:
REMARK  status: ('A' for Active; 'I' for Inactive)
REMARK    1  A    between atoms: C_1  and  C_2
REMARK    2  A    between atoms: C_2  and  C_3
REMARK    3  A    between atoms: C_3  and  C_5
REMARK    4  A    between atoms: C_3  and  N_63
REMARK    5  A    between atoms: N_9  and  C_10
REMARK    6  A    between atoms: C_10  and  C_11
REMARK    7  A    between atoms: C_16  and  C_17
REMARK    8  A    between atoms: C_16  and  N_63
REMARK    9  A    between atoms: C_22  and  C_23
REMARK   10  A    between atoms: C_22  and  N_63
REMARK   11  A    between atoms: C_26  and  C_36
REMARK   12  A    between atoms: C_28  and  C_35
REMARK                            x       y       z     vdW  Elec       q    Type
REMARK                         _______ _______ _______ _____ _____    ______ ____
ROOT
ATOM      1  N   UNL     1       5.272   4.378  -1.789  0.00  0.00    +0.392 N 
ATOM      2  H   UNL     1       5.311   3.547  -2.390  0.00  0.00    -0.080 HD
ENDROOT
BRANCH   1   3
ATOM      3  C   UNL     1       6.623   4.971  -1.700  0.00  0.00    +0.003 C 
BRANCH   3   4
ATOM      4  C   UNL     1       7.639   3.858  -1.727  0.00  0.00    +0.139 A 
ATOM      5  N   UNL     1       7.596   2.743  -1.040  0.00  0.00    -0.115 NA
ATOM      6  N   UNL     1       8.642   2.051  -1.339  0.00  0.00    -0.023 NA
ATOM      7  N   UNL     1       9.354   2.700  -2.193  0.00  0.00    -0.044 NA
ATOM      8  N   UNL     1       8.769   3.819  -2.457  0.00  0.00    -0.223 N 
BRANCH   8   9
ATOM      9  C   UNL     1       9.245   4.854  -3.379  0.00  0.00    +0.221 C 
BRANCH   9  10
ATOM     10  C   UNL     1      10.117   5.830  -2.631  0.00  0.00    +0.126 A 
ATOM     11  C   UNL     1      11.448   5.728  -2.466  0.00  0.00    +0.046 A 
ATOM     12  C   UNL     1      11.854   6.852  -1.710  0.00  0.00    +0.041 A 
ATOM     13  C   UNL     1      10.745   7.569  -1.452  0.00  0.00    +0.195 A 
ATOM     14  O   UNL     1       9.696   6.945  -2.013  0.00  0.00    -0.466 OA
ENDBRANCH   9  10
ENDBRANCH   8   9
ENDBRANCH   3   4
BRANCH   3  16
ATOM     15  C   UNL     1       5.840   6.979  -0.436  0.00  0.00    +0.002 C 
ATOM     16  C   UNL     1       6.773   5.767  -0.402  0.00  0.00    -0.011 C 
ENDBRANCH   3  16
ENDBRANCH   1   3
BRANCH   1  17
ATOM     17  C   UNL     1       4.330   5.353  -2.377  0.00  0.00    -0.034 C 
BRANCH  17  18
ATOM     18  C   UNL     1       4.774   5.674  -3.782  0.00  0.00    -0.027 A 
ATOM     19  C   UNL     1       4.536   4.991  -4.928  0.00  0.00    +0.009 A 
ATOM     20  C   UNL     1       5.048   5.479  -6.117  0.00  0.00    +0.008 A 
ATOM     21  C   UNL     1       5.772   6.624  -6.099  0.00  0.00    +0.045 A 
ATOM     22  S   UNL     1       5.742   7.055  -4.367  0.00  0.00    -0.103 S 
ENDBRANCH  17  18
ENDBRANCH   1  17
BRANCH   1  23
ATOM     23  C   UNL     1       4.807   3.976  -0.444  0.00  0.00    -0.036 C 
BRANCH  23  24
ATOM     24  C   UNL     1       3.595   3.094  -0.594  0.00  0.00    +0.001 A 
ATOM     25  C   UNL     1       3.738   1.746  -0.620  0.00  0.00    +0.017 A 
ATOM     26  C   UNL     1       2.540   0.917  -0.768  0.00  0.00    +0.002 A 
ATOM     27  C   UNL     1       2.626  -0.478  -0.801  0.00  0.00    -0.041 A 
ATOM     28  C   UNL     1       1.489  -1.223  -0.941  0.00  0.00    +0.007 A 
ATOM     29  C   UNL     1       0.250  -0.607  -1.049  0.00  0.00    -0.048 A 
ATOM     30  C   UNL     1       0.142   0.766  -1.017  0.00  0.00    +0.029 A 
ATOM     31  C   UNL     1       1.286   1.546  -0.877  0.00  0.00    +0.050 A 
ATOM     32  N   UNL     1       1.207   2.921  -0.843  0.00  0.00    -0.322 N 
ATOM     33  H   UNL     1       0.342   3.353  -0.918  0.00  0.00    +0.169 HD
ATOM     34  C   UNL     1       2.313   3.674  -0.708  0.00  0.00    +0.251 A 
ATOM     35  O   UNL     1       2.206   4.888  -0.681  0.00  0.00    -0.268 OA
ATOM     36  C   UNL     1      -0.991  -1.449  -1.201  0.00  0.00    +0.044 C 
ATOM     37  C   UNL     1       3.966  -1.158  -0.684  0.00  0.00    +0.044 C 
ENDBRANCH  23  24
ENDBRANCH   1  23
TORSDOF 9
