REMARK  Name = ZINC57338238
REMARK  8 active torsions:
REMARK  status: ('A' for Active; 'I' for Inactive)
REMARK    1  A    between atoms: C_1  and  C_2
REMARK    2  A    between atoms: C_2  and  C_3
REMARK    3  A    between atoms: C_3  and  C_4
REMARK    4  A    between atoms: C_4  and  N_5
REMARK    5  A    between atoms: C_6  and  C_8
REMARK    6  A    between atoms: C_12  and  C_30
REMARK    7  A    between atoms: C_16  and  C_18
REMARK    8  A    between atoms: C_24  and  N_27
REMARK                            x       y       z     vdW  Elec       q    Type
REMARK                         _______ _______ _______ _____ _____    ______ ____
ROOT
ATOM      1  C   UNL     1      -4.436  -3.995  -0.241  0.00  0.00    +0.092 C 
ATOM      2  C   UNL     1      -4.538  -5.511  -0.059  0.00  0.00    +0.016 C 
ATOM      3  C   UNL     1      -3.771  -6.214  -1.182  0.00  0.00    +0.023 C 
ATOM      4  C   UNL     1      -4.397  -5.846  -2.531  0.00  0.00    +0.073 C 
ATOM      5  N   UNL     1      -4.435  -4.382  -2.651  0.00  0.00    -0.293 N 
ATOM      6  C   UNL     1      -5.070  -3.601  -1.579  0.00  0.00    +0.121 C 
ATOM      7  C   UNL     1      -3.898  -3.767  -3.723  0.00  0.00    +0.265 C 
ATOM      8  O   UNL     1      -3.479  -4.425  -4.656  0.00  0.00    -0.268 OA
ATOM      9  C   UNL     1      -3.556  -6.434  -3.665  0.00  0.00    +0.028 C 
ENDROOT
BRANCH   7  10
ATOM     10  C   UNL     1      -3.819  -2.299  -3.765  0.00  0.00    +0.127 A 
ATOM     11  C   UNL     1      -3.429  -1.561  -4.837  0.00  0.00    +0.043 A 
ATOM     12  C   UNL     1      -3.491  -0.196  -4.467  0.00  0.00    +0.005 A 
ATOM     13  C   UNL     1      -3.213   0.998  -5.145  0.00  0.00    +0.010 A 
ATOM     14  C   UNL     1      -3.371   2.194  -4.506  0.00  0.00    +0.003 A 
ATOM     15  C   UNL     1      -3.808   2.239  -3.188  0.00  0.00    +0.035 A 
ATOM     16  C   UNL     1      -4.088   1.080  -2.501  0.00  0.00    +0.152 A 
ATOM     17  C   UNL     1      -3.934  -0.152  -3.131  0.00  0.00    +0.102 A 
ATOM     18  N   UNL     1      -4.134  -1.450  -2.721  0.00  0.00    -0.240 NA
BRANCH  16  19
ATOM     19  N   UNL     1      -4.552   1.143  -1.097  0.00  0.00    +0.059 N 
ATOM     20  O   UNL     1      -4.686   2.214  -0.552  0.00  0.00    -0.126 OA
ATOM     21  O   UNL     1      -4.798   0.123  -0.495  0.00  0.00    -0.126 OA
ENDBRANCH  16  19
ENDBRANCH   7  10
BRANCH   1  23
ATOM     22  N   UNL     1      -2.653  -2.286  -0.378  0.00  0.00    -0.315 N 
ATOM     23  C   UNL     1      -2.986  -3.584  -0.231  0.00  0.00    +0.218 C 
ATOM     24  O   UNL     1      -2.119  -4.420  -0.091  0.00  0.00    -0.275 OA
ATOM     25  H   UNL     1      -3.346  -1.617  -0.490  0.00  0.00    +0.149 HD
BRANCH  22  26
ATOM     26  C   UNL     1      -1.244  -1.886  -0.368  0.00  0.00    +0.104 C 
BRANCH  26  27
ATOM     27  C   UNL     1      -1.143  -0.370  -0.551  0.00  0.00    +0.018 C 
BRANCH  27  29
ATOM     28  C   UNL     1       0.430   1.563  -0.725  0.00  0.00    +0.004 C 
ATOM     29  C   UNL     1       0.329   0.048  -0.541  0.00  0.00    -0.002 C 
ENDBRANCH  27  29
ENDBRANCH  26  27
ENDBRANCH  22  26
ENDBRANCH   1  23
TORSDOF 6
