REMARK  Name = ZINC08878336
REMARK  10 active torsions:
REMARK  status: ('A' for Active; 'I' for Inactive)
REMARK    1  A    between atoms: C_1  and  C_2
REMARK    2  A    between atoms: C_2  and  C_3
REMARK    3  A    between atoms: C_2  and  C_4
REMARK    4  A    between atoms: C_4  and  C_6
REMARK    5  A    between atoms: C_4  and  N_17
REMARK    6  A    between atoms: C_18  and  C_20
REMARK    7  A    between atoms: C_20  and  C_21
REMARK    8  A    between atoms: C_21  and  N_22
REMARK    9  A    between atoms: C_23  and  C_25
REMARK   10  A    between atoms: C_28  and  N_31
REMARK                            x       y       z     vdW  Elec       q    Type
REMARK                         _______ _______ _______ _____ _____    ______ ____
ROOT
ATOM      1  N   UNL     1       5.116  -6.919  -0.083  0.00  0.00    -0.308 N 
ATOM      2  C   UNL     1       3.936  -6.267  -0.068  0.00  0.00    +0.215 C 
ATOM      3  O   UNL     1       2.897  -6.893  -0.061  0.00  0.00    -0.276 OA
ATOM      4  H   UNL     1       5.946  -6.418  -0.088  0.00  0.00    +0.149 HD
ENDROOT
BRANCH   1   5
ATOM      5  C   UNL     1       5.143  -8.383  -0.090  0.00  0.00    +0.106 C 
BRANCH   5   6
ATOM      6  C   UNL     1       6.434  -8.859  -0.706  0.00  0.00    -0.023 A 
ATOM      7  C   UNL     1       7.616  -8.202  -0.420  0.00  0.00    +0.009 A 
ATOM      8  C   UNL     1       8.805  -8.632  -0.981  0.00  0.00    +0.050 A 
ATOM      9  C   UNL     1       8.807  -9.724  -1.833  0.00  0.00    +0.162 A 
ATOM     10  C   UNL     1       7.620 -10.383  -2.119  0.00  0.00    +0.162 A 
ATOM     11  C   UNL     1       6.433  -9.954  -1.551  0.00  0.00    +0.055 A 
ATOM     12  O   UNL     1       7.632 -11.459  -2.959  0.00  0.00    -0.488 OA
ATOM     13  C   UNL     1       8.286 -12.630  -2.466  0.00  0.00    +0.232 C 
ATOM     14  C   UNL     1       9.784 -12.557  -2.718  0.00  0.00    +0.082 C 
ATOM     15  C   UNL     1      10.447 -11.429  -1.945  0.00  0.00    +0.232 C 
ATOM     16  O   UNL     1       9.972 -10.158  -2.394  0.00  0.00    -0.488 OA
ENDBRANCH   5   6
BRANCH   5  18
ATOM     17  C   UNL     1       5.069 -10.433   1.337  0.00  0.00    +0.009 C 
ATOM     18  C   UNL     1       5.041  -8.903   1.345  0.00  0.00    +0.008 C 
ATOM     19  C   UNL     1       6.221  -8.375   2.164  0.00  0.00    +0.009 C 
ENDBRANCH   5  18
ENDBRANCH   1   5
BRANCH   2  20
ATOM     20  C   UNL     1       3.908  -4.760  -0.060  0.00  0.00    +0.114 C 
BRANCH  20  21
ATOM     21  C   UNL     1       2.456  -4.277  -0.043  0.00  0.00    +0.113 C 
BRANCH  21  22
ATOM     22  N   UNL     1       2.429  -2.812  -0.036  0.00  0.00    -0.311 N 
ATOM     23  C   UNL     1       1.250  -2.160  -0.021  0.00  0.00    +0.244 C 
ATOM     24  O   UNL     1       0.208  -2.788  -0.014  0.00  0.00    -0.270 OA
ATOM     25  H   UNL     1       3.260  -2.312  -0.041  0.00  0.00    +0.149 HD
BRANCH  23  26
ATOM     26  C   UNL     1       1.222  -0.682  -0.013  0.00  0.00    +0.037 A 
ATOM     27  C   UNL     1       0.002  -0.004   0.002  0.00  0.00    +0.015 A 
ATOM     28  C   UNL     1      -0.017   1.375   0.010  0.00  0.00    +0.033 A 
ATOM     29  C   UNL     1       1.170   2.086   0.002  0.00  0.00    +0.126 A 
ATOM     30  C   UNL     1       2.383   1.420  -0.013  0.00  0.00    +0.033 A 
ATOM     31  C   UNL     1       2.416   0.041  -0.021  0.00  0.00    +0.015 A 
BRANCH  29  32
ATOM     32  N   UNL     1       1.143   3.566   0.010  0.00  0.00    +0.056 N 
ATOM     33  O   UNL     1       0.077   4.155   0.023  0.00  0.00    -0.126 OA
ATOM     34  O   UNL     1       2.186   4.195   0.003  0.00  0.00    -0.126 OA
ENDBRANCH  29  32
ENDBRANCH  23  26
ENDBRANCH  21  22
ENDBRANCH  20  21
ENDBRANCH   2  20
TORSDOF 8
