REMARK  Name = ZINC07194233
REMARK  7 active torsions:
REMARK  status: ('A' for Active; 'I' for Inactive)
REMARK    1  A    between atoms: C_1  and  C_2
REMARK    2  A    between atoms: C_5  and  N_11
REMARK    3  A    between atoms: C_6  and  N_8
REMARK    4  A    between atoms: C_12  and  C_14
REMARK    5  A    between atoms: C_14  and  C_16
REMARK    6  A    between atoms: C_14  and  S_22
REMARK    7  A    between atoms: S_22  and  C_23
REMARK                            x       y       z     vdW  Elec       q    Type
REMARK                         _______ _______ _______ _____ _____    ______ ____
ROOT
ATOM      1  N   UNL     1      -2.205   0.848  -0.009  0.00  0.00    -0.282 N 
ATOM      2  C   UNL     1      -2.031  -0.487   0.064  0.00  0.00    +0.235 C 
ATOM      3  O   UNL     1      -0.920  -0.945   0.228  0.00  0.00    -0.274 OA
ATOM      4  H   UNL     1      -3.100   1.217  -0.074  0.00  0.00    +0.155 HD
ENDROOT
BRANCH   1   9
ATOM      5  C   UNL     1       2.299   4.296   0.062  0.00  0.00    +0.044 C 
ATOM      6  C   UNL     1       1.101   3.382   0.046  0.00  0.00    -0.048 A 
ATOM      7  C   UNL     1       1.041   2.307   0.914  0.00  0.00    +0.005 A 
ATOM      8  C   UNL     1      -0.055   1.468   0.901  0.00  0.00    +0.026 A 
ATOM      9  C   UNL     1      -1.096   1.700   0.011  0.00  0.00    +0.064 A 
ATOM     10  C   UNL     1      -1.036   2.784  -0.855  0.00  0.00    +0.148 A 
ATOM     11  C   UNL     1       0.064   3.620  -0.837  0.00  0.00    +0.038 A 
BRANCH  10  12
ATOM     12  N   UNL     1      -2.145   3.039  -1.800  0.00  0.00    +0.058 N 
ATOM     13  O   UNL     1      -2.106   4.008  -2.538  0.00  0.00    -0.126 OA
ATOM     14  O   UNL     1      -3.098   2.281  -1.841  0.00  0.00    -0.126 OA
ENDBRANCH  10  12
ENDBRANCH   1   9
BRANCH   2  15
ATOM     15  C   UNL     1      -3.216  -1.410  -0.060  0.00  0.00    +0.169 C 
BRANCH  15  16
ATOM     16  C   UNL     1      -2.775  -2.715  -0.671  0.00  0.00    -0.025 A 
ATOM     17  C   UNL     1      -1.812  -3.482  -0.041  0.00  0.00    +0.005 A 
ATOM     18  C   UNL     1      -1.411  -4.682  -0.599  0.00  0.00    +0.000 A 
ATOM     19  C   UNL     1      -1.964  -5.109  -1.791  0.00  0.00    +0.000 A 
ATOM     20  C   UNL     1      -2.923  -4.340  -2.423  0.00  0.00    +0.000 A 
ATOM     21  C   UNL     1      -3.328  -3.142  -1.863  0.00  0.00    +0.005 A 
ENDBRANCH  15  16
BRANCH  15  22
ATOM     22  S   UNL     1      -3.915  -1.717   1.581  0.00  0.00    -0.079 S 
BRANCH  22  23
ATOM     23  C   UNL     1      -4.471  -0.095   1.985  0.00  0.00    +0.159 A 
ATOM     24  N   UNL     1      -4.393   1.033   1.290  0.00  0.00    -0.135 NA
ATOM     25  N   UNL     1      -4.852   2.120   1.733  0.00  0.00    -0.149 NA
ATOM     26  C   UNL     1      -5.427   2.210   2.916  0.00  0.00    +0.182 A 
ATOM     27  S   UNL     1      -5.296   0.508   3.456  0.00  0.00    -0.048 S 
ENDBRANCH  22  23
ENDBRANCH  15  22
ENDBRANCH   2  15
TORSDOF 6
