REMARK  Name = ZINC36681072
REMARK  4 active torsions:
REMARK  status: ('A' for Active; 'I' for Inactive)
REMARK    1  A    between atoms: C_3  and  C_10
REMARK    2  A    between atoms: C_5  and  N_7
REMARK    3  A    between atoms: C_11  and  C_12
REMARK    4  A    between atoms: C_18  and  C_20
REMARK                            x       y       z     vdW  Elec       q    Type
REMARK                         _______ _______ _______ _____ _____    ______ ____
ROOT
ATOM      1  C   UNL     1       4.898   4.249  -0.023  0.00  0.00    +0.244 C 
ATOM      2  O   UNL     1       5.959   3.652  -0.037  0.00  0.00    -0.270 OA
ATOM      3  N   UNL     1       4.884   5.597  -0.016  0.00  0.00    -0.235 N 
ATOM      4  C   UNL     1       6.075   6.302  -0.024  0.00  0.00    +0.315 A 
ATOM      5  N   UNL     1       7.282   5.786  -0.044  0.00  0.00    -0.092 NA
ATOM      6  N   UNL     1       8.152   6.734  -0.047  0.00  0.00    -0.106 NA
ATOM      7  C   UNL     1       7.536   7.891  -0.029  0.00  0.00    +0.250 A 
ATOM      8  O   UNL     1       6.208   7.641  -0.019  0.00  0.00    -0.405 OA
ATOM      9  H   UNL     1       4.039   6.073  -0.006  0.00  0.00    +0.160 HD
ENDROOT
BRANCH   7  10
ATOM     10  C   UNL     1       8.175   9.223  -0.024  0.00  0.00    +0.040 A 
ATOM     11  C   UNL     1       7.390  10.378   0.003  0.00  0.00    +0.013 A 
ATOM     12  C   UNL     1       7.993  11.618   0.007  0.00  0.00    +0.002 A 
ATOM     13  C   UNL     1       9.373  11.721  -0.016  0.00  0.00    +0.015 A 
ATOM     14  C   UNL     1      10.157  10.581  -0.043  0.00  0.00    +0.019 A 
ATOM     15  C   UNL     1       9.566   9.333  -0.041  0.00  0.00    +0.028 A 
ATOM     16 BR   UNL     1      12.042  10.732  -0.074  0.00  0.00    -0.050 Br
ENDBRANCH   7  10
BRANCH   1  18
ATOM     17  C   UNL     1       3.653   2.156  -0.022  0.00  0.00    +0.013 C 
ATOM     18  C   UNL     1       3.639   3.504  -0.015  0.00  0.00    +0.068 C 
BRANCH  17  21
ATOM     19  C   UNL     1      -0.017   1.380   0.010  0.00  0.00    +0.003 A 
ATOM     20  C   UNL     1       1.166   2.089   0.002  0.00  0.00    +0.008 A 
ATOM     21  C   UNL     1       2.386   1.406  -0.013  0.00  0.00    -0.023 A 
ATOM     22  C   UNL     1       2.397   0.008  -0.021  0.00  0.00    +0.040 A 
ATOM     23  C   UNL     1       1.206  -0.687  -0.013  0.00  0.00    +0.127 A 
ATOM     24  C   UNL     1       0.002  -0.004   0.002  0.00  0.00    +0.033 A 
BRANCH  23  25
ATOM     25  N   UNL     1       1.215  -2.167  -0.021  0.00  0.00    +0.056 N 
ATOM     26  O   UNL     1       2.265  -2.765  -0.035  0.00  0.00    -0.126 OA
ATOM     27  O   UNL     1       0.172  -2.778  -0.015  0.00  0.00    -0.126 OA
ENDBRANCH  23  25
ENDBRANCH  17  21
ENDBRANCH   1  18
TORSDOF 4
