REMARK  Name = ZINC59311513
REMARK  9 active torsions:
REMARK  status: ('A' for Active; 'I' for Inactive)
REMARK    1  A    between atoms: C_1  and  C_2
REMARK    2  A    between atoms: C_7  and  N_8
REMARK    3  A    between atoms: C_9  and  C_11
REMARK    4  A    between atoms: C_11  and  S_12
REMARK    5  A    between atoms: S_12  and  C_13
REMARK    6  A    between atoms: N_18  and  N_19
REMARK    7  A    between atoms: C_20  and  C_21
REMARK    8  A    between atoms: C_21  and  C_22
REMARK    9  A    between atoms: C_21  and  C_23
REMARK                            x       y       z     vdW  Elec       q    Type
REMARK                         _______ _______ _______ _____ _____    ______ ____
ROOT
ATOM      1  S   UNL     1      -0.258  -1.132   6.253  0.00  0.00    -0.075 S 
ENDROOT
BRANCH   1   2
ATOM      2  C   UNL     1      -0.382  -0.116   7.687  0.00  0.00    +0.211 A 
ATOM      3  N   UNL     1      -0.469  -0.557   8.947  0.00  0.00    -0.186 NA
ATOM      4  C   UNL     1      -0.547   0.466   9.770  0.00  0.00    +0.232 A 
ATOM      5  N   UNL     1      -0.511   1.597   9.034  0.00  0.00    -0.245 N 
ATOM      6  N   UNL     1      -0.399   1.196   7.693  0.00  0.00    -0.144 NA
ATOM      7  N   UNL     1      -0.649   0.396  11.148  0.00  0.00    -0.206 N 
ATOM      8  H   UNL     1      -0.702   1.210  11.673  0.00  0.00    +0.177 HD
ATOM      9  H   UNL     1      -0.550   2.508   9.366  0.00  0.00    +0.192 HD
BRANCH   7  10
ATOM     10  N   UNL     1      -0.677  -0.852  11.785  0.00  0.00    -0.192 NA
ATOM     11  C   UNL     1      -0.772  -0.917  13.060  0.00  0.00    +0.106 C 
BRANCH  11  12
ATOM     12  C   UNL     1      -0.801  -2.259  13.746  0.00  0.00    +0.026 C 
ATOM     13  C   UNL     1       0.381  -2.364  14.712  0.00  0.00    +0.013 C 
ATOM     14  C   UNL     1      -2.110  -2.405  14.524  0.00  0.00    +0.013 C 
ENDBRANCH  11  12
ENDBRANCH   7  10
ENDBRANCH   1   2
BRANCH   1  15
ATOM     15  C   UNL     1      -0.167   0.054   4.882  0.00  0.00    +0.173 C 
BRANCH  15  17
ATOM     16  N   UNL     1       0.026  -0.014   2.417  0.00  0.00    -0.285 N 
ATOM     17  C   UNL     1      -0.056  -0.694   3.578  0.00  0.00    +0.227 C 
ATOM     18  O   UNL     1      -0.040  -1.906   3.574  0.00  0.00    -0.275 OA
ATOM     19  H   UNL     1       0.079   0.955   2.425  0.00  0.00    +0.155 HD
BRANCH  16  26
ATOM     20  C   UNL     1      -1.265   1.183   0.182  0.00  0.00    +0.046 C 
ATOM     21  C   UNL     1      -0.584  -0.158   0.085  0.00  0.00    -0.028 A 
ATOM     22  C   UNL     1      -0.570  -0.840  -1.116  0.00  0.00    +0.020 A 
ATOM     23  C   UNL     1       0.055  -2.071  -1.206  0.00  0.00    +0.018 A 
ATOM     24  C   UNL     1       0.666  -2.623  -0.094  0.00  0.00    +0.017 A 
ATOM     25  C   UNL     1       0.655  -1.945   1.109  0.00  0.00    +0.024 A 
ATOM     26  C   UNL     1       0.034  -0.706   1.201  0.00  0.00    +0.036 A 
ATOM     27 BR   UNL     1       0.072  -3.002  -2.852  0.00  0.00    -0.050 Br
ENDBRANCH  16  26
ENDBRANCH  15  17
ENDBRANCH   1  15
TORSDOF 6
