REMARK  Name = ZINC20569817
REMARK  8 active torsions:
REMARK  status: ('A' for Active; 'I' for Inactive)
REMARK    1  A    between atoms: C_1  and  O_2
REMARK    2  A    between atoms: O_2  and  C_3
REMARK    3  A    between atoms: C_6  and  C_8
REMARK    4  A    between atoms: C_12  and  N_13
REMARK    5  A    between atoms: C_14  and  C_16
REMARK    6  A    between atoms: C_21  and  N_22
REMARK    7  A    between atoms: N_22  and  S_23
REMARK    8  A    between atoms: S_23  and  C_26
REMARK                            x       y       z     vdW  Elec       q    Type
REMARK                         _______ _______ _______ _____ _____    ______ ____
ROOT
ATOM      1  C   UNL     1      -1.145   1.819  -0.251  0.00  0.00    +0.059 A 
ATOM      2  C   UNL     1      -1.063   3.205  -0.412  0.00  0.00    +0.015 A 
ATOM      3  C   UNL     1      -2.215   3.959  -0.469  0.00  0.00    +0.001 A 
ATOM      4  C   UNL     1      -3.456   3.351  -0.367  0.00  0.00    +0.002 A 
ATOM      5  C   UNL     1      -3.554   1.984  -0.208  0.00  0.00    +0.025 A 
ATOM      6  C   UNL     1      -2.404   1.206  -0.154  0.00  0.00    +0.060 A 
ENDROOT
BRANCH   1   8
ATOM      7  N   UNL     1       1.289   1.598  -0.294  0.00  0.00    -0.275 N 
ATOM      8  C   UNL     1       0.083   1.006  -0.189  0.00  0.00    +0.250 C 
ATOM      9  O   UNL     1       0.007  -0.200  -0.048  0.00  0.00    -0.270 OA
ATOM     10  H   UNL     1       1.357   2.688  -0.421  0.00  0.00    +0.156 HD
BRANCH   7  15
ATOM     11  C   UNL     1       3.764   1.256  -0.336  0.00  0.00    +0.066 A 
ATOM     12  C   UNL     1       4.780   0.233  -0.245  0.00  0.00    +0.022 A 
ATOM     13  C   UNL     1       4.362  -1.035  -0.087  0.00  0.00    +0.048 A 
ATOM     14  S   UNL     1       2.588  -0.882  -0.050  0.00  0.00    -0.081 S 
ATOM     15  C   UNL     1       2.442   0.833  -0.241  0.00  0.00    +0.084 A 
BRANCH  11  19
ATOM     16  C   UNL     1       5.719   4.339  -0.769  0.00  0.00    +0.407 C 
ATOM     17  O   UNL     1       4.840   5.175  -0.839  0.00  0.00    -0.226 OA
ATOM     18  N   UNL     1       5.402   3.040  -0.604  0.00  0.00    -0.217 N 
ATOM     19  C   UNL     1       4.109   2.668  -0.516  0.00  0.00    +0.255 C 
ATOM     20  O   UNL     1       3.229   3.505  -0.586  0.00  0.00    -0.270 OA
ATOM     21  H   UNL     1       6.197   2.283  -0.540  0.00  0.00    +0.161 HD
BRANCH  16  23
ATOM     22  C   UNL     1       7.277   6.127  -1.034  0.00  0.00    +0.282 C 
ATOM     23  O   UNL     1       7.010   4.711  -0.856  0.00  0.00    -0.453 OA
ENDBRANCH  16  23
ENDBRANCH  11  19
ENDBRANCH   7  15
ENDBRANCH   1   8
BRANCH   6  24
ATOM     24  N   UNL     1      -2.500  -0.171   0.001  0.00  0.00    -0.216 N 
ATOM     25  H   UNL     1      -1.751  -0.711   0.600  0.00  0.00    +0.174 HD
BRANCH  24  26
ATOM     26  S   UNL     1      -3.741  -1.000  -0.716  0.00  0.00    +0.072 S 
ATOM     27  O   UNL     1      -3.492  -2.381  -0.488  0.00  0.00    -0.150 OA
ATOM     28  O   UNL     1      -4.944  -0.365  -0.306  0.00  0.00    -0.150 OA
BRANCH  26  29
ATOM     29  C   UNL     1      -3.603  -0.744  -2.454  0.00  0.00    +0.109 A 
ATOM     30  C   UNL     1      -4.252   0.322  -3.048  0.00  0.00    +0.031 A 
ATOM     31  C   UNL     1      -4.141   0.527  -4.411  0.00  0.00    +0.040 A 
ATOM     32  C   UNL     1      -3.388  -0.342  -5.182  0.00  0.00    +0.124 A 
ATOM     33  C   UNL     1      -2.743  -1.413  -4.586  0.00  0.00    +0.040 A 
ATOM     34  C   UNL     1      -2.851  -1.613  -3.223  0.00  0.00    +0.031 A 
ATOM     35  F   UNL     1      -3.283  -0.145  -6.514  0.00  0.00    -0.205 F 
ENDBRANCH  26  29
ENDBRANCH  24  26
ENDBRANCH   6  24
TORSDOF 7
