REMARK  Name = ZINC28758430
REMARK  10 active torsions:
REMARK  status: ('A' for Active; 'I' for Inactive)
REMARK    1  A    between atoms: C_1  and  C_2
REMARK    2  A    between atoms: C_6  and  N_9
REMARK    3  A    between atoms: C_7  and  C_8
REMARK    4  A    between atoms: N_9  and  C_10
REMARK    5  A    between atoms: C_10  and  C_12
REMARK    6  A    between atoms: C_10  and  C_13
REMARK    7  A    between atoms: N_15  and  C_16
REMARK    8  A    between atoms: C_17  and  C_29
REMARK    9  A    between atoms: N_18  and  C_28
REMARK   10  A    between atoms: N_19  and  C_22
REMARK                            x       y       z     vdW  Elec       q    Type
REMARK                         _______ _______ _______ _____ _____    ______ ____
ROOT
ATOM      1  C   UNL     1       0.381  -4.718   3.919  0.00  0.00    +0.237 C 
ATOM      2  O   UNL     1       0.602  -4.006   4.876  0.00  0.00    -0.273 OA
ATOM      3  N   UNL     1       0.727  -6.020   3.954  0.00  0.00    -0.278 N 
ATOM      4  H   UNL     1       0.484  -6.606   3.219  0.00  0.00    +0.155 HD
ENDROOT
BRANCH   3   5
ATOM      5  C   UNL     1       1.440  -6.531   5.056  0.00  0.00    +0.121 A 
ATOM      6  C   UNL     1       1.054  -7.547   5.860  0.00  0.00    +0.059 A 
ATOM      7  N   UNL     1       2.018  -7.741   6.813  0.00  0.00    -0.282 N 
ATOM      8  N   UNL     1       3.053  -6.820   6.614  0.00  0.00    -0.216 N 
ATOM      9  C   UNL     1       2.739  -6.064   5.542  0.00  0.00    +0.293 A 
ATOM     10  O   UNL     1       3.408  -5.162   5.070  0.00  0.00    -0.264 OA
ATOM     11  C   UNL     1       1.973  -8.752   7.873  0.00  0.00    +0.171 C 
ATOM     12  C   UNL     1      -0.224  -8.335   5.729  0.00  0.00    +0.067 C 
BRANCH   8  13
ATOM     13  C   UNL     1       4.212  -6.707   7.387  0.00  0.00    +0.067 A 
ATOM     14  C   UNL     1       4.607  -5.468   7.874  0.00  0.00    +0.028 A 
ATOM     15  C   UNL     1       5.753  -5.360   8.637  0.00  0.00    +0.002 A 
ATOM     16  C   UNL     1       6.507  -6.484   8.917  0.00  0.00    +0.000 A 
ATOM     17  C   UNL     1       6.117  -7.720   8.434  0.00  0.00    +0.002 A 
ATOM     18  C   UNL     1       4.969  -7.836   7.675  0.00  0.00    +0.028 A 
ENDBRANCH   8  13
ENDBRANCH   3   5
BRANCH   1  19
ATOM     19  C   UNL     1      -0.281  -4.147   2.692  0.00  0.00    +0.154 C 
ATOM     20  C   UNL     1      -1.595  -4.885   2.430  0.00  0.00    +0.038 C 
BRANCH  19  21
ATOM     21  N   UNL     1      -0.555  -2.723   2.902  0.00  0.00    -0.333 N 
ATOM     22  H   UNL     1      -0.659  -2.377   3.803  0.00  0.00    +0.147 HD
BRANCH  21  28
ATOM     23  C   UNL     1      -1.314   1.799   1.134  0.00  0.00    +0.044 C 
ATOM     24  C   UNL     1      -1.032   0.334   0.920  0.00  0.00    -0.046 A 
ATOM     25  C   UNL     1      -0.882  -0.160  -0.363  0.00  0.00    +0.004 A 
ATOM     26  C   UNL     1      -0.624  -1.503  -0.563  0.00  0.00    +0.002 A 
ATOM     27  C   UNL     1      -0.515  -2.356   0.517  0.00  0.00    +0.023 A 
ATOM     28  C   UNL     1      -0.664  -1.863   1.807  0.00  0.00    +0.031 A 
ATOM     29  C   UNL     1      -0.919  -0.512   2.006  0.00  0.00    -0.027 A 
ATOM     30  C   UNL     1      -1.076   0.029   3.403  0.00  0.00    +0.046 C 
ENDBRANCH  21  28
ENDBRANCH  19  21
ENDBRANCH   1  19
TORSDOF 5
