REMARK  Name = ZINC13862607
REMARK  14 active torsions:
REMARK  status: ('A' for Active; 'I' for Inactive)
REMARK    1  A    between atoms: C_1  and  C_2
REMARK    2  A    between atoms: C_2  and  C_4
REMARK    3  A    between atoms: C_2  and  N_17
REMARK    4  A    between atoms: C_4  and  C_6
REMARK    5  A    between atoms: C_6  and  N_7
REMARK    6  A    between atoms: N_7  and  S_8
REMARK    7  A    between atoms: S_8  and  C_11
REMARK    8  A    between atoms: C_18  and  C_20
REMARK    9  A    between atoms: C_20  and  C_22
REMARK   10  A    between atoms: C_20  and  N_26
REMARK   11  A    between atoms: C_22  and  C_23
REMARK   12  A    between atoms: C_23  and  C_24
REMARK   13  A    between atoms: C_23  and  C_25
REMARK   14  A    between atoms: C_27  and  C_29
REMARK                            x       y       z     vdW  Elec       q    Type
REMARK                         _______ _______ _______ _____ _____    ______ ____
ROOT
ATOM      1  N   UNL     1      -1.372  -0.511   0.012  0.00  0.00    -0.304 N 
ATOM      2  C   UNL     1      -2.051  -0.643  -1.145  0.00  0.00    +0.234 C 
ATOM      3  O   UNL     1      -1.524  -0.341  -2.194  0.00  0.00    -0.274 OA
ATOM      4  H   UNL     1      -1.794  -0.752   0.852  0.00  0.00    +0.149 HD
ENDROOT
BRANCH   1   6
ATOM      5  C   UNL     1      -0.019   1.526   0.010  0.00  0.00    +0.036 C 
ATOM      6  C   UNL     1       0.002  -0.004   0.002  0.00  0.00    +0.134 C 
BRANCH   6   7
ATOM      7  C   UNL     1       0.731  -0.503   1.223  0.00  0.00    +0.131 C 
ATOM      8  O   UNL     1       0.111  -0.973   2.146  0.00  0.00    -0.298 OA
BRANCH   7   9
ATOM      9  C   UNL     1       2.234  -0.416   1.292  0.00  0.00    -0.039 C 
BRANCH   9  10
ATOM     10  N   UNL     1       2.697  -0.962   2.570  0.00  0.00    +0.475 NA
BRANCH  10  11
ATOM     11  S   UNL     1       4.315  -0.994   2.919  0.00  0.00    -0.044 S 
ATOM     12  O   UNL     1       4.911  -1.901   2.001  0.00  0.00    -0.190 OA
ATOM     13  O   UNL     1       4.733   0.360   3.032  0.00  0.00    -0.190 OA
BRANCH  11  14
ATOM     14  C   UNL     1       4.489  -1.710   4.519  0.00  0.00    +0.132 A 
ATOM     15  C   UNL     1       4.465  -0.898   5.637  0.00  0.00    +0.043 A 
ATOM     16  C   UNL     1       4.603  -1.471   6.892  0.00  0.00    +0.005 A 
ATOM     17  C   UNL     1       4.760  -2.846   6.975  0.00  0.00    +0.018 A 
ATOM     18  C   UNL     1       4.775  -3.594   5.814  0.00  0.00    +0.084 A 
ATOM     19  N   UNL     1       4.636  -3.015   4.637  0.00  0.00    -0.349 N 
ATOM     20  H   UNL     1       4.645  -3.563   3.837  0.00  0.00    +0.166 HD
ENDBRANCH  11  14
ENDBRANCH  10  11
ENDBRANCH   9  10
ENDBRANCH   7   9
ENDBRANCH   6   7
ENDBRANCH   1   6
BRANCH   2  21
ATOM     21  C   UNL     1      -3.465  -1.164  -1.134  0.00  0.00    +0.159 C 
BRANCH  21  22
ATOM     22  N   UNL     1      -3.978  -1.213  -2.505  0.00  0.00    -0.298 N 
ATOM     23  C   UNL     1      -5.305  -1.151  -2.731  0.00  0.00    +0.280 C 
ATOM     24  O   UNL     1      -6.077  -1.054  -1.796  0.00  0.00    -0.267 OA
ATOM     25  H   UNL     1      -3.362  -1.290  -3.251  0.00  0.00    +0.150 HD
BRANCH  23  26
ATOM     26  C   UNL     1      -5.819  -1.199  -4.107  0.00  0.00    +0.190 A 
ATOM     27  C   UNL     1      -7.131  -1.139  -4.453  0.00  0.00    +0.063 A 
ATOM     28  C   UNL     1      -7.169  -1.222  -5.913  0.00  0.00    +0.021 A 
ATOM     29  C   UNL     1      -8.194  -1.215  -6.862  0.00  0.00    +0.011 A 
ATOM     30  C   UNL     1      -7.887  -1.311  -8.190  0.00  0.00    +0.001 A 
ATOM     31  C   UNL     1      -6.565  -1.417  -8.601  0.00  0.00    +0.004 A 
ATOM     32  C   UNL     1      -5.540  -1.426  -7.680  0.00  0.00    +0.047 A 
ATOM     33  C   UNL     1      -5.827  -1.329  -6.324  0.00  0.00    +0.136 A 
ATOM     34  O   UNL     1      -5.059  -1.305  -5.217  0.00  0.00    -0.450 OA
ENDBRANCH  23  26
ENDBRANCH  21  22
BRANCH  21  35
ATOM     35  C   UNL     1      -3.485  -2.571  -0.532  0.00  0.00    +0.034 C 
BRANCH  35  36
ATOM     36  C   UNL     1      -4.932  -3.051  -0.406  0.00  0.00    -0.015 C 
ATOM     37  C   UNL     1      -4.948  -4.502   0.079  0.00  0.00    +0.007 C 
ATOM     38  C   UNL     1      -5.676  -2.169   0.599  0.00  0.00    +0.007 C 
ENDBRANCH  35  36
ENDBRANCH  21  35
ENDBRANCH   2  21
TORSDOF 11
