REMARK  Name = ZINC19891851
REMARK  12 active torsions:
REMARK  status: ('A' for Active; 'I' for Inactive)
REMARK    1  A    between atoms: C_1  and  C_2
REMARK    2  A    between atoms: C_2  and  C_4
REMARK    3  A    between atoms: C_2  and  N_26
REMARK    4  A    between atoms: C_10  and  C_12
REMARK    5  A    between atoms: N_14  and  C_15
REMARK    6  A    between atoms: C_15  and  C_16
REMARK    7  A    between atoms: C_16  and  O_18
REMARK    8  A    between atoms: O_18  and  C_19
REMARK    9  A    between atoms: C_19  and  C_20
REMARK   10  A    between atoms: C_27  and  O_29
REMARK   11  A    between atoms: O_29  and  C_30
REMARK   12  A    between atoms: C_30  and  C_31
REMARK                            x       y       z     vdW  Elec       q    Type
REMARK                         _______ _______ _______ _____ _____    ______ ____
ROOT
ATOM      1  C   UNL     1      -1.361   1.276  -5.836  0.00  0.00    +0.236 C 
ATOM      2  O   UNL     1      -2.490   1.580  -5.515  0.00  0.00    -0.274 OA
ATOM      3  N   UNL     1      -1.087   0.960  -7.117  0.00  0.00    -0.288 N 
ATOM      4  C   UNL     1       0.237   0.581  -7.644  0.00  0.00    +0.109 C 
ATOM      5  C   UNL     1      -0.069  -0.254  -8.915  0.00  0.00    +0.021 C 
ATOM      6  C   UNL     1      -1.298   0.499  -9.490  0.00  0.00    +0.033 C 
ATOM      7  C   UNL     1      -2.056   0.943  -8.222  0.00  0.00    +0.162 C 
ENDROOT
BRANCH   7   8
ATOM      8  C   UNL     1      -2.629   2.322  -8.423  0.00  0.00    +0.234 C 
ATOM      9  O   UNL     1      -2.267   3.238  -7.715  0.00  0.00    -0.274 OA
ATOM     10  N   UNL     1      -3.544   2.538  -9.389  0.00  0.00    -0.303 N 
ATOM     11  H   UNL     1      -3.872   1.707 -10.031  0.00  0.00    +0.149 HD
BRANCH  10  12
ATOM     12  C   UNL     1      -4.100   3.878  -9.585  0.00  0.00    +0.225 C 
BRANCH  12  13
ATOM     13  C   UNL     1      -5.093   3.850 -10.719  0.00  0.00    +0.325 C 
ATOM     14  O   UNL     1      -5.312   2.816 -11.303  0.00  0.00    -0.249 OA
BRANCH  13  15
ATOM     15  O   UNL     1      -5.733   4.973 -11.079  0.00  0.00    -0.459 OA
BRANCH  15  16
ATOM     16  C   UNL     1      -6.675   4.872 -12.180  0.00  0.00    +0.267 C 
BRANCH  16  17
ATOM     17  C   UNL     1      -7.291   6.222 -12.440  0.00  0.00    -0.010 A 
ATOM     18  C   UNL     1      -8.454   6.588 -11.789  0.00  0.00    +0.007 A 
ATOM     19  C   UNL     1      -9.017   7.828 -12.023  0.00  0.00    +0.000 A 
ATOM     20  C   UNL     1      -8.422   8.699 -12.917  0.00  0.00    +0.000 A 
ATOM     21  C   UNL     1      -7.262   8.331 -13.572  0.00  0.00    +0.000 A 
ATOM     22  C   UNL     1      -6.696   7.093 -13.333  0.00  0.00    +0.007 A 
ENDBRANCH  16  17
ENDBRANCH  15  16
ENDBRANCH  13  15
ENDBRANCH  12  13
ENDBRANCH  10  12
ENDBRANCH   7   8
BRANCH   1  24
ATOM     23  C   UNL     1       0.833   2.242  -5.201  0.00  0.00    +0.038 C 
ATOM     24  C   UNL     1      -0.264   1.253  -4.803  0.00  0.00    +0.159 C 
BRANCH  24  25
ATOM     25  N   UNL     1      -0.814   1.632  -3.498  0.00  0.00    -0.270 N 
ATOM     26  C   UNL     1      -0.210   1.218  -2.367  0.00  0.00    +0.401 C 
ATOM     27  O   UNL     1       0.790   0.531  -2.428  0.00  0.00    -0.226 OA
ATOM     28  H   UNL     1      -1.719   2.254  -3.443  0.00  0.00    +0.153 HD
BRANCH  26  29
ATOM     29  O   UNL     1      -0.715   1.567  -1.168  0.00  0.00    -0.446 OA
BRANCH  29  30
ATOM     30  C   UNL     1      -0.013   1.086   0.008  0.00  0.00    +0.269 C 
BRANCH  30  31
ATOM     31  C   UNL     1      -0.718   1.572   1.248  0.00  0.00    -0.010 A 
ATOM     32  C   UNL     1      -0.360   2.779   1.819  0.00  0.00    +0.007 A 
ATOM     33  C   UNL     1      -1.010   3.227   2.953  0.00  0.00    +0.000 A 
ATOM     34  C   UNL     1      -2.012   2.463   3.523  0.00  0.00    +0.000 A 
ATOM     35  C   UNL     1      -2.366   1.254   2.955  0.00  0.00    +0.000 A 
ATOM     36  C   UNL     1      -1.719   0.808   1.818  0.00  0.00    +0.007 A 
ENDBRANCH  30  31
ENDBRANCH  29  30
ENDBRANCH  26  29
ENDBRANCH  24  25
ENDBRANCH   1  24
TORSDOF 11
