REMARK  Name = ZINC25540207
REMARK  14 active torsions:
REMARK  status: ('A' for Active; 'I' for Inactive)
REMARK    1  A    between atoms: C_1  and  N_2
REMARK    2  A    between atoms: N_7  and  C_10
REMARK    3  A    between atoms: N_11  and  C_25
REMARK    4  A    between atoms: N_14  and  N_15
REMARK    5  A    between atoms: C_16  and  C_17
REMARK    6  A    between atoms: C_20  and  O_23
REMARK    7  A    between atoms: O_23  and  C_24
REMARK    8  A    between atoms: C_25  and  C_26
REMARK    9  A    between atoms: C_26  and  C_28
REMARK   10  A    between atoms: C_26  and  O_38
REMARK   11  A    between atoms: C_28  and  O_29
REMARK   12  A    between atoms: O_29  and  C_30
REMARK   13  A    between atoms: C_33  and  O_36
REMARK   14  A    between atoms: O_36  and  C_37
REMARK                            x       y       z     vdW  Elec       q    Type
REMARK                         _______ _______ _______ _____ _____    ______ ____
ROOT
ATOM      1  C   UNL     1      -3.435   2.156   4.970  0.00  0.00    +0.155 C 
ATOM      2  N   UNL     1      -3.058   1.314   3.831  0.00  0.00    -0.280 N 
ATOM      3  C   UNL     1      -2.054   1.726   2.969  0.00  0.00    +0.170 A 
ATOM      4  C   UNL     1      -1.716   0.907   1.896  0.00  0.00    +0.153 A 
ATOM      5  C   UNL     1      -2.400  -0.308   1.717  0.00  0.00    +0.282 A 
ATOM      6  O   UNL     1      -2.121  -1.041   0.784  0.00  0.00    -0.265 OA
ATOM      7  N   UNL     1      -3.369  -0.655   2.590  0.00  0.00    -0.262 N 
ATOM      8  C   UNL     1      -3.688   0.143   3.623  0.00  0.00    +0.333 A 
ATOM      9  O   UNL     1      -4.567  -0.202   4.390  0.00  0.00    -0.246 OA
ATOM     10  C   UNL     1      -4.084  -1.921   2.408  0.00  0.00    +0.157 C 
ATOM     11  N   UNL     1      -0.698   1.558   1.213  0.00  0.00    -0.302 N 
ATOM     12  C   UNL     1      -0.456   2.717   1.883  0.00  0.00    +0.218 A 
ATOM     13  N   UNL     1      -1.271   2.803   2.916  0.00  0.00    -0.195 NA
ATOM     14  N   UNL     1       0.489   3.655   1.536  0.00  0.00    -0.206 N 
ATOM     15  H   UNL     1       1.122   3.495   0.651  0.00  0.00    +0.177 HD
ENDROOT
BRANCH  14  16
ATOM     16  N   UNL     1       0.644   4.813   2.308  0.00  0.00    -0.188 NA
ATOM     17  C   UNL     1       1.536   5.697   1.980  0.00  0.00    +0.138 C 
BRANCH  17  18
ATOM     18  C   UNL     1       1.699   6.916   2.793  0.00  0.00    -0.005 A 
ATOM     19  C   UNL     1       0.892   7.124   3.914  0.00  0.00    +0.013 A 
ATOM     20  C   UNL     1       1.052   8.262   4.675  0.00  0.00    +0.046 A 
ATOM     21  C   UNL     1       2.007   9.207   4.322  0.00  0.00    +0.120 A 
ATOM     22  C   UNL     1       2.808   9.008   3.205  0.00  0.00    +0.046 A 
ATOM     23  C   UNL     1       2.659   7.870   2.442  0.00  0.00    +0.013 A 
BRANCH  21  24
ATOM     24  O   UNL     1       2.158  10.330   5.071  0.00  0.00    -0.495 OA
ATOM     25  C   UNL     1       1.301  10.473   6.206  0.00  0.00    +0.277 C 
ENDBRANCH  21  24
ENDBRANCH  17  18
ENDBRANCH  14  16
BRANCH  11  26
ATOM     26  C   UNL     1      -0.013   1.086   0.008  0.00  0.00    +0.160 C 
BRANCH  26  27
ATOM     27  C   UNL     1      -0.753   1.593  -1.232  0.00  0.00    +0.172 C 
BRANCH  27  28
ATOM     28  O   UNL     1      -2.054   1.005  -1.282  0.00  0.00    -0.387 OA
ATOM     29  H   UNL     1      -2.737   1.252  -2.108  0.00  0.00    +0.210 HD
ENDBRANCH  27  28
BRANCH  27  30
ATOM     30  C   UNL     1       0.031   1.205  -2.487  0.00  0.00    +0.262 C 
BRANCH  30  31
ATOM     31  O   UNL     1      -0.597   1.778  -3.636  0.00  0.00    -0.489 OA
BRANCH  31  32
ATOM     32  C   UNL     1      -0.022   1.528  -4.843  0.00  0.00    +0.121 A 
ATOM     33  C   UNL     1       1.126   0.753  -4.917  0.00  0.00    +0.049 A 
ATOM     34  C   UNL     1       1.708   0.496  -6.143  0.00  0.00    +0.049 A 
ATOM     35  C   UNL     1       1.149   1.020  -7.299  0.00  0.00    +0.120 A 
ATOM     36  C   UNL     1       0.004   1.799  -7.225  0.00  0.00    +0.049 A 
ATOM     37  C   UNL     1      -0.580   2.053  -5.999  0.00  0.00    +0.049 A 
BRANCH  35  38
ATOM     38  O   UNL     1       1.724   0.771  -8.506  0.00  0.00    -0.495 OA
ATOM     39  C   UNL     1       2.902  -0.039  -8.508  0.00  0.00    +0.277 C 
ENDBRANCH  35  38
ENDBRANCH  31  32
ENDBRANCH  30  31
ENDBRANCH  27  30
ENDBRANCH  26  27
ENDBRANCH  11  26
TORSDOF 10
