REMARK  Name = ZINC13191759
REMARK  12 active torsions:
REMARK  status: ('A' for Active; 'I' for Inactive)
REMARK    1  A    between atoms: C_1  and  C_2
REMARK    2  A    between atoms: C_2  and  C_3
REMARK    3  A    between atoms: C_2  and  C_4
REMARK    4  A    between atoms: C_2  and  C_5
REMARK    5  A    between atoms: C_8  and  C_11
REMARK    6  A    between atoms: C_11  and  N_12
REMARK    7  A    between atoms: N_12  and  C_13
REMARK    8  A    between atoms: N_12  and  C_14
REMARK    9  A    between atoms: C_17  and  S_23
REMARK   10  A    between atoms: C_19  and  N_20
REMARK   11  A    between atoms: S_23  and  N_26
REMARK   12  A    between atoms: C_29  and  C_32
REMARK                            x       y       z     vdW  Elec       q    Type
REMARK                         _______ _______ _______ _____ _____    ______ ____
ROOT
ATOM      1  C   UNL     1       1.196  -5.702   0.672  0.00  0.00    +0.060 A 
ATOM      2  C   UNL     1       0.004  -5.087   0.311  0.00  0.00    +0.027 A 
ATOM      3  C   UNL     1      -0.293  -3.826   0.788  0.00  0.00    +0.030 A 
ATOM      4  C   UNL     1       0.600  -3.170   1.617  0.00  0.00    +0.108 A 
ATOM      5  C   UNL     1       1.787  -3.779   1.978  0.00  0.00    +0.063 A 
ATOM      6  C   UNL     1       2.088  -5.043   1.508  0.00  0.00    +0.149 A 
ENDROOT
BRANCH   6   7
ATOM      7  N   UNL     1       3.360  -5.694   1.896  0.00  0.00    +0.058 N 
ATOM      8  O   UNL     1       4.141  -5.115   2.630  0.00  0.00    -0.126 OA
ATOM      9  O   UNL     1       3.624  -6.808   1.481  0.00  0.00    -0.126 OA
ENDBRANCH   6   7
BRANCH   4  10
ATOM     10  S   UNL     1       0.219  -1.559   2.219  0.00  0.00    +0.061 S 
ATOM     11  O   UNL     1       0.963  -1.387   3.417  0.00  0.00    -0.153 OA
ATOM     12  O   UNL     1      -1.196  -1.433   2.176  0.00  0.00    -0.153 OA
BRANCH  10  13
ATOM     13  N   UNL     1       0.824  -0.472   1.126  0.00  0.00    -0.177 NA
ATOM     14  C   UNL     1       0.002  -0.004   0.002  0.00  0.00    +0.110 C 
ATOM     15  C   UNL     1      -0.019   1.528   0.010  0.00  0.00    +0.032 C 
ATOM     16  C   UNL     1       1.419   2.053  -0.001  0.00  0.00    +0.105 C 
ATOM     17  C   UNL     1       2.149   1.573   1.256  0.00  0.00    +0.032 C 
ATOM     18  C   UNL     1       2.194   0.042   1.262  0.00  0.00    +0.110 C 
BRANCH  16  19
ATOM     19  C   UNL     1       1.402   3.560  -0.027  0.00  0.00    +0.359 C 
ATOM     20  O   UNL     1       0.349   4.152  -0.035  0.00  0.00    -0.246 OA
ATOM     21  O   UNL     1       2.557   4.244  -0.040  0.00  0.00    -0.246 OA
ENDBRANCH  16  19
ENDBRANCH  10  13
ENDBRANCH   4  10
BRANCH   1  22
ATOM     22  N   UNL     1       1.498  -6.979   0.195  0.00  0.00    -0.327 N 
ATOM     23  C   UNL     1       0.535  -7.969   0.698  0.00  0.00    +0.129 C 
BRANCH  22  24
ATOM     24  C   UNL     1       1.551  -6.995  -1.273  0.00  0.00    +0.140 C 
BRANCH  24  28
ATOM     25  C   UNL     1       3.145 -10.728  -2.602  0.00  0.00    -0.042 A 
ATOM     26  C   UNL     1       1.782 -10.584  -2.421  0.00  0.00    +0.004 A 
ATOM     27  C   UNL     1       1.266  -9.375  -1.992  0.00  0.00    +0.005 A 
ATOM     28  C   UNL     1       2.113  -8.312  -1.741  0.00  0.00    -0.030 A 
ATOM     29  C   UNL     1       3.476  -8.455  -1.927  0.00  0.00    +0.005 A 
ATOM     30  C   UNL     1       3.992  -9.664  -2.352  0.00  0.00    +0.004 A 
BRANCH  25  32
ATOM     31  C   UNL     1       3.115 -12.396  -4.436  0.00  0.00    +0.015 C 
ATOM     32  C   UNL     1       3.708 -12.045  -3.070  0.00  0.00    -0.013 C 
ATOM     33  C   UNL     1       5.230 -11.937  -3.188  0.00  0.00    +0.015 C 
ATOM     34  C   UNL     1       3.350 -13.140  -2.063  0.00  0.00    +0.015 C 
ENDBRANCH  25  32
ENDBRANCH  24  28
ENDBRANCH  22  24
ENDBRANCH   1  22
TORSDOF 8
