REMARK  Name = ZINC40387911
REMARK  6 active torsions:
REMARK  status: ('A' for Active; 'I' for Inactive)
REMARK    1  A    between atoms: C_1  and  C_2
REMARK    2  A    between atoms: C_2  and  C_3
REMARK    3  A    between atoms: C_4  and  C_25
REMARK    4  A    between atoms: N_14  and  C_17
REMARK    5  A    between atoms: C_17  and  C_18
REMARK    6  A    between atoms: C_18  and  C_19
REMARK                            x       y       z     vdW  Elec       q    Type
REMARK                         _______ _______ _______ _____ _____    ______ ____
ROOT
ATOM      1  C   UNL     1       0.707  -0.490  -1.238  0.00  0.00    +0.073 A 
ATOM      2  C   UNL     1       0.098  -0.758  -2.471  0.00  0.00    +0.049 A 
ATOM      3  C   UNL     1       1.101  -1.185  -3.347  0.00  0.00    +0.164 A 
ATOM      4  N   UNL     1       1.067  -1.563  -4.632  0.00  0.00    -0.235 NA
ATOM      5  C   UNL     1       2.149  -1.934  -5.276  0.00  0.00    +0.128 A 
ATOM      6  C   UNL     1       3.388  -1.938  -4.608  0.00  0.00    +0.083 A 
ATOM      7  C   UNL     1       3.441  -1.543  -3.260  0.00  0.00    +0.083 A 
ATOM      8  N   UNL     1       2.276  -1.166  -2.638  0.00  0.00    -0.213 N 
ATOM      9  N   UNL     1       1.991  -0.726  -1.341  0.00  0.00    -0.169 NA
ATOM     10  C   UNL     1       4.678  -1.548  -2.598  0.00  0.00    +0.046 A 
ATOM     11  C   UNL     1       5.796  -1.927  -3.255  0.00  0.00    +0.091 A 
ATOM     12  N   UNL     1       5.778  -2.314  -4.558  0.00  0.00    -0.314 N 
ATOM     13  C   UNL     1       4.629  -2.339  -5.268  0.00  0.00    +0.262 A 
ATOM     14  O   UNL     1       4.628  -2.688  -6.435  0.00  0.00    -0.267 OA
ENDROOT
BRANCH   2  15
ATOM     15  C   UNL     1      -1.342  -0.616  -2.788  0.00  0.00    -0.013 A 
ATOM     16  C   UNL     1      -2.283  -1.423  -2.147  0.00  0.00    +0.009 A 
ATOM     17  C   UNL     1      -3.623  -1.286  -2.446  0.00  0.00    +0.001 A 
ATOM     18  C   UNL     1      -4.034  -0.351  -3.379  0.00  0.00    +0.000 A 
ATOM     19  C   UNL     1      -3.106   0.452  -4.018  0.00  0.00    +0.001 A 
ATOM     20  C   UNL     1      -1.764   0.329  -3.723  0.00  0.00    +0.009 A 
ENDBRANCH   2  15
BRANCH   1  22
ATOM     21  C   UNL     1      -0.019   1.526   0.010  0.00  0.00    +0.010 C 
ATOM     22  C   UNL     1       0.002  -0.004   0.002  0.00  0.00    +0.054 C 
ENDBRANCH   1  22
BRANCH  12  23
ATOM     23  C   UNL     1       7.030  -2.712  -5.205  0.00  0.00    +0.131 C 
BRANCH  23  24
ATOM     24  C   UNL     1       7.244  -4.215  -5.023  0.00  0.00    +0.076 C 
BRANCH  24  25
ATOM     25  C   UNL     1       8.532  -4.625  -5.689  0.00  0.00    +0.035 A 
ATOM     26  C   UNL     1       8.701  -4.935  -6.988  0.00  0.00    +0.105 A 
ATOM     27  N   UNL     1       9.992  -5.243  -7.177  0.00  0.00    -0.352 N 
ATOM     28  C   UNL     1      10.630  -5.136  -6.044  0.00  0.00    +0.171 A 
ATOM     29  N   UNL     1       9.757  -4.747  -5.090  0.00  0.00    -0.350 N 
ATOM     30  H   UNL     1       9.960  -4.585  -4.155  0.00  0.00    +0.166 HD
ATOM     31  H   UNL     1      10.389  -5.505  -8.022  0.00  0.00    +0.166 HD
ENDBRANCH  24  25
ENDBRANCH  23  24
ENDBRANCH  12  23
TORSDOF 5
