REMARK  Name = ZINC10134755
REMARK  13 active torsions:
REMARK  status: ('A' for Active; 'I' for Inactive)
REMARK    1  A    between atoms: C_1  and  C_2
REMARK    2  A    between atoms: C_2  and  C_3
REMARK    3  A    between atoms: N_11  and  C_15
REMARK    4  A    between atoms: C_15  and  C_16
REMARK    5  A    between atoms: C_16  and  O_18
REMARK    6  A    between atoms: O_18  and  C_19
REMARK    7  A    between atoms: C_19  and  C_20
REMARK    8  A    between atoms: C_20  and  C_22
REMARK    9  A    between atoms: C_23  and  C_33
REMARK   10  A    between atoms: C_24  and  C_29
REMARK   11  A    between atoms: C_25  and  C_28
REMARK   12  A    between atoms: C_29  and  O_31
REMARK   13  A    between atoms: O_31  and  C_32
REMARK                            x       y       z     vdW  Elec       q    Type
REMARK                         _______ _______ _______ _____ _____    ______ ____
ROOT
ATOM      1  C   UNL     1      -1.624  -1.124  -1.409  0.00  0.00    +0.326 C 
ATOM      2  O   UNL     1      -0.990  -0.669  -2.331  0.00  0.00    -0.249 OA
ENDROOT
BRANCH   1   3
ATOM      3  C   UNL     1      -1.198  -0.844   0.009  0.00  0.00    +0.238 C 
BRANCH   3  12
ATOM      4  C   UNL     1       1.282   4.683   0.015  0.00  0.00    -0.011 C 
ATOM      5  C   UNL     1       0.926   3.877  -1.236  0.00  0.00    +0.006 C 
ATOM      6  C   UNL     1       1.741   2.581  -1.255  0.00  0.00    +0.035 C 
ATOM      7  C   UNL     1       1.435   1.768  -0.002  0.00  0.00    +0.113 C 
ATOM      8  C   UNL     1       1.765   2.568   1.254  0.00  0.00    +0.035 C 
ATOM      9  C   UNL     1       0.951   3.864   1.264  0.00  0.00    +0.006 C 
ATOM     10  C   UNL     1      -0.016   1.345   0.009  0.00  0.00    +0.247 C 
ATOM     11  O   UNL     1      -0.991   2.066   0.018  0.00  0.00    -0.273 OA
ATOM     12  N   UNL     1       0.002  -0.004   0.002  0.00  0.00    -0.213 N 
ATOM     13  C   UNL     1       1.253  -0.480  -0.013  0.00  0.00    +0.310 C 
ATOM     14  O   UNL     1       1.526  -1.665  -0.021  0.00  0.00    -0.252 OA
ATOM     15  N   UNL     1       2.176   0.501  -0.016  0.00  0.00    -0.285 N 
ATOM     16  H   UNL     1       3.140   0.392  -0.026  0.00  0.00    +0.151 HD
BRANCH   4  18
ATOM     17  C   UNL     1       0.922   6.846   1.212  0.00  0.00    +0.004 C 
ATOM     18  C   UNL     1       0.477   5.984   0.030  0.00  0.00    -0.000 C 
ENDBRANCH   4  18
ENDBRANCH   3  12
ENDBRANCH   1   3
BRANCH   1  19
ATOM     19  O   UNL     1      -2.708  -1.879  -1.647  0.00  0.00    -0.455 OA
BRANCH  19  20
ATOM     20  C   UNL     1      -3.059  -2.108  -3.038  0.00  0.00    +0.313 C 
BRANCH  20  21
ATOM     21  C   UNL     1      -4.293  -2.970  -3.109  0.00  0.00    +0.217 C 
ATOM     22  O   UNL     1      -4.825  -3.354  -2.087  0.00  0.00    -0.287 OA
BRANCH  21  23
ATOM     23  C   UNL     1      -4.832  -3.332  -4.367  0.00  0.00    +0.090 A 
ATOM     24  C   UNL     1      -5.946  -4.115  -4.575  0.00  0.00    -0.008 A 
ATOM     25  C   UNL     1      -6.120  -4.215  -5.972  0.00  0.00    +0.083 A 
ATOM     26  C   UNL     1      -5.099  -3.493  -6.564  0.00  0.00    +0.028 A 
ATOM     27  N   UNL     1      -4.330  -2.966  -5.599  0.00  0.00    -0.355 N 
ATOM     28  H   UNL     1      -3.545  -2.415  -5.745  0.00  0.00    +0.166 HD
ATOM     29  C   UNL     1      -4.885  -3.326  -8.046  0.00  0.00    +0.064 C 
ATOM     30  C   UNL     1      -6.814  -4.743  -3.515  0.00  0.00    +0.047 C 
BRANCH  25  31
ATOM     31  C   UNL     1      -7.187  -4.953  -6.670  0.00  0.00    +0.341 C 
ATOM     32  O   UNL     1      -7.023  -6.120  -6.968  0.00  0.00    -0.245 OA
BRANCH  31  33
ATOM     33  O   UNL     1      -8.344  -4.335  -6.978  0.00  0.00    -0.464 OA
ATOM     34  C   UNL     1      -9.350  -5.125  -7.666  0.00  0.00    +0.280 C 
ENDBRANCH  31  33
ENDBRANCH  25  31
ENDBRANCH  21  23
ENDBRANCH  20  21
ENDBRANCH  19  20
ENDBRANCH   1  19
TORSDOF 9
