REMARK  Name = ZINC55494367
REMARK  7 active torsions:
REMARK  status: ('A' for Active; 'I' for Inactive)
REMARK    1  A    between atoms: C_1  and  C_2
REMARK    2  A    between atoms: C_2  and  O_3
REMARK    3  A    between atoms: O_3  and  C_4
REMARK    4  A    between atoms: C_9  and  N_10
REMARK    5  A    between atoms: C_11  and  C_13
REMARK    6  A    between atoms: C_13  and  C_14
REMARK    7  A    between atoms: C_26  and  C_30
REMARK                            x       y       z     vdW  Elec       q    Type
REMARK                         _______ _______ _______ _____ _____    ______ ____
ROOT
ATOM      1  C   UNL     1       3.627  -1.919   6.712  0.00  0.00    +0.120 A 
ATOM      2  N   UNL     1       4.126  -1.290   7.806  0.00  0.00    -0.310 N 
ATOM      3  H   UNL     1       4.112  -0.321   7.845  0.00  0.00    +0.170 HD
ATOM      4  C   UNL     1       4.640  -1.983   8.839  0.00  0.00    +0.260 A 
ATOM      5  O   UNL     1       5.085  -1.403   9.815  0.00  0.00    -0.267 OA
ATOM      6  C   UNL     1       4.656  -3.415   8.773  0.00  0.00    +0.075 A 
ATOM      7  C   UNL     1       5.157  -4.365   9.765  0.00  0.00    -0.023 A 
ATOM      8  C   UNL     1       5.057  -5.677   9.462  0.00  0.00    -0.004 A 
ATOM      9  S   UNL     1       4.300  -5.721   7.859  0.00  0.00    -0.073 S 
ATOM     10  C   UNL     1       4.119  -3.975   7.603  0.00  0.00    +0.116 A 
ATOM     11  N   UNL     1       3.623  -3.222   6.624  0.00  0.00    -0.226 NA
ATOM     12  C   UNL     1       5.492  -6.838  10.302  0.00  0.00    +0.046 C 
ATOM     13  C   UNL     1       5.736  -6.337  11.732  0.00  0.00    -0.009 C 
ATOM     14  C   UNL     1       6.591  -5.068  11.669  0.00  0.00    +0.008 C 
ATOM     15  C   UNL     1       5.769  -3.916  11.089  0.00  0.00    +0.037 C 
ATOM     16  C   UNL     1       6.468  -7.413  12.536  0.00  0.00    +0.008 C 
ENDROOT
BRANCH   1  17
ATOM     17  C   UNL     1       3.061  -1.099   5.580  0.00  0.00    +0.170 C 
BRANCH  17  19
ATOM     18  N   UNL     1       2.017  -1.504   3.375  0.00  0.00    -0.282 N 
ATOM     19  C   UNL     1       2.567  -2.018   4.493  0.00  0.00    +0.225 C 
ATOM     20  O   UNL     1       2.665  -3.220   4.623  0.00  0.00    -0.275 OA
ATOM     21  H   UNL     1       2.012  -0.544   3.234  0.00  0.00    +0.155 HD
BRANCH  18  27
ATOM     22  C   UNL     1       1.353  -1.944   1.089  0.00  0.00    +0.142 A 
ATOM     23  C   UNL     1       0.799  -2.793   0.144  0.00  0.00    +0.047 A 
ATOM     24  C   UNL     1       0.342  -4.042   0.520  0.00  0.00    +0.004 A 
ATOM     25  C   UNL     1       0.437  -4.449   1.838  0.00  0.00    +0.002 A 
ATOM     26  C   UNL     1       0.988  -3.609   2.787  0.00  0.00    +0.027 A 
ATOM     27  C   UNL     1       1.453  -2.356   2.416  0.00  0.00    +0.076 A 
BRANCH  22  28
ATOM     28  O   UNL     1       1.802  -0.715   0.721  0.00  0.00    -0.490 OA
BRANCH  28  30
ATOM     29  C   UNL     1       2.223   1.048  -0.878  0.00  0.00    +0.048 C 
ATOM     30  C   UNL     1       1.667  -0.360  -0.657  0.00  0.00    +0.226 C 
ENDBRANCH  28  30
ENDBRANCH  22  28
ENDBRANCH  18  27
ENDBRANCH  17  19
ENDBRANCH   1  17
TORSDOF 5
