REMARK  Name = ZINC37500449
REMARK  5 active torsions:
REMARK  status: ('A' for Active; 'I' for Inactive)
REMARK    1  A    between atoms: C_3  and  N_19
REMARK    2  A    between atoms: C_4  and  C_8
REMARK    3  A    between atoms: N_10  and  C_11
REMARK    4  A    between atoms: C_11  and  C_12
REMARK    5  A    between atoms: C_12  and  C_13
REMARK                            x       y       z     vdW  Elec       q    Type
REMARK                         _______ _______ _______ _____ _____    ______ ____
ROOT
ATOM      1  C   UNL     1       3.706  -0.662  -0.124  0.00  0.00    +0.246 C 
ATOM      2  O   UNL     1       4.744  -0.035  -0.041  0.00  0.00    -0.270 OA
ATOM      3  N   UNL     1       3.737  -2.001  -0.271  0.00  0.00    -0.311 N 
ATOM      4  H   UNL     1       2.909  -2.502  -0.337  0.00  0.00    +0.149 HD
ENDROOT
BRANCH   1   8
ATOM      5  C   UNL     1      -0.021   1.370   0.053  0.00  0.00    +0.022 A 
ATOM      6  C   UNL     1       0.900   1.529   1.073  0.00  0.00    +0.035 A 
ATOM      7  C   UNL     1       2.111   0.872   1.022  0.00  0.00    +0.138 A 
ATOM      8  C   UNL     1       2.409   0.045  -0.062  0.00  0.00    +0.068 A 
ATOM      9  C   UNL     1       1.476  -0.112  -1.089  0.00  0.00    +0.035 A 
ATOM     10  C   UNL     1       0.267   0.551  -1.026  0.00  0.00    +0.042 A 
ATOM     11 CL   UNL     1      -0.895   0.358  -2.301  0.00  0.00    -0.084 Cl
BRANCH   7  12
ATOM     12  N   UNL     1       3.095   1.044   2.115  0.00  0.00    +0.057 N 
ATOM     13  O   UNL     1       2.889   1.849   2.993  0.00  0.00    -0.126 OA
ATOM     14  O   UNL     1       4.105   0.379   2.129  0.00  0.00    -0.126 OA
ENDBRANCH   7  12
ENDBRANCH   1   8
BRANCH   3  15
ATOM     15  C   UNL     1       5.023  -2.701  -0.331  0.00  0.00    +0.105 C 
BRANCH  15  16
ATOM     16  C   UNL     1       4.779  -4.202  -0.500  0.00  0.00    +0.022 C 
BRANCH  16  17
ATOM     17  C   UNL     1       6.121  -4.934  -0.563  0.00  0.00    -0.010 C 
ATOM     18  C   UNL     1       6.844  -4.789   0.777  0.00  0.00    +0.003 C 
ATOM     19  C   UNL     1       8.187  -5.520   0.714  0.00  0.00    +0.000 C 
ATOM     20  C   UNL     1       7.947  -7.003   0.421  0.00  0.00    +0.000 C 
ATOM     21  C   UNL     1       7.223  -7.147  -0.919  0.00  0.00    +0.000 C 
ATOM     22  C   UNL     1       5.881  -6.416  -0.856  0.00  0.00    +0.003 C 
ENDBRANCH  16  17
ENDBRANCH  15  16
ENDBRANCH   3  15
TORSDOF 5
