REMARK  Name = ZINC39699015
REMARK  6 active torsions:
REMARK  status: ('A' for Active; 'I' for Inactive)
REMARK    1  A    between atoms: C_1  and  C_2
REMARK    2  A    between atoms: C_2  and  C_4
REMARK    3  A    between atoms: C_2  and  S_14
REMARK    4  A    between atoms: N_6  and  C_7
REMARK    5  A    between atoms: S_14  and  C_15
REMARK    6  A    between atoms: C_19  and  C_21
REMARK                            x       y       z     vdW  Elec       q    Type
REMARK                         _______ _______ _______ _____ _____    ______ ____
ROOT
ATOM      1  C   UNL     1      -2.385  -0.092  -1.572  0.00  0.00    +0.340 C 
ATOM      2  N   UNL     1      -2.307   1.374  -1.690  0.00  0.00    -0.219 N 
ATOM      3  N   UNL     1      -1.490   1.619  -2.804  0.00  0.00    -0.145 NA
ATOM      4  C   UNL     1      -1.096   0.489  -3.329  0.00  0.00    +0.238 C 
ATOM      5  O   UNL     1      -1.585  -0.585  -2.656  0.00  0.00    -0.443 OA
ATOM      6  H   UNL     1      -2.733   2.032  -1.119  0.00  0.00    +0.173 HD
ENDROOT
BRANCH   4   7
ATOM      7  C   UNL     1      -0.267   0.396  -4.455  0.00  0.00    +0.043 C 
ATOM      8  C   UNL     1       0.277   1.449  -5.192  0.00  0.00    +0.008 A 
ATOM      9  C   UNL     1       0.182   2.850  -5.064  0.00  0.00    +0.010 A 
ATOM     10  C   UNL     1       0.831   3.653  -5.946  0.00  0.00    +0.001 A 
ATOM     11  C   UNL     1       1.599   3.126  -6.987  0.00  0.00    +0.002 A 
ATOM     12  C   UNL     1       1.734   1.789  -7.170  0.00  0.00    +0.026 A 
ATOM     13  C   UNL     1       1.084   0.887  -6.288  0.00  0.00    +0.043 A 
ATOM     14  N   UNL     1       1.058  -0.431  -6.251  0.00  0.00    -0.380 N 
ATOM     15  C   UNL     1       0.232  -0.868  -5.122  0.00  0.00    +0.154 C 
ATOM     16  H   UNL     1       1.515  -1.019  -6.873  0.00  0.00    +0.160 HD
ENDBRANCH   4   7
BRANCH   1  17
ATOM     17  S   UNL     1      -1.700  -0.636   0.018  0.00  0.00    -0.084 S 
BRANCH  17  19
ATOM     18  C   UNL     1      -0.017   1.520  -0.003  0.00  0.00    +0.029 C 
ATOM     19  C   UNL     1       0.002  -0.010  -0.001  0.00  0.00    +0.134 C 
BRANCH  19  20
ATOM     20  C   UNL     1       0.731  -0.502   1.223  0.00  0.00    +0.230 C 
ATOM     21  O   UNL     1       0.105  -0.882   2.190  0.00  0.00    -0.274 OA
ATOM     22  N   UNL     1       2.079  -0.519   1.244  0.00  0.00    -0.285 N 
ATOM     23  H   UNL     1       2.579  -0.279   0.448  0.00  0.00    +0.155 HD
BRANCH  22  24
ATOM     24  C   UNL     1       2.756  -0.883   2.414  0.00  0.00    +0.034 A 
ATOM     25  C   UNL     1       3.956  -0.266   2.743  0.00  0.00    +0.026 A 
ATOM     26  C   UNL     1       4.623  -0.626   3.897  0.00  0.00    +0.040 A 
ATOM     27  C   UNL     1       4.096  -1.603   4.726  0.00  0.00    +0.124 A 
ATOM     28  C   UNL     1       2.900  -2.220   4.399  0.00  0.00    +0.040 A 
ATOM     29  C   UNL     1       2.227  -1.857   3.249  0.00  0.00    +0.026 A 
ATOM     30  F   UNL     1       4.751  -1.955   5.854  0.00  0.00    -0.205 F 
ENDBRANCH  22  24
ENDBRANCH  19  20
ENDBRANCH  17  19
ENDBRANCH   1  17
TORSDOF 5
