REMARK  Name = ZINC55594202
REMARK  6 active torsions:
REMARK  status: ('A' for Active; 'I' for Inactive)
REMARK    1  A    between atoms: C_1  and  C_2
REMARK    2  A    between atoms: C_7  and  S_8
REMARK    3  A    between atoms: S_8  and  N_11
REMARK    4  A    between atoms: N_11  and  C_12
REMARK    5  A    between atoms: C_16  and  C_18
REMARK    6  A    between atoms: C_18  and  C_25
REMARK                            x       y       z     vdW  Elec       q    Type
REMARK                         _______ _______ _______ _____ _____    ______ ____
ROOT
ATOM      1  C   UNL     1       1.215   2.188   2.135  0.00  0.00    +0.048 A 
ATOM      2  C   UNL     1       0.967   2.116   0.770  0.00  0.00    +0.024 A 
ATOM      3  C   UNL     1       1.005   3.263   0.001  0.00  0.00    +0.002 A 
ATOM      4  C   UNL     1       1.291   4.482   0.588  0.00  0.00    +0.006 A 
ATOM      5  C   UNL     1       1.540   4.557   1.946  0.00  0.00    -0.014 A 
ATOM      6  C   UNL     1       1.496   3.415   2.722  0.00  0.00    +0.030 A 
ENDROOT
BRANCH   5   7
ATOM      7  C   UNL     1       1.852   5.888   2.581  0.00  0.00    +0.135 C 
ATOM      8  C   UNL     1       0.752   6.290   3.544  0.00  0.00    +0.248 C 
ATOM      9  O   UNL     1       0.400   5.699   4.542  0.00  0.00    -0.273 OA
ATOM     10  N   UNL     1       0.248   7.442   3.059  0.00  0.00    -0.238 N 
ATOM     11  C   UNL     1       0.870   7.819   1.936  0.00  0.00    +0.307 C 
ATOM     12  O   UNL     1       0.591   8.826   1.315  0.00  0.00    -0.252 OA
ATOM     13  N   UNL     1       1.838   6.960   1.572  0.00  0.00    -0.282 N 
ATOM     14  C   UNL     1       3.204   5.837   3.295  0.00  0.00    +0.047 C 
ATOM     15  H   UNL     1      -0.477   7.937   3.473  0.00  0.00    +0.159 HD
ATOM     16  H   UNL     1       2.415   7.032   0.795  0.00  0.00    +0.152 HD
ENDBRANCH   5   7
BRANCH   1  17
ATOM     17  N   UNL     1       1.176   1.031   2.915  0.00  0.00    -0.216 N 
ATOM     18  H   UNL     1       1.882   0.855   3.557  0.00  0.00    +0.174 HD
BRANCH  17  19
ATOM     19  S   UNL     1      -0.075  -0.041   2.746  0.00  0.00    +0.073 S 
ATOM     20  O   UNL     1      -1.270   0.728   2.744  0.00  0.00    -0.150 OA
ATOM     21  O   UNL     1       0.157  -1.087   3.679  0.00  0.00    -0.150 OA
BRANCH  19  28
ATOM     22  C   UNL     1       2.240  -1.772   1.857  0.00  0.00    +0.046 C 
ATOM     23  C   UNL     1       1.164  -1.536   0.828  0.00  0.00    -0.024 A 
ATOM     24  C   UNL     1       1.274  -2.103  -0.429  0.00  0.00    +0.008 A 
ATOM     25  C   UNL     1       0.288  -1.887  -1.373  0.00  0.00    +0.039 A 
ATOM     26  C   UNL     1      -0.809  -1.103  -1.060  0.00  0.00    +0.125 A 
ATOM     27  C   UNL     1      -0.918  -0.536   0.198  0.00  0.00    +0.067 A 
ATOM     28  C   UNL     1       0.067  -0.757   1.142  0.00  0.00    +0.114 A 
ATOM     29  F   UNL     1      -1.774  -0.891  -1.983  0.00  0.00    -0.205 F 
ENDBRANCH  19  28
ENDBRANCH  17  19
ENDBRANCH   1  17
TORSDOF 4
