REMARK  Name = ZINC59852230
REMARK  7 active torsions:
REMARK  status: ('A' for Active; 'I' for Inactive)
REMARK    1  A    between atoms: C_6  and  C_7
REMARK    2  A    between atoms: C_7  and  C_9
REMARK    3  A    between atoms: C_7  and  N_12
REMARK    4  A    between atoms: C_13  and  C_15
REMARK    5  A    between atoms: C_18  and  N_24
REMARK    6  A    between atoms: C_19  and  N_21
REMARK    7  A    between atoms: N_24  and  C_25
REMARK                            x       y       z     vdW  Elec       q    Type
REMARK                         _______ _______ _______ _____ _____    ______ ____
ROOT
ATOM      1  N   UNL     1      -2.402  -0.510   0.844  0.00  0.00    -0.304 N 
ATOM      2  C   UNL     1      -3.432  -1.098   1.484  0.00  0.00    +0.245 C 
ATOM      3  O   UNL     1      -3.653  -2.282   1.321  0.00  0.00    -0.270 OA
ATOM      4  H   UNL     1      -2.226   0.435   0.973  0.00  0.00    +0.150 HD
ENDROOT
BRANCH   2   5
ATOM      5  C   UNL     1      -4.292  -0.303   2.382  0.00  0.00    +0.039 A 
ATOM      6  C   UNL     1      -4.042   1.060   2.566  0.00  0.00    +0.015 A 
ATOM      7  C   UNL     1      -4.846   1.798   3.404  0.00  0.00    +0.026 A 
ATOM      8  C   UNL     1      -5.906   1.188   4.069  0.00  0.00    +0.058 A 
ATOM      9  C   UNL     1      -6.157  -0.169   3.889  0.00  0.00    +0.148 A 
ATOM     10  C   UNL     1      -5.361  -0.911   3.047  0.00  0.00    +0.047 A 
BRANCH   9  11
ATOM     11  N   UNL     1      -7.285  -0.813   4.599  0.00  0.00    +0.058 N 
ATOM     12  O   UNL     1      -7.439  -2.010   4.527  0.00  0.00    -0.126 OA
ATOM     13  O   UNL     1      -8.051  -0.142   5.250  0.00  0.00    -0.126 OA
ENDBRANCH   9  11
BRANCH   8  14
ATOM     14  N   UNL     1      -6.716   1.937   4.916  0.00  0.00    -0.339 N 
ATOM     15  H   UNL     1      -7.503   1.534   5.316  0.00  0.00    +0.146 HD
BRANCH  14  16
ATOM     16  C   UNL     1      -6.382   3.334   5.204  0.00  0.00    +0.071 C 
ATOM     17  C   UNL     1      -6.384   3.774   6.669  0.00  0.00    +0.024 C 
ATOM     18  C   UNL     1      -7.501   4.234   5.731  0.00  0.00    +0.024 C 
ENDBRANCH  14  16
ENDBRANCH   8  14
ENDBRANCH   2   5
BRANCH   1  19
ATOM     19  C   UNL     1      -1.549  -1.299  -0.049  0.00  0.00    +0.107 C 
BRANCH  19  25
ATOM     20  C   UNL     1      -0.087   0.724  -0.221  0.00  0.00    +0.009 A 
ATOM     21  C   UNL     1       1.157   1.321  -0.312  0.00  0.00    +0.050 A 
ATOM     22  C   UNL     1       2.303   0.541  -0.330  0.00  0.00    +0.162 A 
ATOM     23  C   UNL     1       2.198  -0.843  -0.253  0.00  0.00    +0.162 A 
ATOM     24  C   UNL     1       0.947  -1.436  -0.163  0.00  0.00    +0.055 A 
ATOM     25  C   UNL     1      -0.191  -0.652  -0.147  0.00  0.00    -0.023 A 
ATOM     26  O   UNL     1       3.310  -1.628  -0.261  0.00  0.00    -0.485 OA
ATOM     27  C   UNL     1       4.521  -1.022  -0.728  0.00  0.00    +0.270 C 
ATOM     28  C   UNL     1       4.658   0.354  -0.062  0.00  0.00    +0.270 C 
ATOM     29  O   UNL     1       3.520   1.143  -0.425  0.00  0.00    -0.485 OA
ENDBRANCH  19  25
BRANCH  19  30
ATOM     30  C   UNL     1      -2.185  -1.363  -1.438  0.00  0.00    +0.014 C 
ATOM     31  C   UNL     1      -3.405  -0.477  -1.698  0.00  0.00    +0.006 C 
ATOM     32  C   UNL     1      -3.576  -1.990  -1.550  0.00  0.00    +0.006 C 
ENDBRANCH  19  30
ENDBRANCH   1  19
TORSDOF 7
