REMARK  Name = ZINC43260372
REMARK  8 active torsions:
REMARK  status: ('A' for Active; 'I' for Inactive)
REMARK    1  A    between atoms: C_1  and  O_2
REMARK    2  A    between atoms: O_2  and  C_3
REMARK    3  A    between atoms: C_3  and  C_5
REMARK    4  A    between atoms: C_8  and  N_11
REMARK    5  A    between atoms: C_18  and  C_21
REMARK    6  A    between atoms: N_23  and  C_24
REMARK    7  A    between atoms: C_24  and  C_25
REMARK    8  A    between atoms: C_31  and  C_33
REMARK                            x       y       z     vdW  Elec       q    Type
REMARK                         _______ _______ _______ _____ _____    ______ ____
ROOT
ATOM      1  N   UNL     1       1.521  -6.040   0.835  0.00  0.00    -0.269 N 
ATOM      2  C   UNL     1       1.944  -6.732   1.911  0.00  0.00    +0.307 C 
ATOM      3  O   UNL     1       2.147  -6.157   2.963  0.00  0.00    -0.252 OA
ATOM      4  N   UNL     1       2.143  -8.062   1.822  0.00  0.00    -0.282 N 
ATOM      5  C   UNL     1       1.989  -8.757   0.536  0.00  0.00    +0.128 C 
ATOM      6  C   UNL     1       3.285  -9.518   0.232  0.00  0.00    +0.127 C 
ATOM      7  N   UNL     1       3.659 -10.300   1.419  0.00  0.00    -0.287 N 
ATOM      8  C   UNL     1       3.813  -9.606   2.705  0.00  0.00    +0.179 C 
ATOM      9  C   UNL     1       2.522  -8.844   3.008  0.00  0.00    +0.141 C 
ATOM     10  C   UNL     1       3.858 -11.630   1.330  0.00  0.00    +0.219 C 
ATOM     11  O   UNL     1       4.202 -12.259   2.308  0.00  0.00    -0.275 OA
ATOM     12  H   UNL     1       1.332  -6.504   0.004  0.00  0.00    +0.156 HD
ENDROOT
BRANCH   1  16
ATOM     13  C   UNL     1       1.021  -1.913   1.077  0.00  0.00    +0.059 A 
ATOM     14  C   UNL     1       1.453  -2.497  -0.117  0.00  0.00    +0.017 A 
ATOM     15  C   UNL     1       1.617  -3.861  -0.193  0.00  0.00    +0.024 A 
ATOM     16  C   UNL     1       1.354  -4.659   0.916  0.00  0.00    +0.035 A 
ATOM     17  C   UNL     1       0.923  -4.081   2.106  0.00  0.00    +0.024 A 
ATOM     18  C   UNL     1       0.762  -2.716   2.192  0.00  0.00    +0.017 A 
BRANCH  13  19
ATOM     19  C   UNL     1       0.845  -0.451   1.163  0.00  0.00    +0.339 C 
ATOM     20  O   UNL     1       0.474   0.056   2.204  0.00  0.00    -0.245 OA
BRANCH  19  22
ATOM     21  C   UNL     1       0.903   1.730   0.243  0.00  0.00    +0.280 C 
ATOM     22  O   UNL     1       1.095   0.322   0.089  0.00  0.00    -0.464 OA
ENDBRANCH  19  22
ENDBRANCH  13  19
ENDBRANCH   1  16
BRANCH  10  23
ATOM     23  C   UNL     1       3.652 -12.336   0.015  0.00  0.00    +0.075 C 
ATOM     24  C   UNL     1       2.167 -12.306  -0.354  0.00  0.00    +0.013 C 
ATOM     25  C   UNL     1       1.958 -13.023  -1.689  0.00  0.00    +0.001 C 
ATOM     26  C   UNL     1       2.424 -14.475  -1.567  0.00  0.00    +0.000 C 
ATOM     27  C   UNL     1       3.909 -14.505  -1.199  0.00  0.00    +0.001 C 
ATOM     28  C   UNL     1       4.118 -13.789   0.137  0.00  0.00    +0.013 C 
ENDBRANCH  10  23
BRANCH   8  29
ATOM     29  C   UNL     1       4.079 -10.612   3.795  0.00  0.00    +0.235 C 
ATOM     30  O   UNL     1       3.183 -11.326   4.193  0.00  0.00    -0.274 OA
ATOM     31  N   UNL     1       5.313 -10.719   4.327  0.00  0.00    -0.311 N 
ATOM     32  H   UNL     1       6.029 -10.148   4.009  0.00  0.00    +0.149 HD
BRANCH  31  33
ATOM     33  C   UNL     1       5.572 -11.697   5.386  0.00  0.00    +0.135 C 
BRANCH  33  34
ATOM     34  C   UNL     1       7.040 -11.613   5.811  0.00  0.00    +0.135 C 
ATOM     35  C   UNL     1       7.351 -12.721   6.840  0.00  0.00    +0.035 C 
ATOM     36  C   UNL     1       8.293 -11.990   7.835  0.00  0.00    +0.031 C 
ATOM     37  C   UNL     1       7.701 -10.559   7.803  0.00  0.00    +0.160 C 
ATOM     38  O   UNL     1       7.292 -10.351   6.440  0.00  0.00    -0.375 OA
ENDBRANCH  33  34
ENDBRANCH  31  33
ENDBRANCH   8  29
TORSDOF 7
