REMARK  Name = ZINC42802125
REMARK  5 active torsions:
REMARK  status: ('A' for Active; 'I' for Inactive)
REMARK    1  A    between atoms: C_1  and  C_2
REMARK    2  A    between atoms: C_2  and  C_4
REMARK    3  A    between atoms: C_2  and  N_12
REMARK    4  A    between atoms: N_15  and  N_16
REMARK    5  A    between atoms: C_17  and  C_19
REMARK                            x       y       z     vdW  Elec       q    Type
REMARK                         _______ _______ _______ _____ _____    ______ ____
ROOT
ATOM      1  N   UNL     1       0.688  -0.476  -1.203  0.00  0.00    -0.292 N 
ATOM      2  C   UNL     1       0.006  -0.608  -2.358  0.00  0.00    +0.316 C 
ATOM      3  O   UNL     1      -1.178  -0.335  -2.400  0.00  0.00    -0.251 OA
ATOM      4  N   UNL     1       0.637  -1.043  -3.467  0.00  0.00    -0.218 N 
ATOM      5  H   UNL     1       1.632  -0.695  -1.170  0.00  0.00    +0.151 HD
ATOM      6  H   UNL     1       0.146  -1.137  -4.299  0.00  0.00    +0.174 HD
ENDROOT
BRANCH   4   7
ATOM      7  N   UNL     1       2.001  -1.358  -3.419  0.00  0.00    -0.229 N 
ATOM      8  C   UNL     1       2.632  -1.792  -4.528  0.00  0.00    +0.260 C 
ATOM      9  O   UNL     1       2.017  -1.911  -5.570  0.00  0.00    -0.269 OA
ATOM     10  H   UNL     1       2.492  -1.263  -2.588  0.00  0.00    +0.173 HD
BRANCH   8  11
ATOM     11  C   UNL     1       4.069  -2.124  -4.477  0.00  0.00    +0.042 A 
ATOM     12  C   UNL     1       4.777  -1.994  -3.280  0.00  0.00    +0.017 A 
ATOM     13  C   UNL     1       6.118  -2.304  -3.235  0.00  0.00    +0.050 A 
ATOM     14  C   UNL     1       6.773  -2.747  -4.379  0.00  0.00    +0.162 A 
ATOM     15  C   UNL     1       6.073  -2.881  -5.575  0.00  0.00    +0.163 A 
ATOM     16  C   UNL     1       4.725  -2.575  -5.625  0.00  0.00    +0.062 A 
ATOM     17  O   UNL     1       6.698  -3.321  -6.702  0.00  0.00    -0.485 OA
ATOM     18  C   UNL     1       8.129  -3.268  -6.706  0.00  0.00    +0.270 C 
ATOM     19  C   UNL     1       8.634  -3.840  -5.374  0.00  0.00    +0.270 C 
ATOM     20  O   UNL     1       8.098  -3.043  -4.312  0.00  0.00    -0.485 OA
ENDBRANCH   8  11
ENDBRANCH   4   7
BRANCH   1  22
ATOM     21  C   UNL     1      -0.019   1.526   0.010  0.00  0.00    +0.033 C 
ATOM     22  C   UNL     1       0.002  -0.004   0.002  0.00  0.00    +0.104 C 
BRANCH  22  23
ATOM     23  C   UNL     1       0.731  -0.503   1.223  0.00  0.00    +0.008 A 
ATOM     24  C   UNL     1       2.077  -0.808   1.147  0.00  0.00    +0.011 A 
ATOM     25  C   UNL     1       2.747  -1.265   2.266  0.00  0.00    +0.039 A 
ATOM     26  C   UNL     1       2.070  -1.419   3.465  0.00  0.00    +0.126 A 
ATOM     27  C   UNL     1       0.722  -1.115   3.541  0.00  0.00    +0.077 A 
ATOM     28  C   UNL     1       0.053  -0.651   2.421  0.00  0.00    +0.131 A 
ATOM     29  F   UNL     1      -1.261  -0.348   2.496  0.00  0.00    -0.205 F 
ATOM     30  F   UNL     1       2.725  -1.868   4.558  0.00  0.00    -0.205 F 
ENDBRANCH  22  23
ENDBRANCH   1  22
TORSDOF 4
