REMARK  Name = ZINC22310628
REMARK  8 active torsions:
REMARK  status: ('A' for Active; 'I' for Inactive)
REMARK    1  A    between atoms: C_1  and  C_2
REMARK    2  A    between atoms: C_2  and  N_3
REMARK    3  A    between atoms: C_7  and  S_25
REMARK    4  A    between atoms: C_11  and  S_12
REMARK    5  A    between atoms: S_12  and  C_13
REMARK    6  A    between atoms: C_13  and  C_14
REMARK    7  A    between atoms: N_16  and  C_17
REMARK    8  A    between atoms: S_25  and  N_28
REMARK                            x       y       z     vdW  Elec       q    Type
REMARK                         _______ _______ _______ _____ _____    ______ ____
ROOT
ATOM      1  N   UNL     1      -5.706  -2.293   0.310  0.00  0.00    -0.319 N 
ATOM      2  C   UNL     1      -4.724  -1.369  -0.009  0.00  0.00    +0.070 A 
ATOM      3  C   UNL     1      -4.216  -0.880  -1.203  0.00  0.00    +0.030 A 
ATOM      4  C   UNL     1      -3.213   0.067  -1.186  0.00  0.00    +0.030 A 
ATOM      5  C   UNL     1      -2.701   0.527   0.018  0.00  0.00    +0.107 A 
ATOM      6  C   UNL     1      -3.194   0.054   1.214  0.00  0.00    +0.058 A 
ATOM      7  C   UNL     1      -4.214  -0.902   1.214  0.00  0.00    +0.092 A 
ATOM      8  N   UNL     1      -4.889  -1.546   2.201  0.00  0.00    -0.222 NA
ATOM      9  C   UNL     1      -5.767  -2.364   1.674  0.00  0.00    +0.170 A 
ENDROOT
BRANCH   5  10
ATOM     10  S   UNL     1      -1.416   1.733   0.019  0.00  0.00    +0.056 S 
ATOM     11  O   UNL     1      -1.491   2.405   1.268  0.00  0.00    -0.153 OA
ATOM     12  O   UNL     1      -1.502   2.419  -1.222  0.00  0.00    -0.153 OA
BRANCH  10  13
ATOM     13  N   UNL     1       0.023   0.913   0.008  0.00  0.00    -0.204 NA
ATOM     14  H   UNL     1       0.855   1.633   0.008  0.00  0.00    +0.144 HD
ATOM     15  H   UNL     1       0.081   0.286  -0.894  0.00  0.00    +0.144 HD
ENDBRANCH  10  13
ENDBRANCH   5  10
BRANCH   1  17
ATOM     16  C   UNL     1      -7.798  -2.263  -0.956  0.00  0.00    +0.027 C 
ATOM     17  C   UNL     1      -6.526  -3.051  -0.637  0.00  0.00    +0.121 C 
ENDBRANCH   1  17
BRANCH   9  18
ATOM     18  S   UNL     1      -6.862  -3.400   2.586  0.00  0.00    -0.078 S 
BRANCH  18  19
ATOM     19  C   UNL     1      -6.377  -2.961   4.273  0.00  0.00    +0.173 C 
BRANCH  19  20
ATOM     20  C   UNL     1      -7.206  -3.749   5.255  0.00  0.00    +0.227 C 
ATOM     21  O   UNL     1      -8.043  -4.529   4.853  0.00  0.00    -0.275 OA
ATOM     22  N   UNL     1      -7.018  -3.586   6.579  0.00  0.00    -0.285 N 
ATOM     23  H   UNL     1      -6.208  -2.936   6.944  0.00  0.00    +0.155 HD
BRANCH  22  24
ATOM     24  C   UNL     1      -7.852  -4.243   7.492  0.00  0.00    +0.036 A 
ATOM     25  C   UNL     1      -8.196  -3.628   8.688  0.00  0.00    +0.026 A 
ATOM     26  C   UNL     1      -9.024  -4.274   9.585  0.00  0.00    +0.043 A 
ATOM     27  C   UNL     1      -9.503  -5.541   9.297  0.00  0.00    +0.159 A 
ATOM     28  C   UNL     1      -9.157  -6.161   8.105  0.00  0.00    +0.160 A 
ATOM     29  C   UNL     1      -8.332  -5.513   7.203  0.00  0.00    +0.064 A 
ATOM     30  F   UNL     1      -9.625  -7.397   7.826  0.00  0.00    -0.202 F 
ATOM     31  F   UNL     1     -10.308  -6.174  10.178  0.00  0.00    -0.202 F 
ENDBRANCH  22  24
ENDBRANCH  19  20
ENDBRANCH  18  19
ENDBRANCH   9  18
TORSDOF 7
