REMARK  Name = ZINC16900924
REMARK  10 active torsions:
REMARK  status: ('A' for Active; 'I' for Inactive)
REMARK    1  A    between atoms: C_1  and  C_2
REMARK    2  A    between atoms: C_2  and  C_3
REMARK    3  A    between atoms: C_3  and  C_4
REMARK    4  A    between atoms: C_4  and  O_5
REMARK    5  A    between atoms: O_5  and  C_6
REMARK    6  A    between atoms: C_6  and  C_8
REMARK    7  A    between atoms: C_11  and  N_14
REMARK    8  A    between atoms: N_14  and  C_15
REMARK    9  A    between atoms: N_20  and  C_23
REMARK   10  A    between atoms: C_26  and  C_29
REMARK                            x       y       z     vdW  Elec       q    Type
REMARK                         _______ _______ _______ _____ _____    ______ ____
ROOT
ATOM      1  C   UNL     1       4.353  -7.303   7.248  0.00  0.00    +0.166 C 
ATOM      2  C   UNL     1       5.556  -7.931   7.981  0.00  0.00    +0.128 C 
ATOM      3  C   UNL     1       4.915  -8.715   9.106  0.00  0.00    +0.228 C 
ATOM      4  O   UNL     1       5.512  -9.369   9.934  0.00  0.00    -0.275 OA
ATOM      5  N   UNL     1       3.586  -8.571   9.042  0.00  0.00    -0.209 N 
ATOM      6  C   UNL     1       3.158  -7.797   8.032  0.00  0.00    +0.247 C 
ATOM      7  O   UNL     1       2.000  -7.534   7.787  0.00  0.00    -0.273 OA
ENDROOT
BRANCH   5   8
ATOM      8  C   UNL     1       2.715  -9.178   9.950  0.00  0.00    +0.044 A 
ATOM      9  C   UNL     1       2.706  -8.772  11.280  0.00  0.00    +0.025 A 
ATOM     10  C   UNL     1       1.850  -9.367  12.178  0.00  0.00    +0.017 A 
ATOM     11  C   UNL     1       0.987 -10.382  11.751  0.00  0.00    +0.063 A 
ATOM     12  C   UNL     1       0.999 -10.788  10.413  0.00  0.00    +0.017 A 
ATOM     13  C   UNL     1       1.855 -10.183   9.520  0.00  0.00    +0.025 A 
BRANCH  11  14
ATOM     14  C   UNL     1       0.069 -11.023  12.709  0.00  0.00    +0.387 C 
ATOM     15  O   UNL     1       0.061 -10.667  13.879  0.00  0.00    -0.241 OA
ATOM     16  O   UNL     1      -0.684 -11.910  12.334  0.00  0.00    -0.241 OA
ENDBRANCH  11  14
ENDBRANCH   5   8
BRANCH   1  17
ATOM     17  N   UNL     1       4.430  -5.840   7.292  0.00  0.00    -0.333 N 
ATOM     18  H   UNL     1       4.946  -5.402   7.987  0.00  0.00    +0.147 HD
BRANCH  17  22
ATOM     19  C   UNL     1       2.438  -3.569   4.437  0.00  0.00    +0.059 A 
ATOM     20  C   UNL     1       3.182  -2.939   5.440  0.00  0.00    +0.017 A 
ATOM     21  C   UNL     1       3.837  -3.691   6.380  0.00  0.00    +0.024 A 
ATOM     22  C   UNL     1       3.763  -5.081   6.337  0.00  0.00    +0.028 A 
ATOM     23  C   UNL     1       3.024  -5.711   5.340  0.00  0.00    +0.024 A 
ATOM     24  C   UNL     1       2.361  -4.965   4.400  0.00  0.00    +0.017 A 
BRANCH  19  25
ATOM     25  C   UNL     1       1.732  -2.764   3.425  0.00  0.00    +0.339 C 
ATOM     26  O   UNL     1       1.082  -3.312   2.557  0.00  0.00    -0.245 OA
BRANCH  25  27
ATOM     27  O   UNL     1       1.806  -1.419   3.461  0.00  0.00    -0.461 OA
BRANCH  27  28
ATOM     28  C   UNL     1       1.097  -0.701   2.449  0.00  0.00    +0.232 C 
BRANCH  28  29
ATOM     29  C   UNL     1       1.299   0.802   2.653  0.00  0.00    +0.041 C 
BRANCH  29  31
ATOM     30  C   UNL     1       0.741   3.073   1.773  0.00  0.00    +0.004 C 
ATOM     31  C   UNL     1       0.539   1.570   1.569  0.00  0.00    -0.000 C 
ENDBRANCH  29  31
ENDBRANCH  28  29
ENDBRANCH  27  28
ENDBRANCH  25  27
ENDBRANCH  19  25
ENDBRANCH  17  22
ENDBRANCH   1  17
TORSDOF 9
