REMARK  Name = ZINC64040356
REMARK  7 active torsions:
REMARK  status: ('A' for Active; 'I' for Inactive)
REMARK    1  A    between atoms: C_1  and  C_2
REMARK    2  A    between atoms: C_2  and  C_3
REMARK    3  A    between atoms: C_3  and  C_4
REMARK    4  A    between atoms: C_4  and  C_18
REMARK    5  A    between atoms: N_7  and  C_11
REMARK    6  A    between atoms: C_11  and  C_12
REMARK    7  A    between atoms: C_24  and  C_26
REMARK                            x       y       z     vdW  Elec       q    Type
REMARK                         _______ _______ _______ _____ _____    ______ ____
ROOT
ATOM      1  C   UNL     1       1.496  -2.547  -2.489  0.00  0.00    +0.024 C 
ATOM      2  C   UNL     1       0.809  -2.051  -3.763  0.00  0.00    +0.025 C 
ATOM      3  C   UNL     1       1.590  -2.545  -4.985  0.00  0.00    +0.108 C 
ATOM      4  N   UNL     1       1.725  -4.005  -4.902  0.00  0.00    -0.298 N 
ATOM      5  C   UNL     1       2.291  -4.594  -3.680  0.00  0.00    +0.108 C 
ATOM      6  C   UNL     1       1.502  -4.077  -2.473  0.00  0.00    +0.025 C 
ATOM      7  C   UNL     1       1.337  -4.790  -5.926  0.00  0.00    +0.259 C 
ATOM      8  O   UNL     1       0.871  -4.292  -6.929  0.00  0.00    -0.271 OA
ENDROOT
BRANCH   7   9
ATOM      9  C   UNL     1       1.482  -6.287  -5.825  0.00  0.00    +0.263 C 
ATOM     10  N   UNL     1       2.878  -6.675  -6.063  0.00  0.00    -0.356 N 
ATOM     11  C   UNL     1       2.894  -7.452  -7.107  0.00  0.00    +0.061 A 
ATOM     12  C   UNL     1       3.977  -8.145  -7.820  0.00  0.00    +0.027 A 
ATOM     13  C   UNL     1       3.687  -8.900  -8.898  0.00  0.00    +0.002 A 
ATOM     14  C   UNL     1       2.376  -9.059  -9.381  0.00  0.00    +0.002 A 
ATOM     15  C   UNL     1       1.311  -8.469  -8.803  0.00  0.00    +0.027 A 
ATOM     16  C   UNL     1       1.507  -7.621  -7.619  0.00  0.00    +0.061 A 
ATOM     17  N   UNL     1       0.686  -6.942  -6.871  0.00  0.00    -0.356 N 
ATOM     18  H   UNL     1       3.647  -6.402  -5.538  0.00  0.00    +0.162 HD
ATOM     19  H   UNL     1      -0.276  -6.880  -6.984  0.00  0.00    +0.162 HD
ENDBRANCH   7   9
BRANCH   1  20
ATOM     20  C   UNL     1       0.739  -2.027  -1.265  0.00  0.00    +0.115 C 
ATOM     21  C   UNL     1       1.355  -2.559   0.013  0.00  0.00    +0.247 C 
ATOM     22  O   UNL     1       2.483  -2.372   0.416  0.00  0.00    -0.273 OA
ATOM     23  N   UNL     1       0.388  -3.284   0.610  0.00  0.00    -0.222 N 
ATOM     24  C   UNL     1      -0.742  -3.284  -0.107  0.00  0.00    +0.309 C 
ATOM     25  O   UNL     1      -1.754  -3.869   0.227  0.00  0.00    -0.252 OA
ATOM     26  N   UNL     1      -0.632  -2.564  -1.238  0.00  0.00    -0.285 N 
ATOM     27  H   UNL     1      -1.322  -2.426  -1.906  0.00  0.00    +0.151 HD
BRANCH  20  28
ATOM     28  C   UNL     1       0.718  -0.497  -1.257  0.00  0.00    +0.035 C 
BRANCH  28  30
ATOM     29  C   UNL     1      -0.019   1.526   0.010  0.00  0.00    +0.004 C 
ATOM     30  C   UNL     1       0.002  -0.004   0.002  0.00  0.00    -0.001 C 
ENDBRANCH  28  30
ENDBRANCH  20  28
BRANCH  23  31
ATOM     31  C   UNL     1       0.554  -3.986   1.885  0.00  0.00    +0.149 C 
BRANCH  31  32
ATOM     32  C   UNL     1       0.165  -3.054   3.035  0.00  0.00    +0.136 C 
ATOM     33  C   UNL     1       0.367  -3.766   4.396  0.00  0.00    +0.035 C 
ATOM     34  C   UNL     1       0.560  -2.548   5.340  0.00  0.00    +0.031 C 
ATOM     35  C   UNL     1       1.300  -1.544   4.431  0.00  0.00    +0.160 C 
ATOM     36  O   UNL     1       1.041  -1.916   3.071  0.00  0.00    -0.375 OA
ENDBRANCH  31  32
ENDBRANCH  23  31
ENDBRANCH   1  20
TORSDOF 6
