REMARK  Name = ZINC39763082
REMARK  11 active torsions:
REMARK  status: ('A' for Active; 'I' for Inactive)
REMARK    1  A    between atoms: C_1  and  C_2
REMARK    2  A    between atoms: C_2  and  N_3
REMARK    3  A    between atoms: C_4  and  CA_23
REMARK    4  A    between atoms: C_7  and  S_8
REMARK    5  A    between atoms: S_8  and  C_9
REMARK    6  A    between atoms: C_9  and  C_10
REMARK    7  A    between atoms: C_20  and  C_22
REMARK    8  A    between atoms: CA_23  and  C_25
REMARK    9  A    between atoms: CA_23  and  N_27
REMARK   10  A    between atoms: C_25  and  O_26
REMARK   11  A    between atoms: C_28  and  C_30
REMARK                            x       y       z     vdW  Elec       q    Type
REMARK                         _______ _______ _______ _____ _____    ______ ____
ROOT
ATOM      1  N   UNL     1      -1.372  -0.511   0.012  0.00  0.00    -0.305 N 
ATOM      2  C   UNL     1      -2.139  -0.798   1.108  0.00  0.00    +0.157 A 
ATOM      3  N   UNL     1      -3.292  -1.221   0.675  0.00  0.00    -0.131 NA
ATOM      4  N   UNL     1      -3.308  -1.222  -0.610  0.00  0.00    -0.122 NA
ATOM      5  C   UNL     1      -2.156  -0.790  -1.070  0.00  0.00    +0.192 A 
ENDROOT
BRANCH   1   7
ATOM      6  C   UNL     1      -0.019   1.526   0.010  0.00  0.00    +0.027 C 
ATOM      7  C   UNL     1       0.002  -0.004   0.002  0.00  0.00    +0.122 C 
ENDBRANCH   1   7
BRANCH   5   8
ATOM      8  S   UNL     1      -1.707  -0.609  -2.764  0.00  0.00    -0.077 S 
BRANCH   8   9
ATOM      9  C   UNL     1      -3.184  -1.145  -3.670  0.00  0.00    +0.173 C 
BRANCH   9  10
ATOM     10  C   UNL     1      -2.931  -1.038  -5.152  0.00  0.00    +0.230 C 
ATOM     11  O   UNL     1      -1.859  -0.639  -5.557  0.00  0.00    -0.274 OA
ATOM     12  N   UNL     1      -3.895  -1.386  -6.027  0.00  0.00    -0.267 N 
ATOM     13  C   UNL     1      -5.166  -1.851  -5.676  0.00  0.00    +0.040 A 
ATOM     14  C   UNL     1      -5.714  -2.058  -4.409  0.00  0.00    +0.024 A 
ATOM     15  C   UNL     1      -7.003  -2.528  -4.277  0.00  0.00    +0.002 A 
ATOM     16  C   UNL     1      -7.763  -2.800  -5.400  0.00  0.00    +0.000 A 
ATOM     17  C   UNL     1      -7.227  -2.598  -6.658  0.00  0.00    +0.005 A 
ATOM     18  C   UNL     1      -5.936  -2.125  -6.795  0.00  0.00    -0.024 A 
ATOM     19  C   UNL     1      -5.117  -1.820  -8.029  0.00  0.00    +0.059 C 
ATOM     20  C   UNL     1      -3.767  -1.325  -7.486  0.00  0.00    +0.083 C 
ATOM     21  C   UNL     1      -2.639  -2.244  -7.958  0.00  0.00    +0.029 C 
ENDBRANCH   9  10
ENDBRANCH   8   9
ENDBRANCH   5   8
BRANCH   2  22
ATOM     22  CA  UNL     1      -1.725  -0.651   2.550  0.00  0.00    +0.167 C 
BRANCH  22  23
ATOM     23  N   UNL     1      -2.805  -0.011   3.305  0.00  0.00    -0.299 N 
ATOM     24  C   UNL     1      -2.525   0.672   4.433  0.00  0.00    +0.245 C 
ATOM     25  O   UNL     1      -1.377   0.757   4.824  0.00  0.00    -0.270 OA
ATOM     26  H   UNL     1      -3.721  -0.079   2.994  0.00  0.00    +0.150 HD
BRANCH  24  27
ATOM     27  C   UNL     1      -3.615   1.318   5.195  0.00  0.00    +0.037 A 
ATOM     28  C   UNL     1      -4.935   1.217   4.752  0.00  0.00    +0.014 A 
ATOM     29  C   UNL     1      -5.947   1.822   5.468  0.00  0.00    +0.021 A 
ATOM     30  C   UNL     1      -5.656   2.528   6.623  0.00  0.00    +0.041 A 
ATOM     31  C   UNL     1      -4.348   2.631   7.067  0.00  0.00    +0.021 A 
ATOM     32  C   UNL     1      -3.328   2.026   6.364  0.00  0.00    +0.014 A 
ATOM     33 CL   UNL     1      -6.935   3.287   7.518  0.00  0.00    -0.084 Cl
ENDBRANCH  24  27
ENDBRANCH  22  23
BRANCH  22  34
ATOM     34  C   UNL     1      -1.439  -2.033   3.141  0.00  0.00    +0.186 C 
BRANCH  34  35
ATOM     35  O   UNL     1      -2.579  -2.875   2.958  0.00  0.00    -0.393 OA
ATOM     36  H   UNL     1      -2.468  -3.769   3.310  0.00  0.00    +0.209 HD
ENDBRANCH  34  35
ENDBRANCH  22  34
ENDBRANCH   2  22
TORSDOF 9
