REMARK  Name = ZINC06606583
REMARK  6 active torsions:
REMARK  status: ('A' for Active; 'I' for Inactive)
REMARK    1  A    between atoms: C_4  and  N_7
REMARK    2  A    between atoms: N_7  and  C_8
REMARK    3  A    between atoms: C_14  and  C_16
REMARK    4  A    between atoms: C_16  and  O_17
REMARK    5  A    between atoms: O_17  and  C_18
REMARK    6  A    between atoms: C_18  and  C_20
REMARK                            x       y       z     vdW  Elec       q    Type
REMARK                         _______ _______ _______ _____ _____    ______ ____
ROOT
ATOM      1  C   UNL     1       2.118  -1.647   0.763  0.00  0.00    +0.328 C 
ENDROOT
BRANCH   1   3
ATOM      2  N   UNL     1       0.738  -1.961  -1.266  0.00  0.00    -0.266 N 
ATOM      3  C   UNL     1       1.504  -2.515  -0.305  0.00  0.00    +0.258 C 
ATOM      4  O   UNL     1       1.700  -3.712  -0.300  0.00  0.00    -0.272 OA
BRANCH   2   8
ATOM      5  C   UNL     1      -1.278  -4.393  -3.982  0.00  0.00    +0.000 A 
ATOM      6  C   UNL     1      -0.628  -4.958  -2.900  0.00  0.00    +0.002 A 
ATOM      7  C   UNL     1       0.042  -4.155  -1.998  0.00  0.00    +0.023 A 
ATOM      8  C   UNL     1       0.061  -2.778  -2.178  0.00  0.00    +0.037 A 
ATOM      9  C   UNL     1      -0.597  -2.213  -3.262  0.00  0.00    +0.023 A 
ATOM     10  C   UNL     1      -1.261  -3.022  -4.164  0.00  0.00    +0.002 A 
ENDBRANCH   2   8
BRANCH   2  11
ATOM     11  C   UNL     1       0.613  -0.504  -1.354  0.00  0.00    +0.082 C 
ATOM     12  C   UNL     1       1.253  -0.016  -2.656  0.00  0.00    +0.023 C 
ATOM     13  C   UNL     1       1.123   1.506  -2.748  0.00  0.00    +0.002 C 
ATOM     14  C   UNL     1      -0.357   1.893  -2.730  0.00  0.00    +0.000 C 
ATOM     15  C   UNL     1      -0.997   1.405  -1.429  0.00  0.00    +0.002 C 
ATOM     16  C   UNL     1      -0.867  -0.117  -1.336  0.00  0.00    +0.023 C 
ENDBRANCH   2  11
ENDBRANCH   1   3
BRANCH   1  17
ATOM     17  O   UNL     1       2.793  -2.484   1.738  0.00  0.00    -0.451 OA
BRANCH  17  18
ATOM     18  C   UNL     1       3.399  -1.858   2.767  0.00  0.00    +0.360 C 
ATOM     19  O   UNL     1       3.364  -0.646   2.846  0.00  0.00    -0.243 OA
BRANCH  18  20
ATOM     20  C   UNL     1       4.105  -2.645   3.796  0.00  0.00    +0.175 A 
ATOM     21  C   UNL     1       4.775  -1.970   4.920  0.00  0.00    +0.021 A 
ATOM     22  C   UNL     1       4.773  -0.589   5.078  0.00  0.00    +0.011 A 
ATOM     23  C   UNL     1       5.418  -0.030   6.162  0.00  0.00    +0.001 A 
ATOM     24  C   UNL     1       6.063  -0.831   7.095  0.00  0.00    +0.001 A 
ATOM     25  C   UNL     1       6.073  -2.203   6.959  0.00  0.00    +0.014 A 
ATOM     26  C   UNL     1       5.427  -2.786   5.873  0.00  0.00    +0.050 A 
ATOM     27  C   UNL     1       5.389  -4.238   5.652  0.00  0.00    +0.272 A 
ATOM     28  O   UNL     1       5.934  -5.001   6.429  0.00  0.00    -0.266 OA
ATOM     29  N   UNL     1       4.737  -4.706   4.568  0.00  0.00    -0.242 N 
ATOM     30  H   UNL     1       4.714  -5.695   4.420  0.00  0.00    +0.192 HD
ATOM     31  N   UNL     1       4.147  -3.953   3.718  0.00  0.00    -0.164 NA
ENDBRANCH  18  20
ENDBRANCH  17  18
ENDBRANCH   1  17
TORSDOF 6
