REMARK  Name = ZINC04564959
REMARK  8 active torsions:
REMARK  status: ('A' for Active; 'I' for Inactive)
REMARK    1  A    between atoms: C_1  and  C_2
REMARK    2  A    between atoms: C_2  and  C_3
REMARK    3  A    between atoms: C_3  and  N_4
REMARK    4  A    between atoms: C_7  and  C_18
REMARK    5  A    between atoms: N_11  and  C_12
REMARK    6  A    between atoms: C_18  and  C_19
REMARK    7  A    between atoms: N_21  and  C_22
REMARK    8  A    between atoms: C_27  and  N_28
REMARK                            x       y       z     vdW  Elec       q    Type
REMARK                         _______ _______ _______ _____ _____    ______ ____
ROOT
ATOM      1  N   UNL     1       2.095  -2.519  -1.151  0.00  0.00    -0.250 N 
ATOM      2  C   UNL     1       1.517  -2.012  -0.075  0.00  0.00    +0.235 C 
ATOM      3  O   UNL     1       1.068  -2.714   0.806  0.00  0.00    -0.274 OA
ATOM      4  C   UNL     1       1.450  -0.495  -0.012  0.00  0.00    +0.149 C 
ATOM      5  S   UNL     1       2.274  -0.062  -1.595  0.00  0.00    -0.077 S 
ATOM      6  C   UNL     1       2.607  -1.726  -2.156  0.00  0.00    +0.164 C 
ATOM      7  N   UNL     1       3.199  -2.103  -3.264  0.00  0.00    -0.226 NA
ENDROOT
BRANCH   7   8
ATOM      8  C   UNL     1       3.647  -1.165  -4.156  0.00  0.00    +0.067 A 
ATOM      9  C   UNL     1       2.836  -0.083  -4.502  0.00  0.00    +0.028 A 
ATOM     10  C   UNL     1       3.295   0.861  -5.397  0.00  0.00    +0.002 A 
ATOM     11  C   UNL     1       4.553   0.732  -5.958  0.00  0.00    +0.000 A 
ATOM     12  C   UNL     1       5.361  -0.341  -5.623  0.00  0.00    +0.002 A 
ATOM     13  C   UNL     1       4.915  -1.290  -4.726  0.00  0.00    +0.028 A 
ENDBRANCH   7   8
BRANCH   1  14
ATOM     14  C   UNL     1       2.194  -3.975  -1.280  0.00  0.00    +0.115 C 
BRANCH  14  16
ATOM     15  C   UNL     1       3.609  -5.974  -0.787  0.00  0.00    +0.005 C 
ATOM     16  C   UNL     1       3.505  -4.454  -0.653  0.00  0.00    +0.016 C 
ENDBRANCH  14  16
ENDBRANCH   1  14
BRANCH   4  17
ATOM     17  C   UNL     1       0.001  -0.004   0.011  0.00  0.00    +0.120 C 
BRANCH  17  18
ATOM     18  C   UNL     1      -0.019   1.502   0.009  0.00  0.00    +0.219 C 
ATOM     19  O   UNL     1       1.022   2.123  -0.008  0.00  0.00    -0.275 OA
ATOM     20  N   UNL     1      -1.196   2.160   0.021  0.00  0.00    -0.284 N 
ATOM     21  H   UNL     1      -2.028   1.667  -0.048  0.00  0.00    +0.155 HD
BRANCH  20  22
ATOM     22  C   UNL     1      -1.216   3.555   0.134  0.00  0.00    +0.064 A 
ATOM     23  C   UNL     1      -0.157   4.220   0.738  0.00  0.00    +0.025 A 
ATOM     24  C   UNL     1      -0.180   5.596   0.848  0.00  0.00    +0.002 A 
ATOM     25  C   UNL     1      -1.256   6.313   0.356  0.00  0.00    +0.002 A 
ATOM     26  C   UNL     1      -2.312   5.654  -0.247  0.00  0.00    +0.034 A 
ATOM     27  C   UNL     1      -2.292   4.278  -0.364  0.00  0.00    +0.147 A 
BRANCH  27  28
ATOM     28  N   UNL     1      -3.420   3.574  -1.015  0.00  0.00    +0.058 N 
ATOM     29  O   UNL     1      -4.320   4.212  -1.531  0.00  0.00    -0.126 OA
ATOM     30  O   UNL     1      -3.448   2.356  -1.034  0.00  0.00    -0.126 OA
ENDBRANCH  27  28
ENDBRANCH  20  22
ENDBRANCH  17  18
ENDBRANCH   4  17
TORSDOF 7
