REMARK  Name = ZINC12498331
REMARK  14 active torsions:
REMARK  status: ('A' for Active; 'I' for Inactive)
REMARK    1  A    between atoms: C_1  and  C_2
REMARK    2  A    between atoms: C_2  and  C_4
REMARK    3  A    between atoms: C_8  and  N_10
REMARK    4  A    between atoms: C_15  and  C_30
REMARK    5  A    between atoms: C_17  and  C_22
REMARK    6  A    between atoms: C_17  and  C_26
REMARK    7  A    between atoms: C_22  and  C_23
REMARK    8  A    between atoms: C_23  and  S_24
REMARK    9  A    between atoms: S_24  and  C_25
REMARK   10  A    between atoms: C_26  and  O_28
REMARK   11  A    between atoms: O_28  and  C_29
REMARK   12  A    between atoms: C_33  and  N_36
REMARK   13  A    between atoms: N_36  and  C_37
REMARK   14  A    between atoms: N_36  and  C_38
REMARK                            x       y       z     vdW  Elec       q    Type
REMARK                         _______ _______ _______ _____ _____    ______ ____
ROOT
ATOM      1  N   UNL     1       1.056   2.047   0.011  0.00  0.00    -0.210 N 
ATOM      2  C   UNL     1       0.714   3.344  -0.247  0.00  0.00    +0.229 C 
ATOM      3  O   UNL     1       1.401   4.327  -0.070  0.00  0.00    -0.275 OA
ATOM      4  C   UNL     1      -0.678   3.308  -0.793  0.00  0.00    +0.077 C 
ATOM      5  C   UNL     1      -1.727   4.315  -0.355  0.00  0.00    -0.027 C 
ATOM      6  C   UNL     1      -2.624   2.068  -0.227  0.00  0.00    +0.044 C 
ATOM      7  C   UNL     1      -1.178   2.064   0.022  0.00  0.00    +0.086 C 
ATOM      8  C   UNL     1      -0.026   1.202   0.016  0.00  0.00    +0.229 C 
ATOM      9  O   UNL     1      -0.014  -0.010   0.011  0.00  0.00    -0.275 OA
ATOM     10  N   UNL     1      -2.962   3.522  -0.117  0.00  0.00    +0.395 N 
ATOM     11  H   UNL     1      -3.671   3.767  -0.818  0.00  0.00    -0.083 HD
ATOM     12  H   UNL     1      -3.326   3.723   0.822  0.00  0.00    -0.083 HD
ENDROOT
BRANCH   1  17
ATOM     13  C   UNL     1       4.719   2.114   0.460  0.00  0.00    +0.019 A 
ATOM     14  C   UNL     1       4.972   0.762   0.717  0.00  0.00    +0.011 A 
ATOM     15  C   UNL     1       3.930  -0.142   0.736  0.00  0.00    +0.003 A 
ATOM     16  C   UNL     1       2.634   0.284   0.509  0.00  0.00    +0.024 A 
ATOM     17  C   UNL     1       2.372   1.623   0.247  0.00  0.00    +0.045 A 
ATOM     18  C   UNL     1       3.409   2.541   0.224  0.00  0.00    +0.035 A 
BRANCH  13  20
ATOM     19  C   UNL     1       7.238   2.617   0.693  0.00  0.00    +0.091 C 
ATOM     20  C   UNL     1       5.827   3.082   0.438  0.00  0.00    +0.160 C 
ATOM     21  O   UNL     1       5.605   4.253   0.216  0.00  0.00    -0.292 OA
ENDBRANCH  13  20
ENDBRANCH   1  17
BRANCH   5  22
ATOM     22  C   UNL     1      -1.292   5.000   0.914  0.00  0.00    -0.060 A 
ATOM     23  C   UNL     1      -1.548   4.411   2.139  0.00  0.00    +0.004 A 
ATOM     24  C   UNL     1      -1.146   5.034   3.304  0.00  0.00    +0.023 A 
ATOM     25  C   UNL     1      -0.493   6.258   3.246  0.00  0.00    +0.029 A 
ATOM     26  C   UNL     1      -0.241   6.850   2.014  0.00  0.00    +0.023 A 
ATOM     27  C   UNL     1      -0.641   6.219   0.853  0.00  0.00    +0.004 A 
BRANCH  25  28
ATOM     28  N   UNL     1      -0.090   6.894   4.423  0.00  0.00    -0.336 N 
ATOM     29  C   UNL     1       0.599   8.185   4.359  0.00  0.00    +0.129 C 
ATOM     30  C   UNL     1      -0.356   6.268   5.721  0.00  0.00    +0.129 C 
ENDBRANCH  25  28
ENDBRANCH   5  22
BRANCH   6  31
ATOM     31  C   UNL     1      -3.354   1.262   0.817  0.00  0.00    +0.297 C 
ATOM     32  O   UNL     1      -2.810   0.320   1.341  0.00  0.00    -0.252 OA
BRANCH  31  33
ATOM     33  O   UNL     1      -4.608   1.592   1.163  0.00  0.00    -0.469 OA
ATOM     34  C   UNL     1      -5.250   0.771   2.175  0.00  0.00    +0.280 C 
ENDBRANCH  31  33
ENDBRANCH   6  31
BRANCH   6  35
ATOM     35  C   UNL     1      -2.934   1.543  -1.630  0.00  0.00    +0.010 C 
BRANCH  35  36
ATOM     36  C   UNL     1      -4.407   1.799  -1.957  0.00  0.00    +0.068 C 
BRANCH  36  37
ATOM     37  S   UNL     1      -4.774   1.176  -3.620  0.00  0.00    -0.164 S 
ATOM     38  C   UNL     1      -6.534   1.550  -3.851  0.00  0.00    +0.084 C 
ENDBRANCH  36  37
ENDBRANCH  35  36
ENDBRANCH   6  35
TORSDOF 9
