REMARK  Name = ZINC38635542
REMARK  13 active torsions:
REMARK  status: ('A' for Active; 'I' for Inactive)
REMARK    1  A    between atoms: C_1  and  C_2
REMARK    2  A    between atoms: C_4  and  N_26
REMARK    3  A    between atoms: C_7  and  N_8
REMARK    4  A    between atoms: N_9  and  C_10
REMARK    5  A    between atoms: C_13  and  N_18
REMARK    6  A    between atoms: C_14  and  N_17
REMARK    7  A    between atoms: C_15  and  N_16
REMARK    8  A    between atoms: N_19  and  C_20
REMARK    9  A    between atoms: N_27  and  C_28
REMARK   10  A    between atoms: C_32  and  N_34
REMARK   11  A    between atoms: N_34  and  C_35
REMARK   12  A    between atoms: N_34  and  C_36
REMARK   13  A    between atoms: N_34  and  C_37
REMARK                            x       y       z     vdW  Elec       q    Type
REMARK                         _______ _______ _______ _____ _____    ______ ____
ROOT
ATOM      1  N   UNL     1      -3.781  -0.197   1.277  0.00  0.00    -0.149 NA
ATOM      2  N   UNL     1      -3.851  -0.602   2.500  0.00  0.00    -0.147 NA
ENDROOT
BRANCH   1   9
ATOM      3  C   UNL     1      -3.709   0.780  -1.386  0.00  0.00    +0.046 C 
ATOM      4  C   UNL     1      -2.882  -0.395  -0.932  0.00  0.00    -0.021 A 
ATOM      5  C   UNL     1      -2.054  -1.029  -1.814  0.00  0.00    +0.035 A 
ATOM      6  C   UNL     1      -1.287  -2.120  -1.393  0.00  0.00    +0.087 A 
ATOM      7  C   UNL     1      -1.367  -2.563  -0.067  0.00  0.00    +0.032 A 
ATOM      8  C   UNL     1      -2.195  -1.930   0.815  0.00  0.00    +0.032 A 
ATOM      9  C   UNL     1      -2.958  -0.834   0.395  0.00  0.00    +0.089 A 
BRANCH   6  10
ATOM     10  N   UNL     1      -0.460  -2.754  -2.275  0.00  0.00    -0.149 NA
ATOM     11  N   UNL     1      -0.133  -2.177  -3.381  0.00  0.00    -0.149 NA
BRANCH  11  12
ATOM     12  C   UNL     1       0.032  -0.821  -3.421  0.00  0.00    +0.088 A 
ATOM     13  C   UNL     1       0.101  -0.158  -4.650  0.00  0.00    +0.029 A 
ATOM     14  C   UNL     1       0.267   1.210  -4.683  0.00  0.00    +0.004 A 
ATOM     15  C   UNL     1       0.366   1.927  -3.503  0.00  0.00    +0.022 A 
ATOM     16  C   UNL     1       0.299   1.278  -2.283  0.00  0.00    +0.017 A 
ATOM     17  C   UNL     1       0.127  -0.089  -2.234  0.00  0.00    +0.051 A 
BRANCH  16  18
ATOM     18  N   UNL     1       0.401   2.011  -1.097  0.00  0.00    -0.390 NA
ATOM     19  C   UNL     1       0.417   3.446  -1.407  0.00  0.00    +0.109 C 
ATOM     20  C   UNL     1      -0.750   1.709  -0.234  0.00  0.00    +0.109 C 
ATOM     21  C   UNL     1       1.643   1.647  -0.401  0.00  0.00    +0.109 C 
ENDBRANCH  16  18
ENDBRANCH  11  12
ENDBRANCH   6  10
ENDBRANCH   1   9
BRANCH   2  22
ATOM     22  C   UNL     1      -4.672   0.034   3.381  0.00  0.00    +0.109 A 
ATOM     23  C   UNL     1      -5.446   1.124   2.958  0.00  0.00    +0.033 A 
ATOM     24  C   UNL     1      -6.270   1.765   3.832  0.00  0.00    +0.033 A 
ATOM     25  C   UNL     1      -6.354   1.342   5.167  0.00  0.00    +0.109 A 
ATOM     26  C   UNL     1      -5.588   0.253   5.607  0.00  0.00    +0.075 A 
ATOM     27  C   UNL     1      -4.749  -0.406   4.712  0.00  0.00    +0.075 A 
BRANCH  27  28
ATOM     28  N   UNL     1      -3.986  -1.493   5.136  0.00  0.00    -0.355 N 
ATOM     29  H   UNL     1      -3.400  -1.948   4.511  0.00  0.00    +0.142 HD
ATOM     30  H   UNL     1      -4.041  -1.795   6.056  0.00  0.00    +0.142 HD
ENDBRANCH  27  28
BRANCH  26  31
ATOM     31  N   UNL     1      -5.668  -0.171   6.934  0.00  0.00    -0.355 N 
ATOM     32  H   UNL     1      -6.256   0.288   7.554  0.00  0.00    +0.142 HD
ATOM     33  H   UNL     1      -5.137  -0.924   7.236  0.00  0.00    +0.142 HD
ENDBRANCH  26  31
BRANCH  25  34
ATOM     34  N   UNL     1      -7.181   1.989   6.036  0.00  0.00    -0.147 NA
ATOM     35  N   UNL     1      -7.886   2.990   5.631  0.00  0.00    -0.149 NA
BRANCH  35  36
ATOM     36  C   UNL     1      -8.714   3.639   6.502  0.00  0.00    +0.086 A 
ATOM     37  C   UNL     1      -8.796   3.224   7.834  0.00  0.00    +0.029 A 
ATOM     38  C   UNL     1      -9.635   3.885   8.708  0.00  0.00    +0.002 A 
ATOM     39  C   UNL     1     -10.393   4.955   8.268  0.00  0.00    +0.000 A 
ATOM     40  C   UNL     1     -10.318   5.372   6.951  0.00  0.00    +0.002 A 
ATOM     41  C   UNL     1      -9.480   4.725   6.067  0.00  0.00    +0.029 A 
ENDBRANCH  35  36
ENDBRANCH  25  34
ENDBRANCH   2  22
TORSDOF 9
