REMARK  Name = ZINC04453408
REMARK  10 active torsions:
REMARK  status: ('A' for Active; 'I' for Inactive)
REMARK    1  A    between atoms: C_1  and  C_2
REMARK    2  A    between atoms: C_2  and  C_3
REMARK    3  A    between atoms: C_2  and  C_4
REMARK    4  A    between atoms: C_2  and  C_5
REMARK    5  A    between atoms: C_12  and  N_27
REMARK    6  A    between atoms: C_13  and  C_25
REMARK    7  A    between atoms: C_14  and  C_16
REMARK    8  A    between atoms: C_19  and  O_23
REMARK    9  A    between atoms: C_20  and  O_22
REMARK   10  A    between atoms: O_23  and  C_24
REMARK                            x       y       z     vdW  Elec       q    Type
REMARK                         _______ _______ _______ _____ _____    ______ ____
ROOT
ATOM      1  C   UNL     1       1.132  -0.394  -1.437  0.00  0.00    +0.049 A 
ATOM      2  C   UNL     1       1.131  -1.696  -1.761  0.00  0.00    +0.050 A 
ATOM      3  C   UNL     1       1.845  -1.847  -2.970  0.00  0.00    +0.245 A 
ATOM      4  N   UNL     1       2.255  -0.671  -3.346  0.00  0.00    -0.135 NA
ATOM      5  N   UNL     1       1.814   0.268  -2.400  0.00  0.00    -0.277 N 
ATOM      6  H   UNL     1       1.973   1.225  -2.430  0.00  0.00    +0.189 HD
ATOM      7  O   UNL     1       2.016  -3.061  -3.559  0.00  0.00    -0.421 OA
ATOM      8  C   UNL     1       1.260  -4.082  -3.108  0.00  0.00    +0.201 C 
ATOM      9  C   UNL     1       0.546  -4.058  -1.964  0.00  0.00    +0.098 C 
ATOM     10  C   UNL     1       0.515  -2.867  -1.039  0.00  0.00    +0.101 C 
ENDROOT
BRANCH  10  11
ATOM     11  C   UNL     1       1.305  -3.169   0.208  0.00  0.00    -0.031 A 
ATOM     12  C   UNL     1       2.687  -3.198   0.159  0.00  0.00    +0.008 A 
ATOM     13  C   UNL     1       3.416  -3.475   1.300  0.00  0.00    +0.050 A 
ATOM     14  C   UNL     1       2.763  -3.725   2.496  0.00  0.00    +0.161 A 
ATOM     15  C   UNL     1       1.373  -3.695   2.546  0.00  0.00    +0.159 A 
ATOM     16  C   UNL     1       0.647  -3.412   1.399  0.00  0.00    +0.053 A 
BRANCH  15  17
ATOM     17  O   UNL     1       0.727  -3.939   3.718  0.00  0.00    -0.503 OA
ATOM     18  H   UNL     1       0.566  -3.148   4.250  0.00  0.00    +0.292 HD
ENDBRANCH  15  17
BRANCH  14  19
ATOM     19  O   UNL     1       3.479  -3.998   3.619  0.00  0.00    -0.491 OA
ATOM     20  C   UNL     1       4.903  -4.012   3.494  0.00  0.00    +0.277 C 
ENDBRANCH  14  19
ENDBRANCH  10  11
BRANCH   1  22
ATOM     21  C   UNL     1       0.610   1.744  -0.294  0.00  0.00    +0.017 C 
ATOM     22  C   UNL     1       0.483   0.221  -0.223  0.00  0.00    +0.004 C 
ATOM     23  C   UNL     1       1.178  -0.291   1.040  0.00  0.00    +0.017 C 
ATOM     24  C   UNL     1      -0.996  -0.167  -0.184  0.00  0.00    +0.017 C 
ENDBRANCH   1  22
BRANCH   8  25
ATOM     25  N   UNL     1       1.213  -5.226  -3.866  0.00  0.00    -0.328 N 
ATOM     26  H   UNL     1       1.714  -5.279  -4.695  0.00  0.00    +0.145 HD
ATOM     27  H   UNL     1       0.680  -5.980  -3.572  0.00  0.00    +0.145 HD
ENDBRANCH   8  25
BRANCH   9  28
ATOM     28  C   UNL     1      -0.217  -5.216  -1.610  0.00  0.00    +0.101 C 
ATOM     29  N   UNL     1      -0.823  -6.136  -1.330  0.00  0.00    -0.191 NA
ENDBRANCH   9  28
TORSDOF 6
