REMARK  Name = ZINC23408224
REMARK  6 active torsions:
REMARK  status: ('A' for Active; 'I' for Inactive)
REMARK    1  A    between atoms: C_1  and  C_2
REMARK    2  A    between atoms: C_7  and  S_15
REMARK    3  A    between atoms: S_15  and  C_16
REMARK    4  A    between atoms: C_16  and  C_18
REMARK    5  A    between atoms: C_16  and  C_19
REMARK    6  A    between atoms: C_25  and  C_28
REMARK                            x       y       z     vdW  Elec       q    Type
REMARK                         _______ _______ _______ _____ _____    ______ ____
ROOT
ATOM      1  S   UNL     1       3.975  -2.664  -0.050  0.00  0.00    -0.073 S 
ENDROOT
BRANCH   1   8
ATOM      2  C   UNL     1      -2.577  -0.071   0.026  0.00  0.00    +0.044 C 
ATOM      3  C   UNL     1      -1.245  -0.775   0.009  0.00  0.00    -0.038 A 
ATOM      4  C   UNL     1      -1.185  -2.126   0.001  0.00  0.00    +0.052 A 
ATOM      5  C   UNL     1       0.067  -2.786  -0.015  0.00  0.00    +0.162 A 
ATOM      6  N   UNL     1       0.398  -4.065  -0.025  0.00  0.00    -0.129 NA
ATOM      7  N   UNL     1       1.678  -4.183  -0.038  0.00  0.00    -0.122 NA
ATOM      8  C   UNL     1       2.245  -2.997  -0.036  0.00  0.00    +0.197 A 
ATOM      9  N   UNL     1       1.243  -2.071  -0.021  0.00  0.00    -0.270 N 
ATOM     10  C   UNL     1       1.231  -0.687  -0.013  0.00  0.00    +0.058 A 
ATOM     11  C   UNL     1       0.002  -0.004   0.002  0.00  0.00    +0.002 A 
ATOM     12  C   UNL     1      -0.017   1.393   0.010  0.00  0.00    +0.010 A 
ATOM     13  C   UNL     1       1.170   2.092   0.002  0.00  0.00    +0.001 A 
ATOM     14  C   UNL     1       2.381   1.416  -0.013  0.00  0.00    +0.002 A 
ATOM     15  C   UNL     1       2.416   0.037  -0.021  0.00  0.00    +0.027 A 
ENDBRANCH   1   8
BRANCH   1  16
ATOM     16  C   UNL     1       4.620  -4.356  -0.066  0.00  0.00    +0.137 C 
ATOM     17  C   UNL     1       4.243  -5.058   1.241  0.00  0.00    +0.029 C 
BRANCH  16  18
ATOM     18  C   UNL     1       6.120  -4.320  -0.203  0.00  0.00    +0.229 C 
ATOM     19  O   UNL     1       6.739  -3.344   0.163  0.00  0.00    -0.274 OA
ATOM     20  N   UNL     1       6.774  -5.374  -0.731  0.00  0.00    -0.300 N 
ATOM     21  C   UNL     1       6.038  -6.566  -1.173  0.00  0.00    +0.108 C 
ATOM     22  C   UNL     1       6.422  -6.866  -2.629  0.00  0.00    +0.020 C 
ATOM     23  C   UNL     1       7.944  -6.993  -2.734  0.00  0.00    +0.016 C 
ATOM     24  C   UNL     1       8.596  -5.670  -2.326  0.00  0.00    +0.092 C 
ATOM     25  C   UNL     1       8.236  -5.354  -0.871  0.00  0.00    +0.120 C 
BRANCH  24  26
ATOM     26  C   UNL     1      10.093  -5.785  -2.460  0.00  0.00    +0.215 C 
ATOM     27  O   UNL     1      10.803  -5.630  -1.489  0.00  0.00    -0.276 OA
ATOM     28  N   UNL     1      10.643  -6.060  -3.659  0.00  0.00    -0.329 N 
ATOM     29  H   UNL     1      11.735  -6.144  -3.757  0.00  0.00    +0.145 HD
ATOM     30  H   UNL     1       9.999  -6.200  -4.540  0.00  0.00    +0.145 HD
ENDBRANCH  24  26
ENDBRANCH  16  18
ENDBRANCH   1  16
TORSDOF 4
