REMARK  Name = ZINC21239061
REMARK  12 active torsions:
REMARK  status: ('A' for Active; 'I' for Inactive)
REMARK    1  A    between atoms: C_1  and  C_2
REMARK    2  A    between atoms: C_2  and  C_4
REMARK    3  A    between atoms: C_2  and  N_11
REMARK    4  A    between atoms: C_12  and  C_14
REMARK    5  A    between atoms: C_14  and  C_16
REMARK    6  A    between atoms: C_14  and  O_17
REMARK    7  A    between atoms: O_17  and  C_18
REMARK    8  A    between atoms: C_18  and  C_20
REMARK    9  A    between atoms: C_22  and  C_29
REMARK   10  A    between atoms: C_24  and  N_26
REMARK   11  A    between atoms: C_29  and  O_31
REMARK   12  A    between atoms: O_31  and  C_32
REMARK                            x       y       z     vdW  Elec       q    Type
REMARK                         _______ _______ _______ _____ _____    ______ ____
ROOT
ATOM      1  O   UNL     1      -3.867  -6.198   0.005  0.00  0.00    -0.449 OA
ENDROOT
BRANCH   1   2
ATOM      2  C   UNL     1      -5.180  -6.817   0.014  0.00  0.00    +0.259 C 
ATOM      3  C   UNL     1      -5.628  -7.042   1.460  0.00  0.00    +0.062 C 
BRANCH   2   5
ATOM      4  N   UNL     1      -6.244  -8.850  -0.909  0.00  0.00    -0.306 N 
ATOM      5  C   UNL     1      -5.117  -8.140  -0.704  0.00  0.00    +0.254 C 
ATOM      6  O   UNL     1      -4.051  -8.566  -1.097  0.00  0.00    -0.272 OA
ATOM      7  H   UNL     1      -7.210  -8.464  -0.553  0.00  0.00    +0.149 HD
BRANCH   4   9
ATOM      8  C   UNL     1      -6.230  -9.900  -3.118  0.00  0.00    +0.033 C 
ATOM      9  C   UNL     1      -6.182 -10.137  -1.608  0.00  0.00    +0.100 C 
BRANCH   9  10
ATOM     10  C   UNL     1      -7.354 -10.989  -1.195  0.00  0.00    -0.027 A 
ATOM     11  C   UNL     1      -8.600 -10.414  -1.025  0.00  0.00    +0.008 A 
ATOM     12  C   UNL     1      -9.677 -11.196  -0.652  0.00  0.00    +0.038 A 
ATOM     13  C   UNL     1      -9.505 -12.553  -0.437  0.00  0.00    +0.123 A 
ATOM     14  C   UNL     1      -8.256 -13.126  -0.602  0.00  0.00    +0.038 A 
ATOM     15  C   UNL     1      -7.181 -12.344  -0.981  0.00  0.00    +0.008 A 
ATOM     16  F   UNL     1     -10.556 -13.317  -0.066  0.00  0.00    -0.205 F 
ENDBRANCH   9  10
ENDBRANCH   4   9
ENDBRANCH   2   5
ENDBRANCH   1   2
BRANCH   1  17
ATOM     17  C   UNL     1      -3.825  -4.851   0.012  0.00  0.00    +0.340 C 
ATOM     18  O   UNL     1      -4.858  -4.212   0.025  0.00  0.00    -0.245 OA
BRANCH  17  19
ATOM     19  C   UNL     1      -2.524  -4.152   0.004  0.00  0.00    +0.062 A 
ATOM     20  C   UNL     1      -2.479  -2.759   0.011  0.00  0.00    +0.030 A 
ATOM     21  C   UNL     1      -1.247  -2.108   0.003  0.00  0.00    +0.062 A 
ATOM     22  C   UNL     1      -0.066  -2.855  -0.018  0.00  0.00    +0.047 A 
ATOM     23  C   UNL     1      -0.117  -4.234  -0.019  0.00  0.00    +0.128 A 
ATOM     24  C   UNL     1      -1.335  -4.886  -0.011  0.00  0.00    +0.047 A 
BRANCH  23  25
ATOM     25  N   UNL     1       1.138  -5.019  -0.036  0.00  0.00    +0.056 N 
ATOM     26  O   UNL     1       1.095  -6.236  -0.043  0.00  0.00    -0.126 OA
ATOM     27  O   UNL     1       2.213  -4.447  -0.043  0.00  0.00    -0.126 OA
ENDBRANCH  23  25
BRANCH  21  28
ATOM     28  C   UNL     1      -1.190  -0.632   0.010  0.00  0.00    +0.339 C 
ATOM     29  O   UNL     1      -2.217   0.016   0.023  0.00  0.00    -0.245 OA
BRANCH  28  30
ATOM     30  O   UNL     1       0.002  -0.004   0.002  0.00  0.00    -0.464 OA
ATOM     31  C   UNL     1      -0.018   1.448   0.010  0.00  0.00    +0.280 C 
ENDBRANCH  28  30
ENDBRANCH  21  28
ENDBRANCH  17  19
ENDBRANCH   1  17
TORSDOF 9
