REMARK  Name = ZINC26371609
REMARK  8 active torsions:
REMARK  status: ('A' for Active; 'I' for Inactive)
REMARK    1  A    between atoms: C_1  and  C_2
REMARK    2  A    between atoms: C_5  and  C_8
REMARK    3  A    between atoms: C_11  and  S_13
REMARK    4  A    between atoms: S_13  and  C_14
REMARK    5  A    between atoms: C_14  and  C_15
REMARK    6  A    between atoms: C_15  and  C_16
REMARK    7  A    between atoms: N_18  and  C_19
REMARK    8  A    between atoms: C_24  and  N_25
REMARK                            x       y       z     vdW  Elec       q    Type
REMARK                         _______ _______ _______ _____ _____    ______ ____
ROOT
ATOM      1  C   UNL     1      -6.005  -1.236   0.663  0.00  0.00    +0.088 C 
ENDROOT
BRANCH   1   2
ATOM      2  S   UNL     1      -7.627  -0.432   0.667  0.00  0.00    -0.065 S 
BRANCH   2   6
ATOM      3  C   UNL     1     -10.375  -3.097   1.298  0.00  0.00    +0.249 A 
ATOM      4  N   UNL     1      -9.284  -3.824   1.325  0.00  0.00    -0.106 NA
ATOM      5  N   UNL     1      -8.262  -3.069   1.127  0.00  0.00    -0.101 NA
ATOM      6  C   UNL     1      -8.660  -1.828   0.965  0.00  0.00    +0.278 A 
ATOM      7  O   UNL     1     -10.002  -1.817   1.076  0.00  0.00    -0.411 OA
BRANCH   3  12
ATOM      8  C   UNL     1     -15.756  -5.000   2.024  0.00  0.00    +0.044 C 
ATOM      9  C   UNL     1     -14.347  -4.502   1.833  0.00  0.00    -0.050 A 
ATOM     10  C   UNL     1     -13.288  -5.392   1.887  0.00  0.00    +0.004 A 
ATOM     11  C   UNL     1     -11.996  -4.942   1.714  0.00  0.00    +0.013 A 
ATOM     12  C   UNL     1     -11.757  -3.586   1.484  0.00  0.00    +0.039 A 
ATOM     13  C   UNL     1     -12.829  -2.693   1.436  0.00  0.00    +0.013 A 
ATOM     14  C   UNL     1     -14.117  -3.156   1.606  0.00  0.00    +0.004 A 
ENDBRANCH   3  12
ENDBRANCH   2   6
ENDBRANCH   1   2
BRANCH   1  15
ATOM     15  C   UNL     1      -4.918  -0.189   0.414  0.00  0.00    +0.107 C 
BRANCH  15  16
ATOM     16  C   UNL     1      -3.567  -0.859   0.411  0.00  0.00    +0.218 C 
ATOM     17  O   UNL     1      -3.483  -2.055   0.590  0.00  0.00    -0.275 OA
ATOM     18  N   UNL     1      -2.453  -0.128   0.209  0.00  0.00    -0.284 N 
ATOM     19  H   UNL     1      -2.520   0.968   0.133  0.00  0.00    +0.155 HD
BRANCH  18  20
ATOM     20  C   UNL     1      -1.211  -0.762   0.096  0.00  0.00    +0.064 A 
ATOM     21  C   UNL     1      -1.118  -2.005  -0.517  0.00  0.00    +0.025 A 
ATOM     22  C   UNL     1       0.109  -2.628  -0.628  0.00  0.00    +0.002 A 
ATOM     23  C   UNL     1       1.245  -2.016  -0.129  0.00  0.00    +0.002 A 
ATOM     24  C   UNL     1       1.156  -0.776   0.477  0.00  0.00    +0.034 A 
ATOM     25  C   UNL     1      -0.069  -0.150   0.596  0.00  0.00    +0.147 A 
BRANCH  25  26
ATOM     26  N   UNL     1      -0.165   1.174   1.250  0.00  0.00    +0.058 N 
ATOM     27  O   UNL     1       0.820   1.670   1.767  0.00  0.00    -0.126 OA
ATOM     28  O   UNL     1      -1.226   1.770   1.266  0.00  0.00    -0.126 OA
ENDBRANCH  25  26
ENDBRANCH  18  20
ENDBRANCH  15  16
ENDBRANCH   1  15
TORSDOF 7
