REMARK  Name = ZINC13062896
REMARK  13 active torsions:
REMARK  status: ('A' for Active; 'I' for Inactive)
REMARK    1  A    between atoms: C_1  and  C_2
REMARK    2  A    between atoms: C_2  and  C_3
REMARK    3  A    between atoms: C_2  and  C_4
REMARK    4  A    between atoms: C_4  and  N_5
REMARK    5  A    between atoms: C_6  and  N_37
REMARK    6  A    between atoms: C_7  and  N_14
REMARK    7  A    between atoms: N_14  and  C_15
REMARK    8  A    between atoms: C_15  and  C_16
REMARK    9  A    between atoms: C_16  and  C_17
REMARK   10  A    between atoms: C_16  and  C_18
REMARK   11  A    between atoms: C_19  and  C_21
REMARK   12  A    between atoms: C_21  and  N_73
REMARK   13  A    between atoms: C_25  and  C_27
REMARK                            x       y       z     vdW  Elec       q    Type
REMARK                         _______ _______ _______ _____ _____    ______ ____
ROOT
ATOM      1  N   UNL     1       3.828   2.846   5.030  0.00  0.00    -0.266 N 
ATOM      2  C   UNL     1       3.698   2.651   3.701  0.00  0.00    +0.203 C 
ATOM      3  O   UNL     1       4.530   2.006   3.099  0.00  0.00    -0.277 OA
ENDROOT
BRANCH   1   6
ATOM      4  N   UNL     1       6.808   2.313   7.113  0.00  0.00    -0.280 N 
ATOM      5  C   UNL     1       5.805   2.959   6.428  0.00  0.00    +0.127 A 
ATOM      6  C   UNL     1       4.872   2.213   5.737  0.00  0.00    +0.140 A 
ATOM      7  C   UNL     1       4.982   0.810   5.746  0.00  0.00    +0.277 A 
ATOM      8  O   UNL     1       4.174   0.127   5.141  0.00  0.00    -0.266 OA
ATOM      9  N   UNL     1       5.987   0.227   6.428  0.00  0.00    -0.273 N 
ATOM     10  H   UNL     1       6.067  -0.770   6.435  0.00  0.00    +0.173 HD
ATOM     11  C   UNL     1       6.885   0.970   7.100  0.00  0.00    +0.331 A 
ATOM     12  O   UNL     1       7.782   0.417   7.708  0.00  0.00    -0.246 OA
BRANCH   5  13
ATOM     13  N   UNL     1       5.731   4.331   6.435  0.00  0.00    -0.343 N 
ATOM     14  H   UNL     1       5.090   4.785   5.866  0.00  0.00    +0.144 HD
ATOM     15  H   UNL     1       6.320   4.846   7.009  0.00  0.00    +0.144 HD
ENDBRANCH   5  13
BRANCH   4  16
ATOM     16  C   UNL     1       7.801   3.092   7.856  0.00  0.00    +0.131 C 
BRANCH  16  18
ATOM     17  C   UNL     1       8.507   4.340   5.809  0.00  0.00    +0.009 C 
ATOM     18  C   UNL     1       8.980   3.422   6.938  0.00  0.00    +0.003 C 
ATOM     19  C   UNL     1      10.073   4.127   7.745  0.00  0.00    +0.009 C 
ENDBRANCH  16  18
ENDBRANCH   4  16
ENDBRANCH   1   6
BRANCH   1  20
ATOM     20  C   UNL     1       2.885   3.715   5.739  0.00  0.00    +0.117 C 
BRANCH  20  21
ATOM     21  C   UNL     1       1.657   2.902   6.157  0.00  0.00    +0.001 C 
ATOM     22  C   UNL     1       2.068   1.853   7.192  0.00  0.00    +0.009 C 
ATOM     23  C   UNL     1       0.610   3.837   6.765  0.00  0.00    +0.009 C 
ENDBRANCH  20  21
ENDBRANCH   1  20
BRANCH   2  24
ATOM     24  C   UNL     1       2.519   3.235   2.966  0.00  0.00    +0.020 C 
BRANCH  24  29
ATOM     25  C   UNL     1       3.652   3.691   0.856  0.00  0.00    -0.077 C 
ATOM     26  C   UNL     1       3.272   3.631  -0.639  0.00  0.00    -0.020 C 
ATOM     27  C   UNL     1       1.759   3.329  -0.657  0.00  0.00    -0.013 C 
ATOM     28  C   UNL     1       1.352   3.233   0.829  0.00  0.00    -0.037 C 
ATOM     29  N   UNL     1       2.609   2.901   1.509  0.00  0.00    +0.390 N 
ATOM     30  H   UNL     1       2.811   1.900   1.405  0.00  0.00    -0.080 HD
BRANCH  28  31
ATOM     31  C   UNL     1       0.321   2.151   1.022  0.00  0.00    -0.057 A 
ATOM     32  C   UNL     1       0.706   0.823   1.028  0.00  0.00    +0.006 A 
ATOM     33  C   UNL     1      -0.237  -0.172   1.204  0.00  0.00    +0.049 A 
ATOM     34  C   UNL     1      -1.574   0.160   1.370  0.00  0.00    +0.162 A 
ATOM     35  C   UNL     1      -1.960   1.494   1.372  0.00  0.00    +0.162 A 
ATOM     36  C   UNL     1      -1.009   2.488   1.193  0.00  0.00    +0.051 A 
ATOM     37  O   UNL     1      -3.264   1.842   1.548  0.00  0.00    -0.485 OA
ATOM     38  C   UNL     1      -4.238   0.810   1.333  0.00  0.00    +0.270 C 
ATOM     39  C   UNL     1      -3.763  -0.450   2.070  0.00  0.00    +0.270 C 
ATOM     40  O   UNL     1      -2.492  -0.832   1.531  0.00  0.00    -0.485 OA
ENDBRANCH  28  31
ENDBRANCH  24  29
ENDBRANCH   2  24
TORSDOF 9
