REMARK  Name = ZINC63948616
REMARK  5 active torsions:
REMARK  status: ('A' for Active; 'I' for Inactive)
REMARK    1  A    between atoms: C_1  and  O_2
REMARK    2  A    between atoms: O_2  and  C_3
REMARK    3  A    between atoms: C_6  and  N_9
REMARK    4  A    between atoms: C_11  and  C_16
REMARK    5  A    between atoms: N_18  and  C_19
REMARK                            x       y       z     vdW  Elec       q    Type
REMARK                         _______ _______ _______ _____ _____    ______ ____
ROOT
ATOM      1  C   UNL     1       3.376  -5.329   6.384  0.00  0.00    +0.221 C 
ATOM      2  O   UNL     1       2.311  -5.901   6.282  0.00  0.00    -0.275 OA
ATOM      3  N   UNL     1       4.250  -5.698   7.340  0.00  0.00    -0.278 N 
ATOM      4  H   UNL     1       5.102  -5.241   7.421  0.00  0.00    +0.152 HD
ENDROOT
BRANCH   3   5
ATOM      5  C   UNL     1       3.915  -6.791   8.256  0.00  0.00    +0.269 C 
ATOM      6  N   UNL     1       4.105  -8.085   7.589  0.00  0.00    -0.348 N 
ATOM      7  C   UNL     1       5.007  -8.742   8.260  0.00  0.00    +0.061 A 
ATOM      8  C   UNL     1       5.610 -10.070   8.087  0.00  0.00    +0.027 A 
ATOM      9  C   UNL     1       6.544 -10.496   8.961  0.00  0.00    +0.002 A 
ATOM     10  C   UNL     1       6.976  -9.716  10.048  0.00  0.00    +0.002 A 
ATOM     11  C   UNL     1       6.488  -8.485  10.299  0.00  0.00    +0.027 A 
ATOM     12  C   UNL     1       5.463  -7.916   9.411  0.00  0.00    +0.061 A 
ATOM     13  N   UNL     1       4.827  -6.781   9.407  0.00  0.00    -0.348 N 
ATOM     14  H   UNL     1       3.644  -8.394   6.794  0.00  0.00    +0.163 HD
ATOM     15  H   UNL     1       4.935  -6.060  10.047  0.00  0.00    +0.163 HD
ENDBRANCH   3   5
BRANCH   1  18
ATOM     16  N   UNL     1       2.540  -2.503   4.231  0.00  0.00    -0.271 N 
ATOM     17  C   UNL     1       2.575  -3.957   4.434  0.00  0.00    +0.127 C 
ATOM     18  C   UNL     1       3.720  -4.205   5.441  0.00  0.00    +0.101 C 
ATOM     19  C   UNL     1       3.781  -2.853   6.189  0.00  0.00    +0.110 C 
ATOM     20  C   UNL     1       3.210  -1.859   5.202  0.00  0.00    +0.221 C 
ATOM     21  O   UNL     1       3.336  -0.654   5.277  0.00  0.00    -0.275 OA
BRANCH  16  25
ATOM     22  C   UNL     1       0.626  -0.619   1.042  0.00  0.00    +0.120 A 
ATOM     23  C   UNL     1       1.190   0.139   2.058  0.00  0.00    +0.047 A 
ATOM     24  C   UNL     1       1.824  -0.484   3.115  0.00  0.00    +0.027 A 
ATOM     25  C   UNL     1       1.897  -1.870   3.160  0.00  0.00    +0.036 A 
ATOM     26  C   UNL     1       1.333  -2.628   2.142  0.00  0.00    +0.027 A 
ATOM     27  C   UNL     1       0.694  -2.003   1.089  0.00  0.00    +0.047 A 
BRANCH  22  29
ATOM     28  C   UNL     1      -0.030   1.425   0.018  0.00  0.00    +0.277 C 
ATOM     29  O   UNL     1       0.002  -0.004   0.002  0.00  0.00    -0.495 OA
ENDBRANCH  22  29
ENDBRANCH  16  25
ENDBRANCH   1  18
TORSDOF 4
