REMARK  Name = ZINC11644983
REMARK  10 active torsions:
REMARK  status: ('A' for Active; 'I' for Inactive)
REMARK    1  A    between atoms: C_1  and  C_2
REMARK    2  A    between atoms: C_5  and  C_8
REMARK    3  A    between atoms: C_11  and  C_13
REMARK    4  A    between atoms: C_13  and  C_14
REMARK    5  A    between atoms: C_14  and  C_15
REMARK    6  A    between atoms: C_15  and  O_17
REMARK    7  A    between atoms: O_17  and  C_18
REMARK    8  A    between atoms: C_18  and  C_19
REMARK    9  A    between atoms: N_21  and  N_22
REMARK   10  A    between atoms: C_28  and  C_31
REMARK                            x       y       z     vdW  Elec       q    Type
REMARK                         _______ _______ _______ _____ _____    ______ ____
ROOT
ATOM      1  C   UNL     1      -4.526  -3.357   2.556  0.00  0.00    +0.329 C 
ENDROOT
BRANCH   1   2
ATOM      2  C   UNL     1      -4.977  -3.705   3.951  0.00  0.00    +0.267 C 
ATOM      3  O   UNL     1      -4.372  -3.273   4.910  0.00  0.00    -0.271 OA
ATOM      4  N   UNL     1      -6.052  -4.496   4.134  0.00  0.00    -0.221 N 
ATOM      5  H   UNL     1      -6.536  -4.841   3.368  0.00  0.00    +0.174 HD
BRANCH   4   6
ATOM      6  N   UNL     1      -6.472  -4.820   5.431  0.00  0.00    -0.137 N 
ATOM      7  C   UNL     1      -7.553  -4.283   6.035  0.00  0.00    +0.263 C 
ATOM      8  O   UNL     1      -8.316  -3.461   5.576  0.00  0.00    -0.271 OA
ATOM      9  C   UNL     1      -7.611  -4.923   7.402  0.00  0.00    +0.114 C 
ATOM     10  C   UNL     1      -8.908  -5.707   7.567  0.00  0.00    +0.035 C 
ATOM     11  C   UNL     1      -8.935  -6.371   8.947  0.00  0.00    +0.006 C 
ATOM     12  C   UNL     1      -8.827  -5.296  10.030  0.00  0.00    -0.014 C 
ATOM     13  C   UNL     1      -7.510  -4.535   9.867  0.00  0.00    +0.006 C 
ATOM     14  C   UNL     1      -7.477  -3.864   8.491  0.00  0.00    +0.035 C 
ATOM     15  C   UNL     1      -8.866  -5.957  11.410  0.00  0.00    +0.007 C 
ATOM     16  N   UNL     1      -6.455  -5.830   7.421  0.00  0.00    -0.284 N 
ATOM     17  C   UNL     1      -5.853  -5.704   6.223  0.00  0.00    +0.326 C 
ATOM     18  O   UNL     1      -4.858  -6.322   5.899  0.00  0.00    -0.251 OA
ATOM     19  H   UNL     1      -6.182  -6.408   8.151  0.00  0.00    +0.151 HD
ENDBRANCH   4   6
ENDBRANCH   1   2
BRANCH   1  20
ATOM     20  O   UNL     1      -3.356  -2.499   2.626  0.00  0.00    -0.455 OA
BRANCH  20  21
ATOM     21  C   UNL     1      -2.826  -2.096   1.460  0.00  0.00    +0.308 C 
ATOM     22  O   UNL     1      -3.323  -2.448   0.417  0.00  0.00    -0.251 OA
BRANCH  21  23
ATOM     23  C   UNL     1      -1.611  -1.205   1.454  0.00  0.00    +0.130 C 
BRANCH  23  24
ATOM     24  C   UNL     1      -1.213  -0.895   0.009  0.00  0.00    +0.107 C 
BRANCH  24  28
ATOM     25  C   UNL     1       1.265   1.764  -0.001  0.00  0.00    +0.155 A 
ATOM     26  C   UNL     1       2.050   0.657  -0.014  0.00  0.00    +0.161 A 
ATOM     27  N   UNL     1       1.240  -0.412  -0.012  0.00  0.00    -0.221 NA
ATOM     28  C   UNL     1       0.002  -0.004   0.002  0.00  0.00    +0.197 A 
ATOM     29  O   UNL     1      -0.016   1.336   0.009  0.00  0.00    -0.440 OA
BRANCH  25  34
ATOM     30  C   UNL     1       3.053   7.234   0.010  0.00  0.00    +0.044 C 
ATOM     31  C   UNL     1       2.584   5.802   0.007  0.00  0.00    -0.050 A 
ATOM     32  C   UNL     1       1.230   5.520   0.019  0.00  0.00    +0.004 A 
ATOM     33  C   UNL     1       0.795   4.210   0.016  0.00  0.00    +0.012 A 
ATOM     34  C   UNL     1       1.724   3.170   0.002  0.00  0.00    +0.019 A 
ATOM     35  C   UNL     1       3.089   3.461  -0.004  0.00  0.00    +0.012 A 
ATOM     36  C   UNL     1       3.511   4.774  -0.007  0.00  0.00    +0.004 A 
ENDBRANCH  25  34
ENDBRANCH  24  28
ENDBRANCH  23  24
ENDBRANCH  21  23
ENDBRANCH  20  21
ENDBRANCH   1  20
TORSDOF 8
