REMARK  Name = ZINC05281936
REMARK  11 active torsions:
REMARK  status: ('A' for Active; 'I' for Inactive)
REMARK    1  A    between atoms: C_1  and  C_2
REMARK    2  A    between atoms: C_2  and  C_3
REMARK    3  A    between atoms: C_2  and  C_4
REMARK    4  A    between atoms: C_2  and  C_5
REMARK    5  A    between atoms: C_7  and  N_10
REMARK    6  A    between atoms: C_11  and  C_13
REMARK    7  A    between atoms: C_13  and  O_14
REMARK    8  A    between atoms: O_14  and  C_15
REMARK    9  A    between atoms: C_15  and  C_17
REMARK   10  A    between atoms: C_17  and  N_18
REMARK   11  A    between atoms: C_19  and  C_21
REMARK                            x       y       z     vdW  Elec       q    Type
REMARK                         _______ _______ _______ _____ _____    ______ ____
ROOT
ATOM      1  C   UNL     1      -7.018   3.040   0.047  0.00  0.00    +0.325 C 
ATOM      2  O   UNL     1      -7.464   1.917   0.043  0.00  0.00    -0.249 OA
ENDROOT
BRANCH   1   3
ATOM      3  O   UNL     1      -5.690   3.235   0.043  0.00  0.00    -0.454 OA
BRANCH   3   4
ATOM      4  C   UNL     1      -4.850   2.050   0.033  0.00  0.00    +0.328 C 
BRANCH   4   6
ATOM      5  N   UNL     1      -2.434   1.523   0.020  0.00  0.00    -0.251 N 
ATOM      6  C   UNL     1      -3.401   2.462   0.029  0.00  0.00    +0.257 C 
ATOM      7  O   UNL     1      -3.104   3.638   0.034  0.00  0.00    -0.272 OA
ATOM      8  H   UNL     1      -2.671   0.583   0.016  0.00  0.00    +0.158 HD
BRANCH   5  11
ATOM      9  C   UNL     1       1.086   1.959   0.002  0.00  0.00    +0.091 A 
ATOM     10  C   UNL     1      -0.013   1.076   0.008  0.00  0.00    +0.092 A 
ATOM     11  C   UNL     1      -1.099   1.902   0.017  0.00  0.00    +0.224 A 
ATOM     12  O   UNL     1      -0.618   3.155   0.024  0.00  0.00    -0.339 OA
ATOM     13  N   UNL     1       0.591   3.165   0.013  0.00  0.00    -0.081 NA
BRANCH   9  15
ATOM     14  C   UNL     1       2.933   1.101  -1.412  0.00  0.00    +0.017 C 
ATOM     15  C   UNL     1       2.545   1.583  -0.013  0.00  0.00    +0.008 C 
ATOM     16  C   UNL     1       3.390   2.804   0.359  0.00  0.00    +0.017 C 
ATOM     17  C   UNL     1       2.793   0.464   1.000  0.00  0.00    +0.017 C 
ENDBRANCH   9  15
ENDBRANCH   5  11
ENDBRANCH   4   6
ENDBRANCH   3   4
ENDBRANCH   1   3
BRANCH   1  18
ATOM     18  C   UNL     1      -7.953   4.222   0.057  0.00  0.00    +0.224 C 
BRANCH  18  19
ATOM     19  N   UNL     1      -9.339   3.749   0.060  0.00  0.00    -0.304 N 
ATOM     20  C   UNL     1     -10.354   4.635   0.069  0.00  0.00    +0.220 C 
ATOM     21  O   UNL     1     -10.120   5.825   0.074  0.00  0.00    -0.275 OA
ATOM     22  H   UNL     1      -9.527   2.797   0.056  0.00  0.00    +0.149 HD
BRANCH  20  23
ATOM     23  C   UNL     1     -11.780   4.148   0.072  0.00  0.00    +0.048 C 
ATOM     24  C   UNL     1     -12.035   3.307  -1.180  0.00  0.00    +0.019 C 
ATOM     25  C   UNL     1     -13.483   2.813  -1.177  0.00  0.00    -0.009 C 
ATOM     26  C   UNL     1     -14.432   4.013  -1.167  0.00  0.00    +0.007 C 
ATOM     27  C   UNL     1     -14.177   4.854   0.086  0.00  0.00    -0.009 C 
ATOM     28  C   UNL     1     -12.729   5.348   0.083  0.00  0.00    +0.019 C 
ATOM     29  C   UNL     1     -14.421   4.000   1.332  0.00  0.00    +0.007 C 
ATOM     30  C   UNL     1     -13.472   2.800   1.322  0.00  0.00    -0.009 C 
ATOM     31  C   UNL     1     -13.727   1.959   0.069  0.00  0.00    +0.007 C 
ATOM     32  C   UNL     1     -12.024   3.294   1.318  0.00  0.00    +0.019 C 
ENDBRANCH  20  23
ENDBRANCH  18  19
ENDBRANCH   1  18
TORSDOF 8
