REMARK  Name = ZINC63695209
REMARK  5 active torsions:
REMARK  status: ('A' for Active; 'I' for Inactive)
REMARK    1  A    between atoms: C_1  and  C_2
REMARK    2  A    between atoms: C_2  and  C_4
REMARK    3  A    between atoms: C_2  and  N_12
REMARK    4  A    between atoms: C_13  and  C_15
REMARK    5  A    between atoms: N_18  and  C_21
REMARK                            x       y       z     vdW  Elec       q    Type
REMARK                         _______ _______ _______ _____ _____    ______ ____
ROOT
ATOM      1  C   UNL     1       2.896  -0.804   2.376  0.00  0.00    +0.077 C 
ATOM      2  C   UNL     1       2.449  -2.174   2.894  0.00  0.00    +0.028 C 
ATOM      3  C   UNL     1       3.293  -2.553   4.112  0.00  0.00    +0.089 C 
ATOM      4  N   UNL     1       4.711  -2.593   3.733  0.00  0.00    -0.266 NA
ATOM      5  C   UNL     1       5.176  -1.277   3.277  0.00  0.00    +0.089 C 
ATOM      6  C   UNL     1       4.388  -0.859   2.034  0.00  0.00    +0.028 C 
ENDROOT
BRANCH   4   7
ATOM      7  C   UNL     1       5.539  -3.089   4.842  0.00  0.00    +0.252 C 
ATOM      8  N   UNL     1       5.453  -2.171   5.984  0.00  0.00    -0.351 N 
ATOM      9  C   UNL     1       6.653  -1.726   6.219  0.00  0.00    +0.061 A 
ATOM     10  C   UNL     1       7.196  -0.794   7.218  0.00  0.00    +0.027 A 
ATOM     11  C   UNL     1       8.515  -0.516   7.219  0.00  0.00    +0.002 A 
ATOM     12  C   UNL     1       9.411  -1.083   6.296  0.00  0.00    +0.002 A 
ATOM     13  C   UNL     1       9.018  -1.949   5.340  0.00  0.00    +0.027 A 
ATOM     14  C   UNL     1       7.602  -2.327   5.242  0.00  0.00    +0.061 A 
ATOM     15  N   UNL     1       6.951  -3.120   4.441  0.00  0.00    -0.351 N 
ATOM     16  H   UNL     1       4.649  -1.938   6.474  0.00  0.00    +0.163 HD
ATOM     17  H   UNL     1       7.330  -3.638   3.713  0.00  0.00    +0.163 HD
ENDBRANCH   4   7
BRANCH   1  19
ATOM     18  N   UNL     1       0.767  -0.346   1.203  0.00  0.00    -0.304 N 
ATOM     19  C   UNL     1       2.109  -0.451   1.140  0.00  0.00    +0.217 C 
ATOM     20  O   UNL     1       2.683  -0.263   0.089  0.00  0.00    -0.275 OA
ATOM     21  H   UNL     1       0.308  -0.497   2.044  0.00  0.00    +0.149 HD
BRANCH  18  23
ATOM     22  C   UNL     1      -0.033   1.518  -0.163  0.00  0.00    +0.038 C 
ATOM     23  C   UNL     1       0.002  -0.003   0.002  0.00  0.00    +0.156 C 
BRANCH  23  24
ATOM     24  C   UNL     1      -1.405  -0.526   0.137  0.00  0.00    +0.236 C 
ATOM     25  O   UNL     1      -1.838  -0.828   1.228  0.00  0.00    -0.274 OA
ATOM     26  N   UNL     1      -2.182  -0.659  -0.957  0.00  0.00    -0.300 N 
ATOM     27  C   UNL     1      -1.636  -0.410  -2.298  0.00  0.00    +0.108 C 
ATOM     28  C   UNL     1      -1.909  -1.635  -3.177  0.00  0.00    +0.019 C 
ATOM     29  C   UNL     1      -3.407  -1.948  -3.157  0.00  0.00    +0.003 C 
ATOM     30  C   UNL     1      -3.842  -2.274  -1.726  0.00  0.00    +0.019 C 
ATOM     31  C   UNL     1      -3.589  -1.063  -0.831  0.00  0.00    +0.108 C 
ENDBRANCH  23  24
ENDBRANCH  18  23
ENDBRANCH   1  19
TORSDOF 4
