REMARK  Name = ZINC12484968
REMARK  7 active torsions:
REMARK  status: ('A' for Active; 'I' for Inactive)
REMARK    1  A    between atoms: C_1  and  C_2
REMARK    2  A    between atoms: C_4  and  O_9
REMARK    3  A    between atoms: O_9  and  C_10
REMARK    4  A    between atoms: C_10  and  C_11
REMARK    5  A    between atoms: N_13  and  N_14
REMARK    6  A    between atoms: C_15  and  C_16
REMARK    7  A    between atoms: C_18  and  N_23
REMARK                            x       y       z     vdW  Elec       q    Type
REMARK                         _______ _______ _______ _____ _____    ______ ____
ROOT
ATOM      1  C   UNL     1      -3.693  -1.690   0.008  0.00  0.00    +0.270 C 
ATOM      2  O   UNL     1      -2.637  -2.287  -0.000  0.00  0.00    -0.270 OA
ATOM      3  N   UNL     1      -3.706  -0.342   0.016  0.00  0.00    -0.204 N 
ATOM      4  H   UNL     1      -4.550   0.136   0.023  0.00  0.00    +0.177 HD
ENDROOT
BRANCH   3   5
ATOM      5  N   UNL     1      -2.499   0.370   0.015  0.00  0.00    -0.188 NA
ATOM      6  C   UNL     1      -2.510   1.667   0.022  0.00  0.00    +0.139 C 
BRANCH   6   7
ATOM      7  C   UNL     1      -1.240   2.416   0.021  0.00  0.00    +0.015 A 
ATOM      8  C   UNL     1      -1.249   3.813   0.035  0.00  0.00    +0.043 A 
ATOM      9  C   UNL     1      -0.057   4.507   0.027  0.00  0.00    +0.127 A 
ATOM     10  C   UNL     1       1.146   3.823   0.011  0.00  0.00    +0.034 A 
ATOM     11  C   UNL     1       1.164   2.440   0.004  0.00  0.00    +0.023 A 
ATOM     12  C   UNL     1      -0.021   1.732   0.012  0.00  0.00    +0.050 A 
ATOM     13 CL   UNL     1       0.002  -0.004   0.002  0.00  0.00    -0.083 Cl
BRANCH   9  14
ATOM     14  N   UNL     1      -0.065   5.987   0.035  0.00  0.00    +0.056 N 
ATOM     15  O   UNL     1       0.987   6.602   0.027  0.00  0.00    -0.126 OA
ATOM     16  O   UNL     1      -1.123   6.590   0.048  0.00  0.00    -0.126 OA
ENDBRANCH   9  14
ENDBRANCH   6   7
ENDBRANCH   3   5
BRANCH   1  17
ATOM     17  C   UNL     1      -4.992  -2.455   0.009  0.00  0.00    +0.326 C 
BRANCH  17  18
ATOM     18  O   UNL     1      -4.718  -3.857   0.000  0.00  0.00    -0.483 OA
BRANCH  18  22
ATOM     19  C   UNL     1      -6.475  -8.411  -0.019  0.00  0.00    +0.045 C 
ATOM     20  C   UNL     1      -6.684  -6.918  -0.009  0.00  0.00    -0.033 A 
ATOM     21  C   UNL     1      -5.595  -6.069  -0.009  0.00  0.00    +0.050 A 
ATOM     22  C   UNL     1      -5.788  -4.695   0.000  0.00  0.00    +0.122 A 
ATOM     23  C   UNL     1      -7.075  -4.178   0.015  0.00  0.00    +0.047 A 
ATOM     24  C   UNL     1      -8.162  -5.030   0.009  0.00  0.00    +0.019 A 
ATOM     25  C   UNL     1      -7.967  -6.400  -0.000  0.00  0.00    +0.021 A 
ATOM     26 BR   UNL     1      -9.456  -7.566  -0.001  0.00  0.00    -0.050 Br
ENDBRANCH  18  22
ENDBRANCH  17  18
ENDBRANCH   1  17
TORSDOF 6
