REMARK  Name = ZINC40562305
REMARK  8 active torsions:
REMARK  status: ('A' for Active; 'I' for Inactive)
REMARK    1  A    between atoms: C_1  and  C_2
REMARK    2  A    between atoms: C_5  and  C_34
REMARK    3  A    between atoms: C_6  and  O_8
REMARK    4  A    between atoms: O_8  and  C_9
REMARK    5  A    between atoms: C_9  and  C_10
REMARK    6  A    between atoms: N_12  and  C_13
REMARK    7  A    between atoms: C_21  and  C_22
REMARK    8  A    between atoms: C_22  and  C_24
REMARK                            x       y       z     vdW  Elec       q    Type
REMARK                         _______ _______ _______ _____ _____    ______ ____
ROOT
ATOM      1  C   UNL     1       0.148  -3.286   7.082  0.00  0.00    +0.091 A 
ATOM      2  C   UNL     1      -0.165  -2.978   8.482  0.00  0.00    +0.042 A 
ATOM      3  C   UNL     1      -0.633  -1.842   9.144  0.00  0.00    +0.013 A 
ATOM      4  C   UNL     1      -0.828  -1.877  10.496  0.00  0.00    +0.001 A 
ATOM      5  C   UNL     1      -0.562  -3.035  11.214  0.00  0.00    +0.004 A 
ATOM      6  C   UNL     1      -0.098  -4.167  10.579  0.00  0.00    +0.047 A 
ATOM      7  C   UNL     1       0.106  -4.154   9.204  0.00  0.00    +0.138 A 
ATOM      8  O   UNL     1       0.540  -5.087   8.333  0.00  0.00    -0.450 OA
ATOM      9  C   UNL     1       0.568  -4.601   7.072  0.00  0.00    +0.197 A 
ENDROOT
BRANCH   1  12
ATOM     10  C   UNL     1       0.293  -1.117   6.136  0.00  0.00    +0.255 C 
ATOM     11  O   UNL     1       0.524  -0.662   7.236  0.00  0.00    -0.272 OA
ATOM     12  N   UNL     1       0.037  -2.433   5.992  0.00  0.00    -0.279 N 
ATOM     13  H   UNL     1      -0.224  -2.784   5.126  0.00  0.00    +0.155 HD
BRANCH  10  14
ATOM     14  C   UNL     1       0.291  -0.212   4.931  0.00  0.00    +0.324 C 
BRANCH  14  15
ATOM     15  O   UNL     1       0.587   1.125   5.340  0.00  0.00    -0.482 OA
BRANCH  15  21
ATOM     16  C   UNL     1       0.158   2.310   0.624  0.00  0.00    +0.044 C 
ATOM     17  C   UNL     1       0.421   2.689   2.059  0.00  0.00    -0.047 A 
ATOM     18  C   UNL     1       0.701   4.003   2.386  0.00  0.00    +0.004 A 
ATOM     19  C   UNL     1       0.943   4.354   3.701  0.00  0.00    +0.007 A 
ATOM     20  C   UNL     1       0.905   3.392   4.692  0.00  0.00    -0.009 A 
ATOM     21  C   UNL     1       0.624   2.073   4.367  0.00  0.00    +0.124 A 
ATOM     22  C   UNL     1       0.376   1.724   3.047  0.00  0.00    +0.049 A 
ATOM     23  C   UNL     1       1.170   3.775   6.126  0.00  0.00    +0.047 C 
ENDBRANCH  15  21
ENDBRANCH  14  15
ENDBRANCH  10  14
ENDBRANCH   1  12
BRANCH   9  24
ATOM     24  C   UNL     1       0.969  -5.325   5.922  0.00  0.00    +0.230 C 
ATOM     25  O   UNL     1       1.055  -4.761   4.846  0.00  0.00    -0.283 OA
BRANCH  24  26
ATOM     26  C   UNL     1       1.284  -6.765   6.029  0.00  0.00    +0.029 A 
ATOM     27  C   UNL     1       1.307  -7.386   7.279  0.00  0.00    +0.015 A 
ATOM     28  C   UNL     1       1.601  -8.728   7.375  0.00  0.00    +0.050 A 
ATOM     29  C   UNL     1       1.876  -9.469   6.232  0.00  0.00    +0.162 A 
ATOM     30  C   UNL     1       1.853  -8.856   4.981  0.00  0.00    +0.163 A 
ATOM     31  C   UNL     1       1.553  -7.510   4.878  0.00  0.00    +0.061 A 
ATOM     32  O   UNL     1       2.112  -9.569   3.851  0.00  0.00    -0.485 OA
ATOM     33  C   UNL     1       2.766 -10.831   4.022  0.00  0.00    +0.270 C 
ATOM     34  C   UNL     1       2.067 -11.583   5.163  0.00  0.00    +0.270 C 
ATOM     35  O   UNL     1       2.169 -10.792   6.351  0.00  0.00    -0.485 OA
ENDBRANCH  24  26
ENDBRANCH   9  24
TORSDOF 6
