REMARK  Name = ZINC22025259
REMARK  11 active torsions:
REMARK  status: ('A' for Active; 'I' for Inactive)
REMARK    1  A    between atoms: C_1  and  C_2
REMARK    2  A    between atoms: C_2  and  O_3
REMARK    3  A    between atoms: O_3  and  C_4
REMARK    4  A    between atoms: C_4  and  C_6
REMARK    5  A    between atoms: C_7  and  C_20
REMARK    6  A    between atoms: C_12  and  C_14
REMARK    7  A    between atoms: C_20  and  O_21
REMARK    8  A    between atoms: O_21  and  C_22
REMARK    9  A    between atoms: C_22  and  C_24
REMARK   10  A    between atoms: C_25  and  C_33
REMARK   11  A    between atoms: C_29  and  N_30
REMARK                            x       y       z     vdW  Elec       q    Type
REMARK                         _______ _______ _______ _____ _____    ______ ____
ROOT
ATOM      1  C   UNL     1      -4.656  -1.540   2.984  0.00  0.00    +0.081 C 
ATOM      2  C   UNL     1      -3.631  -2.255   2.470  0.00  0.00    +0.061 C 
ATOM      3  N   UNL     1      -2.951  -3.160   3.233  0.00  0.00    -0.269 N 
ATOM      4  C   UNL     1      -3.226  -3.402   4.521  0.00  0.00    +0.304 C 
ATOM      5  O   UNL     1      -2.561  -4.223   5.120  0.00  0.00    -0.252 OA
ATOM      6  N   UNL     1      -4.221  -2.767   5.173  0.00  0.00    -0.288 N 
ATOM      7  C   UNL     1      -5.020  -1.774   4.436  0.00  0.00    +0.144 C 
ATOM      8  H   UNL     1      -2.125  -3.739   2.794  0.00  0.00    +0.156 HD
ATOM      9  H   UNL     1      -4.441  -2.976   6.230  0.00  0.00    +0.151 HD
ENDROOT
BRANCH   7  10
ATOM     10  C   UNL     1      -6.463  -2.206   4.490  0.00  0.00    -0.022 A 
ATOM     11  C   UNL     1      -6.803  -3.515   4.205  0.00  0.00    +0.006 A 
ATOM     12  C   UNL     1      -8.126  -3.912   4.258  0.00  0.00    +0.000 A 
ATOM     13  C   UNL     1      -9.110  -2.998   4.588  0.00  0.00    +0.000 A 
ATOM     14  C   UNL     1      -8.769  -1.688   4.868  0.00  0.00    +0.000 A 
ATOM     15  C   UNL     1      -7.446  -1.292   4.819  0.00  0.00    +0.006 A 
ENDBRANCH   7  10
BRANCH   1  16
ATOM     16  C   UNL     1      -5.365  -0.606   2.193  0.00  0.00    +0.339 C 
ATOM     17  O   UNL     1      -5.128   0.583   2.298  0.00  0.00    -0.245 OA
BRANCH  16  18
ATOM     18  O   UNL     1      -6.304  -1.033   1.323  0.00  0.00    -0.462 OA
BRANCH  18  20
ATOM     19  C   UNL     1      -8.000  -0.704  -0.366  0.00  0.00    +0.048 C 
ATOM     20  C   UNL     1      -6.980  -0.034   0.557  0.00  0.00    +0.229 C 
ENDBRANCH  18  20
ENDBRANCH  16  18
ENDBRANCH   1  16
BRANCH   2  21
ATOM     21  C   UNL     1      -3.237  -2.054   1.029  0.00  0.00    +0.283 C 
BRANCH  21  22
ATOM     22  O   UNL     1      -1.900  -1.491   0.968  0.00  0.00    -0.455 OA
BRANCH  22  23
ATOM     23  C   UNL     1      -1.394  -1.249  -0.257  0.00  0.00    +0.342 C 
ATOM     24  O   UNL     1      -2.052  -1.501  -1.247  0.00  0.00    -0.245 OA
BRANCH  23  25
ATOM     25  C   UNL     1      -0.039  -0.677  -0.397  0.00  0.00    +0.092 A 
ATOM     26  C   UNL     1       0.137   0.708  -0.436  0.00  0.00    -0.034 A 
ATOM     27  C   UNL     1       1.405   1.235  -0.567  0.00  0.00    +0.004 A 
ATOM     28  C   UNL     1       2.501   0.395  -0.659  0.00  0.00    +0.003 A 
ATOM     29  C   UNL     1       2.333  -0.978  -0.620  0.00  0.00    +0.033 A 
ATOM     30  C   UNL     1       1.071  -1.519  -0.490  0.00  0.00    +0.140 A 
ATOM     31  C   UNL     1      -1.056   1.623  -0.343  0.00  0.00    +0.044 C 
BRANCH  30  32
ATOM     32  N   UNL     1       0.894  -2.988  -0.449  0.00  0.00    +0.057 N 
ATOM     33  O   UNL     1       1.863  -3.720  -0.530  0.00  0.00    -0.126 OA
ATOM     34  O   UNL     1      -0.221  -3.464  -0.334  0.00  0.00    -0.126 OA
ENDBRANCH  30  32
ENDBRANCH  23  25
ENDBRANCH  22  23
ENDBRANCH  21  22
ENDBRANCH   2  21
TORSDOF 9
