REMARK  Name = ZINC58345559
REMARK  8 active torsions:
REMARK  status: ('A' for Active; 'I' for Inactive)
REMARK    1  A    between atoms: C_4  and  C_7
REMARK    2  A    between atoms: C_7  and  C_8
REMARK    3  A    between atoms: C_8  and  C_10
REMARK    4  A    between atoms: C_8  and  N_16
REMARK    5  A    between atoms: C_10  and  C_12
REMARK    6  A    between atoms: C_10  and  O_15
REMARK    7  A    between atoms: N_19  and  C_20
REMARK    8  A    between atoms: C_24  and  N_26
REMARK                            x       y       z     vdW  Elec       q    Type
REMARK                         _______ _______ _______ _____ _____    ______ ____
ROOT
ATOM      1  N   UNL     1       4.457   0.314   2.058  0.00  0.00    -0.293 N 
ATOM      2  C   UNL     1       4.376   0.412   3.399  0.00  0.00    +0.304 C 
ATOM      3  O   UNL     1       4.070  -0.559   4.063  0.00  0.00    -0.252 OA
ATOM      4  N   UNL     1       4.635   1.588   4.005  0.00  0.00    -0.269 N 
ATOM      5  H   UNL     1       4.701   1.089   1.528  0.00  0.00    +0.151 HD
ATOM      6  H   UNL     1       4.944   2.345   3.484  0.00  0.00    +0.156 HD
ENDROOT
BRANCH   4   7
ATOM      7  C   UNL     1       4.458   1.717   5.388  0.00  0.00    +0.037 A 
ATOM      8  C   UNL     1       4.739   0.647   6.228  0.00  0.00    +0.023 A 
ATOM      9  C   UNL     1       4.565   0.773   7.592  0.00  0.00    +0.004 A 
ATOM     10  C   UNL     1       4.110   1.964   8.126  0.00  0.00    +0.024 A 
ATOM     11  C   UNL     1       3.826   3.037   7.292  0.00  0.00    +0.041 A 
ATOM     12  C   UNL     1       4.006   2.915   5.921  0.00  0.00    +0.047 A 
BRANCH  11  13
ATOM     13  N   UNL     1       3.364   4.242   7.833  0.00  0.00    -0.234 N 
ATOM     14  C   UNL     1       3.136   4.522   9.264  0.00  0.00    +0.158 C 
ATOM     15  C   UNL     1       3.014   6.065   9.280  0.00  0.00    +0.253 C 
ATOM     16  O   UNL     1       2.601   6.347   7.929  0.00  0.00    -0.448 OA
ATOM     17  C   UNL     1       3.053   5.355   7.142  0.00  0.00    +0.407 C 
ATOM     18  O   UNL     1       3.167   5.452   5.936  0.00  0.00    -0.226 OA
ENDBRANCH  11  13
ENDBRANCH   4   7
BRANCH   1  19
ATOM     19  C   UNL     1       4.176  -0.964   1.399  0.00  0.00    +0.113 C 
BRANCH  19  20
ATOM     20  C   UNL     1       3.725  -0.708  -0.040  0.00  0.00    +0.060 C 
BRANCH  20  24
ATOM     21  C   UNL     1       0.005   1.393  -0.017  0.00  0.00    +0.000 A 
ATOM     22  C   UNL     1       1.196   2.096  -0.018  0.00  0.00    +0.000 A 
ATOM     23  C   UNL     1       2.400   1.416  -0.026  0.00  0.00    +0.004 A 
ATOM     24  C   UNL     1       2.413   0.034  -0.031  0.00  0.00    -0.046 A 
ATOM     25  C   UNL     1       1.222  -0.669  -0.029  0.00  0.00    +0.004 A 
ATOM     26  C   UNL     1       0.018   0.011  -0.023  0.00  0.00    +0.000 A 
ENDBRANCH  20  24
ENDBRANCH  19  20
BRANCH  19  27
ATOM     27  C   UNL     1       5.441  -1.823   1.391  0.00  0.00    +0.201 C 
BRANCH  27  28
ATOM     28  C   UNL     1       5.892  -2.080   2.831  0.00  0.00    +0.371 C 
ATOM     29  F   UNL     1       4.878  -2.749   3.525  0.00  0.00    -0.206 F 
ATOM     30  F   UNL     1       7.050  -2.866   2.824  0.00  0.00    -0.206 F 
ENDBRANCH  27  28
BRANCH  27  31
ATOM     31  O   UNL     1       6.477  -1.140   0.682  0.00  0.00    -0.384 OA
ATOM     32  H   UNL     1       6.716  -0.284   1.064  0.00  0.00    +0.210 HD
ENDBRANCH  27  31
ENDBRANCH  19  27
ENDBRANCH   1  19
TORSDOF 8
