REMARK  Name = ZINC28802405
REMARK  11 active torsions:
REMARK  status: ('A' for Active; 'I' for Inactive)
REMARK    1  A    between atoms: C_1  and  C_2
REMARK    2  A    between atoms: C_2  and  O_3
REMARK    3  A    between atoms: O_3  and  C_4
REMARK    4  A    between atoms: C_4  and  C_6
REMARK    5  A    between atoms: C_10  and  N_11
REMARK    6  A    between atoms: C_12  and  C_14
REMARK    7  A    between atoms: C_14  and  C_16
REMARK    8  A    between atoms: C_14  and  S_17
REMARK    9  A    between atoms: S_17  and  C_18
REMARK   10  A    between atoms: N_22  and  C_23
REMARK   11  A    between atoms: C_26  and  O_29
REMARK                            x       y       z     vdW  Elec       q    Type
REMARK                         _______ _______ _______ _____ _____    ______ ____
ROOT
ATOM      1  N   UNL     1      -4.999  -2.904   2.954  0.00  0.00    -0.278 N 
ATOM      2  C   UNL     1      -4.147  -1.864   2.853  0.00  0.00    +0.231 C 
ATOM      3  O   UNL     1      -4.415  -0.808   3.386  0.00  0.00    -0.274 OA
ATOM      4  H   UNL     1      -4.757  -3.862   2.471  0.00  0.00    +0.155 HD
ENDROOT
BRANCH   1   9
ATOM      5  C   UNL     1      -7.178  -3.709   3.874  0.00  0.00    +0.091 A 
ATOM      6  C   UNL     1      -8.325  -3.308   4.670  0.00  0.00    -0.021 A 
ATOM      7  C   UNL     1      -8.299  -2.033   5.116  0.00  0.00    -0.004 A 
ATOM      8  S   UNL     1      -6.776  -1.371   4.503  0.00  0.00    -0.077 S 
ATOM      9  C   UNL     1      -6.181  -2.766   3.665  0.00  0.00    +0.086 A 
ATOM     10  C   UNL     1      -9.338  -1.345   5.946  0.00  0.00    +0.043 C 
ATOM     11  C   UNL     1     -10.623  -2.185   5.907  0.00  0.00    +0.005 C 
ATOM     12  C   UNL     1     -10.264  -3.648   6.183  0.00  0.00    +0.005 C 
ATOM     13  C   UNL     1      -9.496  -4.228   4.994  0.00  0.00    +0.037 C 
BRANCH   5  14
ATOM     14  C   UNL     1      -7.074  -5.060   3.318  0.00  0.00    +0.342 C 
ATOM     15  O   UNL     1      -6.542  -5.944   3.962  0.00  0.00    -0.245 OA
BRANCH  14  16
ATOM     16  O   UNL     1      -7.568  -5.324   2.091  0.00  0.00    -0.461 OA
BRANCH  16  18
ATOM     17  C   UNL     1      -8.045  -6.791   0.207  0.00  0.00    +0.048 C 
ATOM     18  C   UNL     1      -7.430  -6.685   1.604  0.00  0.00    +0.229 C 
ENDBRANCH  16  18
ENDBRANCH  14  16
ENDBRANCH   5  14
ENDBRANCH   1   9
BRANCH   2  19
ATOM     19  C   UNL     1      -2.863  -2.015   2.079  0.00  0.00    +0.137 C 
ATOM     20  C   UNL     1      -1.826  -2.731   2.947  0.00  0.00    +0.029 C 
BRANCH  19  21
ATOM     21  S   UNL     1      -2.239  -0.378   1.622  0.00  0.00    -0.072 S 
BRANCH  21  22
ATOM     22  C   UNL     1      -0.860  -0.843   0.628  0.00  0.00    +0.215 A 
ATOM     23  N   UNL     1      -0.474  -2.070   0.351  0.00  0.00    -0.101 NA
ATOM     24  N   UNL     1       0.571  -2.055  -0.395  0.00  0.00    -0.022 NA
ATOM     25  N   UNL     1       0.922  -0.842  -0.651  0.00  0.00    -0.038 NA
ATOM     26  N   UNL     1       0.002  -0.004   0.002  0.00  0.00    -0.187 N 
BRANCH  26  27
ATOM     27  C   UNL     1      -0.017   1.399   0.010  0.00  0.00    +0.070 A 
ATOM     28  C   UNL     1      -1.228   2.077   0.019  0.00  0.00    +0.031 A 
ATOM     29  C   UNL     1      -1.247   3.458   0.033  0.00  0.00    +0.047 A 
ATOM     30  C   UNL     1      -0.054   4.167   0.025  0.00  0.00    +0.117 A 
ATOM     31  C   UNL     1       1.156   3.490   0.010  0.00  0.00    +0.047 A 
ATOM     32  C   UNL     1       1.176   2.110   0.002  0.00  0.00    +0.031 A 
BRANCH  30  33
ATOM     33  O   UNL     1      -0.073   5.527   0.032  0.00  0.00    -0.507 OA
ATOM     34  H   UNL     1       0.872   6.090   0.026  0.00  0.00    +0.292 HD
ENDBRANCH  30  33
ENDBRANCH  26  27
ENDBRANCH  21  22
ENDBRANCH  19  21
ENDBRANCH   2  19
TORSDOF 9
