REMARK  Name = ZINC24534835
REMARK  13 active torsions:
REMARK  status: ('A' for Active; 'I' for Inactive)
REMARK    1  A    between atoms: C_1  and  C_2
REMARK    2  A    between atoms: C_2  and  C_3
REMARK    3  A    between atoms: C_3  and  C_5
REMARK    4  A    between atoms: C_3  and  O_14
REMARK    5  A    between atoms: C_10  and  C_13
REMARK    6  A    between atoms: O_14  and  C_15
REMARK    7  A    between atoms: C_15  and  C_17
REMARK    8  A    between atoms: C_17  and  C_19
REMARK    9  A    between atoms: C_17  and  N_23
REMARK   10  A    between atoms: C_19  and  C_21
REMARK   11  A    between atoms: C_19  and  O_22
REMARK   12  A    between atoms: N_23  and  S_24
REMARK   13  A    between atoms: S_24  and  C_27
REMARK                            x       y       z     vdW  Elec       q    Type
REMARK                         _______ _______ _______ _____ _____    ______ ____
ROOT
ATOM      1  C   UNL     1       3.489   3.244  -2.504  0.00  0.00    +0.213 C 
ENDROOT
BRANCH   1   2
ATOM      2  C   UNL     1       4.380   3.790  -3.590  0.00  0.00    +0.329 C 
ATOM      3  O   UNL     1       5.568   3.571  -3.564  0.00  0.00    -0.249 OA
BRANCH   2   4
ATOM      4  O   UNL     1       3.854   4.519  -4.587  0.00  0.00    -0.451 OA
BRANCH   4   5
ATOM      5  C   UNL     1       4.772   5.013  -5.598  0.00  0.00    +0.262 C 
BRANCH   5   6
ATOM      6  C   UNL     1       4.051   5.129  -6.916  0.00  0.00    +0.259 C 
ATOM      7  O   UNL     1       2.859   4.913  -6.977  0.00  0.00    -0.271 OA
ATOM      8  N   UNL     1       4.731   5.473  -8.028  0.00  0.00    -0.265 N 
ATOM      9  C   UNL     1       4.064   5.580  -9.248  0.00  0.00    +0.168 A 
ATOM     10  C   UNL     1       2.681   5.362  -9.486  0.00  0.00    +0.091 A 
ATOM     11  C   UNL     1       2.538   5.590 -10.812  0.00  0.00    +0.136 A 
ATOM     12  O   UNL     1       3.753   5.913 -11.278  0.00  0.00    -0.358 OA
ATOM     13  N   UNL     1       4.586   5.908 -10.402  0.00  0.00    -0.063 NA
ATOM     14  C   UNL     1       1.262   5.501 -11.608  0.00  0.00    +0.089 C 
ATOM     15  H   UNL     1       5.812   5.668  -7.973  0.00  0.00    +0.156 HD
ENDBRANCH   5   6
BRANCH   5  17
ATOM     16  C   UNL     1       6.135   6.249  -3.908  0.00  0.00    +0.008 C 
ATOM     17  C   UNL     1       5.298   6.388  -5.181  0.00  0.00    +0.051 C 
ENDBRANCH   5  17
ENDBRANCH   4   5
ENDBRANCH   2   4
ENDBRANCH   1   2
BRANCH   1  18
ATOM     18  C   UNL     1       2.438   2.320  -3.123  0.00  0.00    +0.141 C 
ATOM     19  C   UNL     1       1.616   1.666  -2.011  0.00  0.00    +0.040 C 
BRANCH  18  20
ATOM     20  O   UNL     1       1.574   3.082  -3.970  0.00  0.00    -0.390 OA
ATOM     21  H   UNL     1       0.751   2.585  -4.505  0.00  0.00    +0.210 HD
ENDBRANCH  18  20
ENDBRANCH   1  18
BRANCH   1  22
ATOM     22  N   UNL     1       4.297   2.490  -1.543  0.00  0.00    -0.174 NA
ATOM     23  H   UNL     1       4.412   1.401  -1.655  0.00  0.00    +0.149 HD
BRANCH  22  24
ATOM     24  S   UNL     1       4.832   3.221  -0.157  0.00  0.00    +0.059 S 
ATOM     25  O   UNL     1       5.451   4.437  -0.552  0.00  0.00    -0.153 OA
ATOM     26  O   UNL     1       5.517   2.224   0.590  0.00  0.00    -0.153 OA
BRANCH  24  27
ATOM     27  C   UNL     1       3.408   3.662   0.782  0.00  0.00    +0.107 A 
ATOM     28  C   UNL     1       2.886   4.939   0.687  0.00  0.00    +0.030 A 
ATOM     29  C   UNL     1       1.769   5.287   1.423  0.00  0.00    +0.023 A 
ATOM     30  C   UNL     1       1.172   4.357   2.255  0.00  0.00    +0.059 A 
ATOM     31  C   UNL     1       1.694   3.079   2.350  0.00  0.00    +0.061 A 
ATOM     32  C   UNL     1       2.812   2.732   1.613  0.00  0.00    +0.050 A 
ATOM     33 CL   UNL     1       0.946   1.911   3.394  0.00  0.00    -0.082 Cl
ATOM     34 CL   UNL     1      -0.232   4.793   3.179  0.00  0.00    -0.082 Cl
ENDBRANCH  24  27
ENDBRANCH  22  24
ENDBRANCH   1  22
TORSDOF 10
