REMARK  Name = ZINC09821447
REMARK  7 active torsions:
REMARK  status: ('A' for Active; 'I' for Inactive)
REMARK    1  A    between atoms: C_6  and  C_7
REMARK    2  A    between atoms: C_8  and  C_9
REMARK    3  A    between atoms: C_9  and  O_11
REMARK    4  A    between atoms: O_11  and  C_12
REMARK    5  A    between atoms: C_12  and  C_13
REMARK    6  A    between atoms: N_15  and  C_16
REMARK    7  A    between atoms: C_18  and  N_23
REMARK                            x       y       z     vdW  Elec       q    Type
REMARK                         _______ _______ _______ _____ _____    ______ ____
ROOT
ATOM      1  O   UNL     1      -7.244  -0.167   0.019  0.00  0.00    -0.452 OA
ENDROOT
BRANCH   1   2
ATOM      2  C   UNL     1      -6.069  -0.829  -0.003  0.00  0.00    +0.332 C 
ATOM      3  O   UNL     1      -6.056  -2.045  -0.016  0.00  0.00    -0.246 OA
BRANCH   2   5
ATOM      4  C   UNL     1      -3.671  -0.770  -0.033  0.00  0.00    +0.015 C 
ATOM      5  C   UNL     1      -4.848  -0.107  -0.011  0.00  0.00    +0.092 C 
BRANCH   4  11
ATOM      6  C   UNL     1      -2.418   1.377  -0.026  0.00  0.00    +0.012 A 
ATOM      7  C   UNL     1      -1.231   2.074  -0.037  0.00  0.00    +0.050 A 
ATOM      8  C   UNL     1      -0.018   1.394  -0.057  0.00  0.00    +0.162 A 
ATOM      9  C   UNL     1       0.001   0.001  -0.071  0.00  0.00    +0.163 A 
ATOM     10  C   UNL     1      -1.186  -0.707  -0.063  0.00  0.00    +0.057 A 
ATOM     11  C   UNL     1      -2.407  -0.022  -0.041  0.00  0.00    -0.021 A 
ATOM     12  O   UNL     1       1.181  -0.679  -0.090  0.00  0.00    -0.485 OA
ATOM     13  C   UNL     1       2.344   0.062  -0.474  0.00  0.00    +0.270 C 
ATOM     14  C   UNL     1       2.334   1.397   0.283  0.00  0.00    +0.270 C 
ATOM     15  O   UNL     1       1.141   2.105  -0.070  0.00  0.00    -0.485 OA
ENDBRANCH   4  11
ENDBRANCH   2   5
ENDBRANCH   1   2
BRANCH   1  16
ATOM     16  C   UNL     1      -8.434  -0.958   0.026  0.00  0.00    +0.328 C 
BRANCH  16  17
ATOM     17  C   UNL     1      -9.639  -0.052   0.050  0.00  0.00    +0.255 C 
ATOM     18  O   UNL     1      -9.492   1.152   0.061  0.00  0.00    -0.272 OA
ATOM     19  N   UNL     1     -10.879  -0.580   0.060  0.00  0.00    -0.281 N 
ATOM     20  H   UNL     1     -10.998  -1.540  -0.014  0.00  0.00    +0.155 HD
BRANCH  19  21
ATOM     21  C   UNL     1     -11.995   0.256   0.178  0.00  0.00    +0.054 A 
ATOM     22  C   UNL     1     -11.984   1.516  -0.405  0.00  0.00    +0.057 A 
ATOM     23  C   UNL     1     -13.089   2.337  -0.292  0.00  0.00    +0.128 A 
ATOM     24  C   UNL     1     -14.201   1.911   0.410  0.00  0.00    +0.034 A 
ATOM     25  C   UNL     1     -14.214   0.659   0.997  0.00  0.00    +0.024 A 
ATOM     26  C   UNL     1     -13.114  -0.170   0.883  0.00  0.00    +0.062 A 
ATOM     27 CL   UNL     1     -13.130  -1.742   1.620  0.00  0.00    -0.082 Cl
BRANCH  23  28
ATOM     28  N   UNL     1     -13.080   3.679  -0.918  0.00  0.00    +0.056 N 
ATOM     29  O   UNL     1     -14.052   4.406  -0.814  0.00  0.00    -0.126 OA
ATOM     30  O   UNL     1     -12.101   4.056  -1.537  0.00  0.00    -0.126 OA
ENDBRANCH  23  28
ENDBRANCH  19  21
ENDBRANCH  16  17
ENDBRANCH   1  16
TORSDOF 7
