REMARK  Name = ZINC38624284
REMARK  10 active torsions:
REMARK  status: ('A' for Active; 'I' for Inactive)
REMARK    1  A    between atoms: C_1  and  C_2
REMARK    2  A    between atoms: C_2  and  O_3
REMARK    3  A    between atoms: O_3  and  C_4
REMARK    4  A    between atoms: C_9  and  S_10
REMARK    5  A    between atoms: S_10  and  N_13
REMARK    6  A    between atoms: N_13  and  C_14
REMARK    7  A    between atoms: C_14  and  C_15
REMARK    8  A    between atoms: C_15  and  C_17
REMARK    9  A    between atoms: C_15  and  N_26
REMARK   10  A    between atoms: N_29  and  C_32
REMARK                            x       y       z     vdW  Elec       q    Type
REMARK                         _______ _______ _______ _____ _____    ______ ____
ROOT
ATOM      1  C   UNL     1       4.223   1.425   1.426  0.00  0.00    +0.102 C 
ENDROOT
BRANCH   1   2
ATOM      2  C   UNL     1       3.924   2.417   0.331  0.00  0.00    -0.025 A 
ATOM      3  C   UNL     1       4.018   2.032  -0.993  0.00  0.00    +0.009 A 
ATOM      4  C   UNL     1       3.744   2.938  -2.001  0.00  0.00    +0.050 A 
ATOM      5  C   UNL     1       3.376   4.236  -1.685  0.00  0.00    +0.166 A 
ATOM      6  C   UNL     1       3.281   4.624  -0.350  0.00  0.00    +0.167 A 
ATOM      7  C   UNL     1       3.551   3.709   0.654  0.00  0.00    +0.054 A 
ATOM      8  O   UNL     1       2.905   5.935  -0.303  0.00  0.00    -0.453 OA
ATOM      9  C   UNL     1       3.167   6.458  -1.619  0.00  0.00    +0.466 C 
ATOM     10  O   UNL     1       3.059   5.304  -2.473  0.00  0.00    -0.453 OA
ENDBRANCH   1   2
BRANCH   1  11
ATOM     11  N   UNL     1       5.384   0.610   1.044  0.00  0.00    -0.298 NA
ATOM     12  C   UNL     1       5.676  -0.403   2.069  0.00  0.00    +0.066 C 
ATOM     13  C   UNL     1       6.851  -1.267   1.607  0.00  0.00    -0.064 C 
ATOM     14  N   UNL     1       8.028  -0.416   1.386  0.00  0.00    +0.379 N 
ATOM     15  C   UNL     1       7.729   0.575   0.344  0.00  0.00    -0.064 C 
ATOM     16  C   UNL     1       6.561   1.454   0.795  0.00  0.00    +0.066 C 
ATOM     17  C   UNL     1       9.161  -1.248   0.960  0.00  0.00    -0.096 C 
ATOM     18  H   UNL     1       8.264   0.060   2.244  0.00  0.00    -0.082 HD
ENDBRANCH   1  11
BRANCH   1  19
ATOM     19  C   UNL     1       3.009   0.518   1.637  0.00  0.00    +0.129 C 
BRANCH  19  20
ATOM     20  N   UNL     1       1.881   1.316   2.121  0.00  0.00    -0.188 NA
ATOM     21  H   UNL     1       2.033   2.206   2.475  0.00  0.00    +0.148 HD
BRANCH  20  22
ATOM     22  S   UNL     1       0.345   0.699   2.064  0.00  0.00    +0.062 S 
ATOM     23  O   UNL     1       0.162   0.185   0.752  0.00  0.00    -0.153 OA
ATOM     24  O   UNL     1      -0.511   1.687   2.622  0.00  0.00    -0.153 OA
BRANCH  22  30
ATOM     25  C   UNL     1       1.062  -1.808   2.886  0.00  0.00    +0.147 A 
ATOM     26  C   UNL     1       1.027  -2.893   3.751  0.00  0.00    +0.047 A 
ATOM     27  C   UNL     1       0.228  -2.851   4.877  0.00  0.00    +0.004 A 
ATOM     28  C   UNL     1      -0.536  -1.730   5.142  0.00  0.00    +0.002 A 
ATOM     29  C   UNL     1      -0.504  -0.648   4.282  0.00  0.00    +0.032 A 
ATOM     30  C   UNL     1       0.298  -0.683   3.157  0.00  0.00    +0.147 A 
BRANCH  25  31
ATOM     31  O   UNL     1       1.848  -1.847   1.778  0.00  0.00    -0.490 OA
BRANCH  31  33
ATOM     32  C   UNL     1       3.424  -2.896   0.276  0.00  0.00    +0.048 C 
ATOM     33  C   UNL     1       2.607  -3.038   1.562  0.00  0.00    +0.226 C 
ENDBRANCH  31  33
ENDBRANCH  25  31
ENDBRANCH  22  30
ENDBRANCH  20  22
ENDBRANCH  19  20
ENDBRANCH   1  19
TORSDOF 8
