REMARK  Name = ZINC12904860
REMARK  8 active torsions:
REMARK  status: ('A' for Active; 'I' for Inactive)
REMARK    1  A    between atoms: C_1  and  C_2
REMARK    2  A    between atoms: C_2  and  C_3
REMARK    3  A    between atoms: C_2  and  C_4
REMARK    4  A    between atoms: C_2  and  N_5
REMARK    5  A    between atoms: C_6  and  S_10
REMARK    6  A    between atoms: S_10  and  C_11
REMARK    7  A    between atoms: C_11  and  C_12
REMARK    8  A    between atoms: C_18  and  C_23
REMARK                            x       y       z     vdW  Elec       q    Type
REMARK                         _______ _______ _______ _____ _____    ______ ____
ROOT
ATOM      1  C   UNL     1       1.136   3.271   0.008  0.00  0.00    +0.121 A 
ATOM      2  N   UNL     1       1.136   1.914   0.002  0.00  0.00    -0.310 N 
ATOM      3  H   UNL     1       1.981   1.438  -0.009  0.00  0.00    +0.170 HD
ATOM      4  C   UNL     1      -0.015   1.215   0.009  0.00  0.00    +0.260 A 
ATOM      5  O   UNL     1       0.002  -0.004   0.002  0.00  0.00    -0.267 OA
ATOM      6  C   UNL     1      -1.257   1.924   0.018  0.00  0.00    +0.083 A 
ATOM      7  C   UNL     1      -2.619   1.401   0.034  0.00  0.00    +0.039 A 
ATOM      8  C   UNL     1      -3.654   2.278   0.048  0.00  0.00    +0.059 A 
ATOM      9  S   UNL     1      -2.847   3.868   0.048  0.00  0.00    -0.076 S 
ATOM     10  C   UNL     1      -1.158   3.325   0.030  0.00  0.00    +0.116 A 
ATOM     11  N   UNL     1       0.018   3.947   0.022  0.00  0.00    -0.226 NA
ENDROOT
BRANCH   7  12
ATOM     12  C   UNL     1      -2.866  -0.056   0.029  0.00  0.00    +0.136 A 
ATOM     13  C   UNL     1      -3.685  -0.729   0.880  0.00  0.00    +0.050 A 
ATOM     14  C   UNL     1      -3.621  -2.090   0.514  0.00  0.00    +0.042 A 
ATOM     15  C   UNL     1      -2.769  -2.179  -0.525  0.00  0.00    +0.196 A 
ATOM     16  O   UNL     1      -2.315  -0.948  -0.816  0.00  0.00    -0.463 OA
ENDBRANCH   7  12
BRANCH   1  17
ATOM     17  C   UNL     1       2.449   4.012  -0.000  0.00  0.00    +0.151 C 
BRANCH  17  18
ATOM     18  S   UNL     1       2.136   5.795   0.012  0.00  0.00    -0.077 S 
BRANCH  18  20
ATOM     19  N   UNL     1       4.177   7.694   0.002  0.00  0.00    -0.215 N 
ATOM     20  C   UNL     1       3.792   6.396  -0.001  0.00  0.00    +0.210 A 
ATOM     21  N   UNL     1       4.888   5.668  -0.009  0.00  0.00    -0.101 NA
ATOM     22  N   UNL     1       5.928   6.421  -0.021  0.00  0.00    -0.022 NA
ATOM     23  N   UNL     1       5.582   7.663  -0.011  0.00  0.00    -0.043 NA
BRANCH  19  25
ATOM     24  C   UNL     1       2.443   8.858   1.275  0.00  0.00    +0.036 C 
ATOM     25  C   UNL     1       3.314   8.877   0.017  0.00  0.00    +0.060 C 
ATOM     26  C   UNL     1       4.178  10.139   0.015  0.00  0.00    +0.036 C 
ATOM     27  C   UNL     1       2.418   8.871  -1.224  0.00  0.00    +0.036 C 
ENDBRANCH  19  25
ENDBRANCH  18  20
ENDBRANCH  17  18
ENDBRANCH   1  17
TORSDOF 5
