REMARK  Name = ZINC64023811
REMARK  9 active torsions:
REMARK  status: ('A' for Active; 'I' for Inactive)
REMARK    1  A    between atoms: C_1  and  N_2
REMARK    2  A    between atoms: N_2  and  C_3
REMARK    3  A    between atoms: C_3  and  C_4
REMARK    4  A    between atoms: C_13  and  C_15
REMARK    5  A    between atoms: C_18  and  C_21
REMARK    6  A    between atoms: C_21  and  O_22
REMARK    7  A    between atoms: O_22  and  C_23
REMARK    8  A    between atoms: C_27  and  O_29
REMARK    9  A    between atoms: O_29  and  C_30
REMARK                            x       y       z     vdW  Elec       q    Type
REMARK                         _______ _______ _______ _____ _____    ______ ____
ROOT
ATOM      1  C   UNL     1      -0.018   1.461   0.010  0.00  0.00    +0.132 C 
ATOM      2  N   UNL     1       0.002  -0.004   0.002  0.00  0.00    -0.299 N 
ATOM      3  C   UNL     1       0.000  -0.672  -1.169  0.00  0.00    +0.240 C 
ATOM      4  O   UNL     1       0.017  -1.884  -1.175  0.00  0.00    -0.273 OA
ENDROOT
BRANCH   3   5
ATOM      5  C   UNL     1      -0.023   0.089  -2.470  0.00  0.00    +0.204 C 
ATOM      6  C   UNL     1      -1.438   0.499  -2.829  0.00  0.00    +0.051 C 
ATOM      7  C   UNL     1      -1.875  -0.324  -3.757  0.00  0.00    +0.161 C 
ATOM      8  O   UNL     1      -0.955  -1.262  -4.088  0.00  0.00    -0.407 OA
ATOM      9  N   UNL     1       0.362  -0.793  -3.603  0.00  0.00    -0.140 NA
ATOM     10  H   UNL     1       0.928  -1.565  -3.284  0.00  0.00    +0.168 HD
BRANCH   7  11
ATOM     11  C   UNL     1      -3.244  -0.235  -4.381  0.00  0.00    +0.304 C 
BRANCH  11  12
ATOM     12  O   UNL     1      -3.115   0.082  -5.769  0.00  0.00    -0.484 OA
BRANCH  12  13
ATOM     13  C   UNL     1      -4.265   0.199  -6.484  0.00  0.00    +0.125 A 
ATOM     14  C   UNL     1      -5.492   0.019  -5.861  0.00  0.00    +0.046 A 
ATOM     15  C   UNL     1      -6.661   0.138  -6.587  0.00  0.00    +0.007 A 
ATOM     16  C   UNL     1      -6.612   0.437  -7.935  0.00  0.00    +0.046 A 
ATOM     17  C   UNL     1      -5.388   0.618  -8.563  0.00  0.00    +0.124 A 
ATOM     18  C   UNL     1      -4.213   0.505  -7.835  0.00  0.00    +0.091 A 
BRANCH  17  19
ATOM     19  O   UNL     1      -5.340   0.912  -9.889  0.00  0.00    -0.495 OA
ATOM     20  C   UNL     1      -6.589   1.019 -10.575  0.00  0.00    +0.277 C 
ENDBRANCH  17  19
ENDBRANCH  12  13
ENDBRANCH  11  12
ENDBRANCH   7  11
ENDBRANCH   3   5
BRANCH   2  21
ATOM     21  C   UNL     1       0.024  -0.743   1.267  0.00  0.00    +0.154 C 
BRANCH  21  22
ATOM     22  C   UNL     1      -1.411  -1.020   1.720  0.00  0.00    +0.192 C 
ATOM     23  N   UNL     1      -2.136  -1.755   0.677  0.00  0.00    -0.362 N 
ATOM     24  C   UNL     1      -3.145  -1.018   0.310  0.00  0.00    +0.060 A 
ATOM     25  C   UNL     1      -4.215  -1.210  -0.679  0.00  0.00    +0.027 A 
ATOM     26  C   UNL     1      -5.146  -0.250  -0.845  0.00  0.00    +0.002 A 
ATOM     27  C   UNL     1      -5.143   0.946  -0.105  0.00  0.00    +0.002 A 
ATOM     28  C   UNL     1      -4.208   1.222   0.825  0.00  0.00    +0.027 A 
ATOM     29  C   UNL     1      -3.142   0.248   1.093  0.00  0.00    +0.060 A 
ATOM     30  N   UNL     1      -2.131   0.244   1.914  0.00  0.00    -0.362 N 
ATOM     31  H   UNL     1      -1.906  -2.629   0.325  0.00  0.00    +0.162 HD
ATOM     32  H   UNL     1      -1.897   0.949   2.539  0.00  0.00    +0.162 HD
ENDBRANCH  21  22
ENDBRANCH   2  21
TORSDOF 7
