REMARK  Name = ZINC16551716
REMARK  10 active torsions:
REMARK  status: ('A' for Active; 'I' for Inactive)
REMARK    1  A    between atoms: C_1  and  C_2
REMARK    2  A    between atoms: C_3  and  C_9
REMARK    3  A    between atoms: C_4  and  N_7
REMARK    4  A    between atoms: N_7  and  C_8
REMARK    5  A    between atoms: C_9  and  O_11
REMARK    6  A    between atoms: O_11  and  C_12
REMARK    7  A    between atoms: C_12  and  C_14
REMARK    8  A    between atoms: C_12  and  C_20
REMARK    9  A    between atoms: N_22  and  C_23
REMARK   10  A    between atoms: C_26  and  N_30
REMARK                            x       y       z     vdW  Elec       q    Type
REMARK                         _______ _______ _______ _____ _____    ______ ____
ROOT
ATOM      1  C   UNL     1       2.445   0.674   0.068  0.00  0.00    +0.292 C 
ENDROOT
BRANCH   1   2
ATOM      2  C   UNL     1       2.430  -0.093   1.365  0.00  0.00    +0.002 A 
ATOM      3  C   UNL     1       2.825   0.524   2.537  0.00  0.00    +0.008 A 
ATOM      4  C   UNL     1       2.807  -0.179   3.728  0.00  0.00    +0.000 A 
ATOM      5  C   UNL     1       2.404  -1.501   3.744  0.00  0.00    +0.000 A 
ATOM      6  C   UNL     1       2.014  -2.119   2.571  0.00  0.00    +0.000 A 
ATOM      7  C   UNL     1       2.027  -1.415   1.381  0.00  0.00    +0.008 A 
ENDBRANCH   1   2
BRANCH   1   8
ATOM      8  C   UNL     1       1.210   1.534  -0.021  0.00  0.00    +0.263 C 
ATOM      9  O   UNL     1       1.317   2.739  -0.117  0.00  0.00    -0.271 OA
ATOM     10  N   UNL     1      -0.011   0.966   0.007  0.00  0.00    -0.281 N 
ATOM     11  H   UNL     1      -0.096  -0.000   0.019  0.00  0.00    +0.155 HD
BRANCH  10  12
ATOM     12  C   UNL     1      -1.157   1.769   0.014  0.00  0.00    +0.052 A 
ATOM     13  C   UNL     1      -1.171   2.968  -0.687  0.00  0.00    +0.027 A 
ATOM     14  C   UNL     1      -2.303   3.759  -0.679  0.00  0.00    +0.034 A 
ATOM     15  C   UNL     1      -3.423   3.358   0.026  0.00  0.00    +0.128 A 
ATOM     16  C   UNL     1      -3.414   2.166   0.726  0.00  0.00    +0.054 A 
ATOM     17  C   UNL     1      -2.286   1.367   0.717  0.00  0.00    +0.064 A 
ATOM     18 CL   UNL     1      -2.277  -0.134   1.590  0.00  0.00    -0.082 Cl
BRANCH  15  19
ATOM     19  N   UNL     1      -4.635   4.209   0.032  0.00  0.00    +0.056 N 
ATOM     20  O   UNL     1      -4.645   5.259  -0.584  0.00  0.00    -0.126 OA
ATOM     21  O   UNL     1      -5.622   3.857   0.653  0.00  0.00    -0.126 OA
ENDBRANCH  15  19
ENDBRANCH  10  12
ENDBRANCH   1   8
BRANCH   1  22
ATOM     22  O   UNL     1       3.626   1.516   0.017  0.00  0.00    -0.443 OA
BRANCH  22  23
ATOM     23  C   UNL     1       4.738   0.979  -0.526  0.00  0.00    +0.344 C 
ATOM     24  O   UNL     1       4.719  -0.163  -0.945  0.00  0.00    -0.245 OA
BRANCH  23  27
ATOM     25  C   UNL     1       5.321   2.647  -2.882  0.00  0.00    +0.067 C 
ATOM     26  C   UNL     1       6.269   2.568  -1.713  0.00  0.00    +0.063 A 
ATOM     27  C   UNL     1       5.968   1.770  -0.611  0.00  0.00    +0.109 A 
ATOM     28  C   UNL     1       6.924   1.784   0.413  0.00  0.00    +0.100 A 
ATOM     29  S   UNL     1       8.121   2.860  -0.228  0.00  0.00    +0.027 S 
ATOM     30  N   UNL     1       7.382   3.245  -1.718  0.00  0.00    -0.213 NA
BRANCH  28  31
ATOM     31  N   UNL     1       6.915   1.113   1.618  0.00  0.00    -0.340 N 
ATOM     32  C   UNL     1       8.032   1.273   2.554  0.00  0.00    +0.126 C 
ATOM     33  H   UNL     1       6.170   0.535   1.847  0.00  0.00    +0.146 HD
ENDBRANCH  28  31
ENDBRANCH  23  27
ENDBRANCH  22  23
ENDBRANCH   1  22
TORSDOF 8
