REMARK  Name = ZINC13856389
REMARK  7 active torsions:
REMARK  status: ('A' for Active; 'I' for Inactive)
REMARK    1  A    between atoms: C_1  and  C_2
REMARK    2  A    between atoms: C_4  and  C_24
REMARK    3  A    between atoms: C_6  and  O_8
REMARK    4  A    between atoms: O_8  and  C_9
REMARK    5  A    between atoms: C_9  and  C_11
REMARK    6  A    between atoms: C_9  and  C_12
REMARK    7  A    between atoms: N_14  and  C_15
REMARK                            x       y       z     vdW  Elec       q    Type
REMARK                         _______ _______ _______ _____ _____    ______ ____
ROOT
ATOM      1  C   UNL     1       5.499  -1.882   2.661  0.00  0.00    +0.258 C 
ATOM      2  O   UNL     1       4.865  -2.908   2.537  0.00  0.00    -0.271 OA
ATOM      3  N   UNL     1       5.114  -0.769   2.005  0.00  0.00    -0.282 N 
ATOM      4  H   UNL     1       5.660   0.032   2.045  0.00  0.00    +0.155 HD
ENDROOT
BRANCH   3   5
ATOM      5  C   UNL     1       3.924  -0.768   1.265  0.00  0.00    +0.037 A 
ATOM      6  C   UNL     1       3.828  -0.010   0.106  0.00  0.00    +0.027 A 
ATOM      7  C   UNL     1       2.655  -0.008  -0.625  0.00  0.00    +0.051 A 
ATOM      8  C   UNL     1       1.573  -0.763  -0.204  0.00  0.00    +0.166 A 
ATOM      9  C   UNL     1       1.666  -1.524   0.959  0.00  0.00    +0.168 A 
ATOM     10  C   UNL     1       2.842  -1.525   1.691  0.00  0.00    +0.072 A 
ATOM     11  O   UNL     1       0.478  -2.168   1.155  0.00  0.00    -0.453 OA
ATOM     12  C   UNL     1      -0.201  -2.117  -0.113  0.00  0.00    +0.466 C 
ATOM     13  O   UNL     1       0.326  -0.931  -0.736  0.00  0.00    -0.453 OA
ENDBRANCH   3   5
BRANCH   1  14
ATOM     14  C   UNL     1       6.717  -1.850   3.547  0.00  0.00    +0.256 C 
ATOM     15  C   UNL     1       7.961  -1.591   2.696  0.00  0.00    +0.062 C 
BRANCH  14  16
ATOM     16  O   UNL     1       6.851  -3.106   4.217  0.00  0.00    -0.480 OA
BRANCH  16  22
ATOM     17  C   UNL     1       8.359  -5.522   8.181  0.00  0.00    +0.044 C 
ATOM     18  C   UNL     1       8.284  -4.264   7.354  0.00  0.00    -0.047 A 
ATOM     19  C   UNL     1       8.905  -3.110   7.795  0.00  0.00    +0.007 A 
ATOM     20  C   UNL     1       8.838  -1.954   7.039  0.00  0.00    -0.047 A 
ATOM     21  C   UNL     1       8.151  -1.950   5.840  0.00  0.00    +0.049 A 
ATOM     22  C   UNL     1       7.528  -3.107   5.396  0.00  0.00    +0.122 A 
ATOM     23  C   UNL     1       7.591  -4.264   6.159  0.00  0.00    +0.049 A 
ATOM     24  C   UNL     1       9.516  -0.698   7.522  0.00  0.00    +0.044 C 
ENDBRANCH  16  22
ENDBRANCH  14  16
ENDBRANCH   1  14
TORSDOF 4
