REMARK  Name = ZINC04386243
REMARK  13 active torsions:
REMARK  status: ('A' for Active; 'I' for Inactive)
REMARK    1  A    between atoms: C_1  and  C_2
REMARK    2  A    between atoms: C_2  and  C_3
REMARK    3  A    between atoms: C_3  and  C_5
REMARK    4  A    between atoms: C_3  and  N_6
REMARK    5  A    between atoms: N_11  and  C_12
REMARK    6  A    between atoms: C_12  and  C_13
REMARK    7  A    between atoms: C_13  and  C_15
REMARK    8  A    between atoms: C_13  and  O_24
REMARK    9  A    between atoms: C_15  and  O_16
REMARK   10  A    between atoms: O_16  and  C_17
REMARK   11  A    between atoms: C_20  and  C_23
REMARK   12  A    between atoms: N_27  and  C_32
REMARK   13  A    between atoms: N_30  and  C_31
REMARK                            x       y       z     vdW  Elec       q    Type
REMARK                         _______ _______ _______ _____ _____    ______ ____
ROOT
ATOM      1  N   UNL     1       1.213   4.080   2.334  0.00  0.00    -0.312 N 
ATOM      2  C   UNL     1       0.028   4.385   1.705  0.00  0.00    +0.198 A 
ATOM      3  N   UNL     1      -0.421   5.603   1.475  0.00  0.00    -0.196 NA
ATOM      4  C   UNL     1      -1.600   5.544   0.853  0.00  0.00    +0.170 A 
ATOM      5  C   UNL     1      -1.912   4.201   0.673  0.00  0.00    +0.153 A 
ATOM      6  N   UNL     1      -0.860   3.478   1.220  0.00  0.00    -0.304 N 
ATOM      7  C   UNL     1      -3.116   3.856   0.034  0.00  0.00    +0.282 A 
ATOM      8  O   UNL     1      -3.411   2.686  -0.134  0.00  0.00    -0.265 OA
ATOM      9  N   UNL     1      -3.942   4.835  -0.390  0.00  0.00    -0.262 N 
ATOM     10  C   UNL     1      -3.631   6.130  -0.211  0.00  0.00    +0.333 A 
ATOM     11  O   UNL     1      -4.400   6.985  -0.606  0.00  0.00    -0.246 OA
ATOM     12  N   UNL     1      -2.488   6.504   0.396  0.00  0.00    -0.280 N 
ATOM     13  C   UNL     1      -2.185   7.926   0.573  0.00  0.00    +0.155 C 
ATOM     14  C   UNL     1      -5.198   4.481  -1.056  0.00  0.00    +0.157 C 
ATOM     15  H   UNL     1       1.470   3.154   2.460  0.00  0.00    +0.149 HD
ENDROOT
BRANCH   1  16
ATOM     16  C   UNL     1       2.086   5.155   2.813  0.00  0.00    +0.070 C 
ATOM     17  C   UNL     1       1.631   5.599   4.204  0.00  0.00    +0.028 C 
BRANCH  16  19
ATOM     18  C   UNL     1       4.024   4.319   1.476  0.00  0.00    +0.005 C 
ATOM     19  C   UNL     1       3.527   4.647   2.885  0.00  0.00    +0.018 C 
ENDBRANCH  16  19
ENDBRANCH   1  16
BRANCH   6  20
ATOM     20  C   UNL     1      -0.735   2.019   1.269  0.00  0.00    +0.160 C 
BRANCH  20  21
ATOM     21  C   UNL     1      -0.019   1.526   0.010  0.00  0.00    +0.172 C 
BRANCH  21  22
ATOM     22  O   UNL     1       1.322   2.020   0.000  0.00  0.00    -0.387 OA
ATOM     23  H   UNL     1       1.851   1.738   0.759  0.00  0.00    +0.210 HD
ENDBRANCH  21  22
BRANCH  21  24
ATOM     24  C   UNL     1       0.002  -0.004   0.002  0.00  0.00    +0.262 C 
BRANCH  24  25
ATOM     25  O   UNL     1       0.566  -0.466  -1.227  0.00  0.00    -0.489 OA
BRANCH  25  26
ATOM     26  C   UNL     1       0.658  -1.811  -1.397  0.00  0.00    +0.121 A 
ATOM     27  C   UNL     1       0.220  -2.669  -0.398  0.00  0.00    +0.046 A 
ATOM     28  C   UNL     1       0.309  -4.036  -0.575  0.00  0.00    +0.007 A 
ATOM     29  C   UNL     1       0.845  -4.550  -1.742  0.00  0.00    -0.050 A 
ATOM     30  C   UNL     1       1.288  -3.697  -2.736  0.00  0.00    +0.007 A 
ATOM     31  C   UNL     1       1.196  -2.329  -2.566  0.00  0.00    +0.046 A 
ATOM     32  C   UNL     1       0.947  -6.042  -1.929  0.00  0.00    +0.044 C 
ENDBRANCH  25  26
ENDBRANCH  24  25
ENDBRANCH  21  24
ENDBRANCH  20  21
ENDBRANCH   6  20
TORSDOF 8
