REMARK  Name = ZINC28749767
REMARK  5 active torsions:
REMARK  status: ('A' for Active; 'I' for Inactive)
REMARK    1  A    between atoms: C_3  and  C_6
REMARK    2  A    between atoms: C_6  and  C_8
REMARK    3  A    between atoms: C_6  and  N_23
REMARK    4  A    between atoms: C_8  and  N_9
REMARK    5  A    between atoms: C_16  and  C_19
REMARK                            x       y       z     vdW  Elec       q    Type
REMARK                         _______ _______ _______ _____ _____    ______ ____
ROOT
ATOM      1  N   UNL     1      -3.784   2.227  -1.142  0.00  0.00    -0.329 N 
ATOM      2  C   UNL     1      -2.806   1.276  -1.412  0.00  0.00    +0.140 A 
ATOM      3  C   UNL     1      -1.676   1.184  -0.575  0.00  0.00    +0.049 A 
ATOM      4  C   UNL     1      -0.711   0.263  -0.833  0.00  0.00    +0.053 A 
ATOM      5  C   UNL     1      -0.862  -0.600  -1.935  0.00  0.00    +0.178 A 
ATOM      6  N   UNL     1      -0.128  -1.579  -2.439  0.00  0.00    -0.128 NA
ATOM      7  N   UNL     1      -0.720  -2.062  -3.476  0.00  0.00    -0.123 NA
ATOM      8  C   UNL     1      -1.847  -1.429  -3.688  0.00  0.00    +0.258 A 
ATOM      9  N   UNL     1      -1.977  -0.488  -2.729  0.00  0.00    -0.187 N 
ATOM     10  N   UNL     1      -2.948   0.473  -2.440  0.00  0.00    -0.148 NA
ATOM     11  H   UNL     1      -4.671   2.302  -1.789  0.00  0.00    +0.147 HD
ENDROOT
BRANCH   8  12
ATOM     12  C   UNL     1      -2.824  -1.701  -4.804  0.00  0.00    +0.454 C 
ATOM     13  F   UNL     1      -2.535  -2.941  -5.384  0.00  0.00    -0.163 F 
ATOM     14  F   UNL     1      -4.125  -1.717  -4.291  0.00  0.00    -0.163 F 
ATOM     15  F   UNL     1      -2.717  -0.697  -5.772  0.00  0.00    -0.163 F 
ENDBRANCH   8  12
BRANCH   1  16
ATOM     16  C   UNL     1      -3.635   3.128   0.003  0.00  0.00    +0.095 C 
BRANCH  16  17
ATOM     17  C   UNL     1      -4.781   4.141   0.008  0.00  0.00    +0.016 C 
BRANCH  17  18
ATOM     18  N   UNL     1      -4.562   5.123   1.079  0.00  0.00    +0.387 N 
ATOM     19  C   UNL     1      -3.277   5.842   0.887  0.00  0.00    -0.078 C 
ATOM     20  C   UNL     1      -3.460   7.127   1.732  0.00  0.00    -0.020 C 
ATOM     21  C   UNL     1      -4.948   7.482   1.505  0.00  0.00    -0.020 C 
ATOM     22  C   UNL     1      -5.613   6.164   1.066  0.00  0.00    -0.078 C 
ATOM     23  H   UNL     1      -4.574   4.549   2.018  0.00  0.00    -0.081 HD
ENDBRANCH  17  18
BRANCH  17  26
ATOM     24  C   UNL     1      -8.046   2.433  -0.045  0.00  0.00    +0.041 A 
ATOM     25  C   UNL     1      -6.980   3.089  -0.703  0.00  0.00    +0.043 A 
ATOM     26  C   UNL     1      -6.085   3.424   0.243  0.00  0.00    +0.093 A 
ATOM     27  O   UNL     1      -6.553   3.015   1.434  0.00  0.00    -0.469 OA
ATOM     28  C   UNL     1      -7.742   2.414   1.265  0.00  0.00    +0.195 A 
ENDBRANCH  17  26
ENDBRANCH  16  17
ENDBRANCH   1  16
TORSDOF 5
