REMARK  Name = ZINC10386723
REMARK  6 active torsions:
REMARK  status: ('A' for Active; 'I' for Inactive)
REMARK    1  A    between atoms: C_1  and  C_2
REMARK    2  A    between atoms: C_2  and  C_4
REMARK    3  A    between atoms: C_2  and  N_14
REMARK    4  A    between atoms: C_15  and  C_17
REMARK    5  A    between atoms: C_17  and  N_18
REMARK    6  A    between atoms: C_24  and  N_29
REMARK                            x       y       z     vdW  Elec       q    Type
REMARK                         _______ _______ _______ _____ _____    ______ ____
ROOT
ATOM      1  N   UNL     1      -2.378  -0.200  -0.876  0.00  0.00    -0.307 N 
ATOM      2  C   UNL     1      -3.473  -0.754  -1.433  0.00  0.00    +0.231 C 
ATOM      3  O   UNL     1      -4.572  -0.300  -1.194  0.00  0.00    -0.274 OA
ATOM      4  H   UNL     1      -1.500  -0.563  -1.067  0.00  0.00    +0.149 HD
ENDROOT
BRANCH   1   6
ATOM      5  C   UNL     1      -2.811   0.463   1.439  0.00  0.00    +0.033 C 
ATOM      6  C   UNL     1      -2.516   0.952   0.019  0.00  0.00    +0.100 C 
BRANCH   6   7
ATOM      7  C   UNL     1      -1.235   1.746   0.017  0.00  0.00    -0.027 A 
ATOM      8  C   UNL     1      -0.013   1.076   0.008  0.00  0.00    +0.006 A 
ATOM      9  C   UNL     1       1.163   1.762   0.000  0.00  0.00    +0.009 A 
ATOM     10  C   UNL     1       1.147   3.167   0.008  0.00  0.00    -0.018 A 
ATOM     11  C   UNL     1       2.340   3.910  -0.000  0.00  0.00    +0.008 A 
ATOM     12  C   UNL     1       2.286   5.270   0.007  0.00  0.00    +0.001 A 
ATOM     13  C   UNL     1       1.064   5.940   0.022  0.00  0.00    +0.001 A 
ATOM     14  C   UNL     1      -0.111   5.254   0.030  0.00  0.00    +0.008 A 
ATOM     15  C   UNL     1      -0.096   3.849   0.023  0.00  0.00    -0.018 A 
ATOM     16  C   UNL     1      -1.288   3.106   0.031  0.00  0.00    +0.014 A 
ENDBRANCH   6   7
ENDBRANCH   1   6
BRANCH   2  17
ATOM     17  C   UNL     1      -3.331  -1.939  -2.353  0.00  0.00    +0.212 C 
BRANCH  17  18
ATOM     18  N   UNL     1      -4.655  -2.353  -2.824  0.00  0.00    -0.225 N 
ATOM     19  C   UNL     1      -5.436  -3.257  -2.205  0.00  0.00    +0.254 C 
ATOM     20  O   UNL     1      -5.158  -3.851  -1.183  0.00  0.00    -0.270 OA
ATOM     21  C   UNL     1      -6.689  -3.404  -2.975  0.00  0.00    +0.050 A 
ATOM     22  C   UNL     1      -7.834  -4.169  -2.822  0.00  0.00    +0.016 A 
ATOM     23  C   UNL     1      -8.855  -4.071  -3.755  0.00  0.00    +0.033 A 
ATOM     24  C   UNL     1      -8.737  -3.218  -4.836  0.00  0.00    +0.127 A 
ATOM     25  C   UNL     1      -7.597  -2.447  -5.002  0.00  0.00    +0.046 A 
ATOM     26  C   UNL     1      -6.569  -2.534  -4.077  0.00  0.00    +0.052 A 
ATOM     27  C   UNL     1      -5.249  -1.883  -3.936  0.00  0.00    +0.254 C 
ATOM     28  O   UNL     1      -4.780  -1.060  -4.697  0.00  0.00    -0.270 OA
BRANCH  24  29
ATOM     29  N   UNL     1      -9.836  -3.126  -5.823  0.00  0.00    +0.056 N 
ATOM     30  O   UNL     1     -10.840  -3.801  -5.682  0.00  0.00    -0.126 OA
ATOM     31  O   UNL     1      -9.737  -2.375  -6.777  0.00  0.00    -0.126 OA
ENDBRANCH  24  29
ENDBRANCH  17  18
ENDBRANCH   2  17
TORSDOF 5
