REMARK  Name = ZINC22978004
REMARK  15 active torsions:
REMARK  status: ('A' for Active; 'I' for Inactive)
REMARK    1  A    between atoms: C_1  and  C_2
REMARK    2  A    between atoms: C_2  and  C_3
REMARK    3  A    between atoms: C_3  and  N_4
REMARK    4  A    between atoms: N_4  and  C_5
REMARK    5  A    between atoms: C_5  and  C_6
REMARK    6  A    between atoms: N_8  and  C_9
REMARK    7  A    between atoms: C_14  and  C_15
REMARK    8  A    between atoms: C_16  and  C_18
REMARK    9  A    between atoms: C_18  and  O_19
REMARK   10  A    between atoms: O_19  and  C_20
REMARK   11  A    between atoms: C_20  and  C_22
REMARK   12  A    between atoms: C_23  and  C_35
REMARK   13  A    between atoms: C_25  and  C_30
REMARK   14  A    between atoms: C_27  and  S_28
REMARK   15  A    between atoms: S_28  and  C_29
REMARK                            x       y       z     vdW  Elec       q    Type
REMARK                         _______ _______ _______ _____ _____    ______ ____
ROOT
ATOM      1  N   UNL     1       2.407   1.044  -0.032  0.00  0.00    -0.290 N 
ATOM      2  C   UNL     1       2.943   0.613   1.127  0.00  0.00    +0.254 C 
ATOM      3  O   UNL     1       2.493   1.001   2.185  0.00  0.00    -0.272 OA
ENDROOT
BRANCH   1   4
ATOM      4  C   UNL     1       2.950   0.575  -1.309  0.00  0.00    +0.108 C 
BRANCH   4   6
ATOM      5  C   UNL     1       4.629   1.032  -3.102  0.00  0.00    +0.005 C 
ATOM      6  C   UNL     1       4.062   1.522  -1.768  0.00  0.00    +0.016 C 
ENDBRANCH   4   6
ENDBRANCH   1   4
BRANCH   1   7
ATOM      7  C   UNL     1       1.280   1.980  -0.015  0.00  0.00    +0.203 C 
BRANCH   7   8
ATOM      8  C   UNL     1      -0.014   1.209   0.005  0.00  0.00    +0.235 C 
ATOM      9  O   UNL     1       0.003  -0.004   0.005  0.00  0.00    -0.274 OA
ATOM     10  N   UNL     1      -1.191   1.867   0.018  0.00  0.00    -0.284 N 
ATOM     11  H   UNL     1      -1.207   2.963   0.109  0.00  0.00    +0.155 HD
BRANCH  10  12
ATOM     12  C   UNL     1      -2.391   1.155  -0.086  0.00  0.00    +0.036 A 
ATOM     13  C   UNL     1      -2.411  -0.091  -0.699  0.00  0.00    +0.023 A 
ATOM     14  C   UNL     1      -3.596  -0.793  -0.796  0.00  0.00    +0.002 A 
ATOM     15  C   UNL     1      -4.765  -0.251  -0.292  0.00  0.00    +0.000 A 
ATOM     16  C   UNL     1      -4.750   0.992   0.314  0.00  0.00    +0.005 A 
ATOM     17  C   UNL     1      -3.566   1.696   0.418  0.00  0.00    -0.029 A 
ATOM     18  C   UNL     1      -3.551   3.051   1.078  0.00  0.00    +0.045 C 
ENDBRANCH  10  12
ENDBRANCH   7   8
ENDBRANCH   1   7
BRANCH   2  19
ATOM     19  C   UNL     1       4.101  -0.350   1.110  0.00  0.00    +0.328 C 
BRANCH  19  20
ATOM     20  O   UNL     1       4.495  -0.659   2.473  0.00  0.00    -0.452 OA
BRANCH  20  21
ATOM     21  C   UNL     1       5.525  -1.514   2.634  0.00  0.00    +0.344 C 
ATOM     22  O   UNL     1       6.080  -1.987   1.661  0.00  0.00    -0.245 OA
BRANCH  21  23
ATOM     23  C   UNL     1       5.978  -1.873   3.985  0.00  0.00    +0.112 A 
ATOM     24  C   UNL     1       6.968  -1.124   4.635  0.00  0.00    +0.057 A 
ATOM     25  N   UNL     1       7.348  -1.477   5.847  0.00  0.00    -0.229 NA
ATOM     26  C   UNL     1       6.806  -2.528   6.459  0.00  0.00    +0.197 A 
ATOM     27  N   UNL     1       5.865  -3.269   5.885  0.00  0.00    -0.218 NA
ATOM     28  C   UNL     1       5.422  -2.979   4.667  0.00  0.00    +0.115 A 
ATOM     29  C   UNL     1       7.590   0.070   3.957  0.00  0.00    +0.066 C 
BRANCH  26  30
ATOM     30  C   UNL     1       7.265  -2.881   7.814  0.00  0.00    +0.172 A 
ATOM     31  C   UNL     1       6.811  -3.922   8.567  0.00  0.00    +0.053 A 
ATOM     32  C   UNL     1       7.520  -3.883   9.780  0.00  0.00    +0.042 A 
ATOM     33  C   UNL     1       8.364  -2.832   9.713  0.00  0.00    +0.196 A 
ATOM     34  O   UNL     1       8.211  -2.233   8.523  0.00  0.00    -0.460 OA
ENDBRANCH  26  30
BRANCH  28  35
ATOM     35  S   UNL     1       4.168  -3.960   3.912  0.00  0.00    -0.108 S 
ATOM     36  C   UNL     1       3.880  -5.169   5.228  0.00  0.00    +0.091 C 
ENDBRANCH  28  35
ENDBRANCH  21  23
ENDBRANCH  20  21
ENDBRANCH  19  20
ENDBRANCH   2  19
TORSDOF 11
