REMARK  Name = ZINC12877074
REMARK  5 active torsions:
REMARK  status: ('A' for Active; 'I' for Inactive)
REMARK    1  A    between atoms: C_6  and  O_7
REMARK    2  A    between atoms: O_7  and  C_8
REMARK    3  A    between atoms: C_8  and  C_9
REMARK    4  A    between atoms: C_14  and  C_17
REMARK    5  A    between atoms: C_19  and  C_23
REMARK                            x       y       z     vdW  Elec       q    Type
REMARK                         _______ _______ _______ _____ _____    ______ ____
ROOT
ATOM      1  C   UNL     1      -0.718   1.572   1.248  0.00  0.00    +0.256 C 
ATOM      2  O   UNL     1      -1.715   2.256   1.150  0.00  0.00    -0.272 OA
ATOM      3  N   UNL     1      -0.242   1.246   2.466  0.00  0.00    -0.262 N 
ATOM      4  C   UNL     1      -0.892   1.694   3.609  0.00  0.00    +0.165 A 
ATOM      5  N   UNL     1      -0.582   1.482   4.872  0.00  0.00    -0.225 NA
ATOM      6  C   UNL     1      -1.315   1.987   5.853  0.00  0.00    +0.082 A 
ATOM      7  C   UNL     1      -2.407   2.737   5.518  0.00  0.00    +0.077 A 
ATOM      8  S   UNL     1      -2.315   2.681   3.735  0.00  0.00    -0.060 S 
ATOM      9  H   UNL     1       0.555   0.699   2.544  0.00  0.00    +0.157 HD
ENDROOT
BRANCH   6  10
ATOM     10  C   UNL     1      -0.961   1.745   7.275  0.00  0.00    +0.019 A 
ATOM     11  C   UNL     1       0.183   1.073   7.745  0.00  0.00    +0.042 A 
ATOM     12  C   UNL     1       0.121   1.077   9.111  0.00  0.00    +0.102 A 
ATOM     13  N   UNL     1      -1.035   1.725   9.482  0.00  0.00    -0.356 N 
ATOM     14  H   UNL     1      -1.333   1.868  10.394  0.00  0.00    +0.165 HD
ATOM     15  C   UNL     1      -1.688   2.128   8.365  0.00  0.00    +0.093 A 
BRANCH  12  16
ATOM     16  C   UNL     1       1.110   0.488  10.020  0.00  0.00    +0.258 C 
ATOM     17  O   UNL     1       2.099  -0.062   9.571  0.00  0.00    -0.269 OA
ATOM     18  N   UNL     1       0.924   0.556  11.353  0.00  0.00    -0.324 N 
ATOM     19  H   UNL     1       0.136   0.994  11.711  0.00  0.00    +0.145 HD
ATOM     20  H   UNL     1       1.578   0.167  11.955  0.00  0.00    +0.145 HD
ENDBRANCH  12  16
ENDBRANCH   6  10
BRANCH   1  21
ATOM     21  C   UNL     1      -0.013   1.086   0.008  0.00  0.00    +0.324 C 
BRANCH  21  22
ATOM     22  O   UNL     1      -0.704   1.559  -1.150  0.00  0.00    -0.483 OA
BRANCH  22  28
ATOM     23  C   UNL     1       0.951   0.428  -2.431  0.00  0.00    +0.047 A 
ATOM     24  C   UNL     1       1.464   0.066  -3.661  0.00  0.00    +0.019 A 
ATOM     25  C   UNL     1       0.844   0.491  -4.822  0.00  0.00    +0.018 A 
ATOM     26  C   UNL     1      -0.295   1.274  -4.754  0.00  0.00    +0.019 A 
ATOM     27  C   UNL     1      -0.815   1.633  -3.525  0.00  0.00    +0.047 A 
ATOM     28  C   UNL     1      -0.194   1.208  -2.360  0.00  0.00    +0.121 A 
ATOM     29 BR   UNL     1       1.552   0.001  -6.505  0.00  0.00    -0.050 Br
ENDBRANCH  22  28
ENDBRANCH  21  22
ENDBRANCH   1  21
TORSDOF 5
