REMARK  Name = ZINC03280810
REMARK  12 active torsions:
REMARK  status: ('A' for Active; 'I' for Inactive)
REMARK    1  A    between atoms: C_1  and  C_2
REMARK    2  A    between atoms: C_5  and  N_9
REMARK    3  A    between atoms: C_10  and  C_12
REMARK    4  A    between atoms: C_12  and  O_13
REMARK    5  A    between atoms: O_13  and  C_14
REMARK    6  A    between atoms: C_14  and  C_16
REMARK    7  A    between atoms: C_16  and  C_18
REMARK    8  A    between atoms: C_16  and  N_22
REMARK    9  A    between atoms: C_18  and  C_20
REMARK   10  A    between atoms: C_18  and  O_21
REMARK   11  A    between atoms: N_22  and  S_23
REMARK   12  A    between atoms: S_23  and  C_26
REMARK                            x       y       z     vdW  Elec       q    Type
REMARK                         _______ _______ _______ _____ _____    ______ ____
ROOT
ATOM      1  C   UNL     1      -0.573  -8.437  -4.193  0.00  0.00    +0.213 C 
ENDROOT
BRANCH   1   2
ATOM      2  C   UNL     1      -0.172  -8.082  -2.784  0.00  0.00    +0.329 C 
ATOM      3  O   UNL     1       0.079  -8.957  -1.989  0.00  0.00    -0.249 OA
BRANCH   2   4
ATOM      4  O   UNL     1      -0.095  -6.795  -2.412  0.00  0.00    -0.454 OA
BRANCH   4   5
ATOM      5  C   UNL     1       0.290  -6.532  -1.061  0.00  0.00    +0.328 C 
BRANCH   5   7
ATOM      6  N   UNL     1       0.661  -4.557   0.381  0.00  0.00    -0.282 N 
ATOM      7  C   UNL     1       0.322  -5.043  -0.829  0.00  0.00    +0.255 C 
ATOM      8  O   UNL     1       0.042  -4.282  -1.732  0.00  0.00    -0.272 OA
ATOM      9  H   UNL     1       0.955  -5.160   1.081  0.00  0.00    +0.155 HD
BRANCH   6  14
ATOM     10  C   UNL     1       0.370   1.021   1.381  0.00  0.00    +0.044 C 
ATOM     11  C   UNL     1       0.448  -0.460   1.116  0.00  0.00    -0.049 A 
ATOM     12  C   UNL     1      -0.264  -1.012   0.066  0.00  0.00    +0.005 A 
ATOM     13  C   UNL     1      -0.195  -2.369  -0.180  0.00  0.00    +0.025 A 
ATOM     14  C   UNL     1       0.590  -3.181   0.628  0.00  0.00    +0.048 A 
ATOM     15  C   UNL     1       1.304  -2.624   1.681  0.00  0.00    +0.039 A 
ATOM     16  C   UNL     1       1.236  -1.265   1.919  0.00  0.00    +0.020 A 
ATOM     17 BR   UNL     1       2.375  -3.725   2.785  0.00  0.00    -0.048 Br
ENDBRANCH   6  14
ENDBRANCH   5   7
ENDBRANCH   4   5
ENDBRANCH   2   4
ENDBRANCH   1   2
BRANCH   1  18
ATOM     18  C   UNL     1       0.429  -7.828  -5.176  0.00  0.00    +0.141 C 
ATOM     19  C   UNL     1       0.324  -6.302  -5.130  0.00  0.00    +0.040 C 
BRANCH  18  20
ATOM     20  O   UNL     1       0.137  -8.286  -6.498  0.00  0.00    -0.390 OA
ATOM     21  H   UNL     1       0.121  -9.248  -6.586  0.00  0.00    +0.210 HD
ENDBRANCH  18  20
ENDBRANCH   1  18
BRANCH   1  22
ATOM     22  N   UNL     1      -0.582  -9.894  -4.345  0.00  0.00    -0.174 NA
ATOM     23  H   UNL     1       0.239 -10.364  -4.561  0.00  0.00    +0.149 HD
BRANCH  22  24
ATOM     24  S   UNL     1      -1.993 -10.738  -4.150  0.00  0.00    +0.059 S 
ATOM     25  O   UNL     1      -1.681 -12.107  -4.366  0.00  0.00    -0.153 OA
ATOM     26  O   UNL     1      -2.582 -10.272  -2.944  0.00  0.00    -0.153 OA
BRANCH  24  27
ATOM     27  C   UNL     1      -3.073 -10.256  -5.457  0.00  0.00    +0.105 A 
ATOM     28  C   UNL     1      -3.926  -9.181  -5.287  0.00  0.00    +0.030 A 
ATOM     29  C   UNL     1      -4.773  -8.803  -6.312  0.00  0.00    +0.022 A 
ATOM     30  C   UNL     1      -4.768  -9.500  -7.507  0.00  0.00    +0.041 A 
ATOM     31  C   UNL     1      -3.914 -10.576  -7.676  0.00  0.00    +0.022 A 
ATOM     32  C   UNL     1      -3.063 -10.950  -6.652  0.00  0.00    +0.030 A 
ATOM     33 CL   UNL     1      -5.832  -9.026  -8.793  0.00  0.00    -0.084 Cl
ENDBRANCH  24  27
ENDBRANCH  22  24
ENDBRANCH   1  22
TORSDOF 10
