REMARK  Name = ZINC66274549
REMARK  8 active torsions:
REMARK  status: ('A' for Active; 'I' for Inactive)
REMARK    1  A    between atoms: C_1  and  C_2
REMARK    2  A    between atoms: C_2  and  C_3
REMARK    3  A    between atoms: C_3  and  C_5
REMARK    4  A    between atoms: C_3  and  N_13
REMARK    5  A    between atoms: C_8  and  O_11
REMARK    6  A    between atoms: O_11  and  C_12
REMARK    7  A    between atoms: C_14  and  C_16
REMARK    8  A    between atoms: C_18  and  N_26
REMARK                            x       y       z     vdW  Elec       q    Type
REMARK                         _______ _______ _______ _____ _____    ______ ____
ROOT
ATOM      1  N   UNL     1       2.125  -0.091  -1.209  0.00  0.00    -0.304 N 
ATOM      2  C   UNL     1       2.487   1.134  -1.640  0.00  0.00    +0.248 C 
ATOM      3  O   UNL     1       1.647   1.901  -2.067  0.00  0.00    -0.270 OA
ATOM      4  H   UNL     1       2.795  -0.703  -0.868  0.00  0.00    +0.150 HD
ENDROOT
BRANCH   2   5
ATOM      5  C   UNL     1       3.904   1.543  -1.592  0.00  0.00    +0.084 A 
ATOM      6  C   UNL     1       4.873   0.661  -1.106  0.00  0.00    +0.049 A 
ATOM      7  C   UNL     1       6.195   1.047  -1.064  0.00  0.00    +0.131 A 
ATOM      8  C   UNL     1       6.570   2.307  -1.499  0.00  0.00    +0.082 A 
ATOM      9  C   UNL     1       5.620   3.193  -1.983  0.00  0.00    +0.165 A 
ATOM     10  C   UNL     1       4.284   2.815  -2.038  0.00  0.00    +0.174 A 
ATOM     11  O   UNL     1       3.339   3.664  -2.520  0.00  0.00    -0.484 OA
ATOM     12  C   UNL     1       3.699   5.047  -2.605  0.00  0.00    +0.270 C 
ATOM     13  C   UNL     1       5.093   5.143  -3.240  0.00  0.00    +0.270 C 
ATOM     14  O   UNL     1       6.012   4.428  -2.401  0.00  0.00    -0.485 OA
BRANCH   7  15
ATOM     15  N   UNL     1       7.220   0.110  -0.550  0.00  0.00    +0.057 N 
ATOM     16  O   UNL     1       6.896  -0.990  -0.169  0.00  0.00    -0.126 OA
ATOM     17  O   UNL     1       8.380   0.446  -0.511  0.00  0.00    -0.126 OA
ENDBRANCH   7  15
ENDBRANCH   2   5
BRANCH   1  18
ATOM     18  C   UNL     1       0.718  -0.497  -1.257  0.00  0.00    +0.103 C 
BRANCH  18  19
ATOM     19  C   UNL     1       0.632  -2.000  -1.327  0.00  0.00    -0.027 A 
ATOM     20  C   UNL     1       1.489  -2.777  -0.570  0.00  0.00    +0.009 A 
ATOM     21  C   UNL     1       1.412  -4.155  -0.634  0.00  0.00    +0.046 A 
ATOM     22  C   UNL     1       0.473  -4.759  -1.458  0.00  0.00    +0.120 A 
ATOM     23  C   UNL     1      -0.386  -3.977  -2.216  0.00  0.00    +0.046 A 
ATOM     24  C   UNL     1      -0.308  -2.600  -2.145  0.00  0.00    +0.009 A 
BRANCH  22  25
ATOM     25  O   UNL     1       0.396  -6.114  -1.522  0.00  0.00    -0.495 OA
ATOM     26  C   UNL     1      -0.595  -6.667  -2.392  0.00  0.00    +0.277 C 
ENDBRANCH  22  25
ENDBRANCH  18  19
BRANCH  18  28
ATOM     27  C   UNL     1      -0.019   1.526   0.010  0.00  0.00    +0.006 C 
ATOM     28  C   UNL     1       0.002  -0.004   0.002  0.00  0.00    +0.024 C 
ENDBRANCH  18  28
ENDBRANCH   1  18
TORSDOF 6
