REMARK  Name = ZINC24901805
REMARK  8 active torsions:
REMARK  status: ('A' for Active; 'I' for Inactive)
REMARK    1  A    between atoms: C_1  and  C_2
REMARK    2  A    between atoms: C_2  and  C_4
REMARK    3  A    between atoms: C_2  and  S_14
REMARK    4  A    between atoms: N_10  and  C_11
REMARK    5  A    between atoms: N_10  and  C_12
REMARK    6  A    between atoms: S_14  and  C_15
REMARK    7  A    between atoms: N_25  and  C_26
REMARK    8  A    between atoms: C_26  and  C_27
REMARK                            x       y       z     vdW  Elec       q    Type
REMARK                         _______ _______ _______ _____ _____    ______ ____
ROOT
ATOM      1  C   UNL     1      -1.061  -2.294   2.018  0.00  0.00    +0.173 A 
ATOM      2  N   UNL     1      -1.351  -2.619   3.254  0.00  0.00    -0.223 NA
ATOM      3  C   UNL     1      -2.209  -1.888   3.993  0.00  0.00    +0.079 A 
ATOM      4  C   UNL     1      -2.524  -2.238   5.310  0.00  0.00    +0.028 A 
ATOM      5  C   UNL     1      -3.400  -1.470   6.023  0.00  0.00    +0.002 A 
ATOM      6  C   UNL     1      -3.985  -0.343   5.459  0.00  0.00    +0.001 A 
ATOM      7  C   UNL     1      -3.697   0.025   4.174  0.00  0.00    +0.015 A 
ATOM      8  C   UNL     1      -2.807  -0.741   3.423  0.00  0.00    +0.065 A 
ATOM      9  C   UNL     1      -2.461  -0.394   2.038  0.00  0.00    +0.263 A 
ATOM     10  O   UNL     1      -2.942   0.582   1.492  0.00  0.00    -0.267 OA
ATOM     11  N   UNL     1      -1.587  -1.201   1.391  0.00  0.00    -0.280 N 
ENDROOT
BRANCH   1  12
ATOM     12  S   UNL     1       0.066  -3.312   1.125  0.00  0.00    -0.077 S 
BRANCH  12  14
ATOM     13  C   UNL     1       1.156  -3.900   3.560  0.00  0.00    +0.028 C 
ATOM     14  C   UNL     1       0.431  -4.559   2.385  0.00  0.00    +0.119 C 
BRANCH  14  15
ATOM     15  C   UNL     1       1.307  -5.632   1.792  0.00  0.00    +0.149 A 
ATOM     16  N   UNL     1       2.342  -5.298   1.042  0.00  0.00    -0.198 NA
ATOM     17  C   UNL     1       3.119  -6.242   0.517  0.00  0.00    +0.217 A 
ATOM     18  N   UNL     1       2.851  -7.523   0.747  0.00  0.00    -0.181 NA
ATOM     19  C   UNL     1       1.809  -7.856   1.501  0.00  0.00    +0.222 A 
ATOM     20  N   UNL     1       1.040  -6.905   2.027  0.00  0.00    -0.198 NA
ATOM     21  N   UNL     1       1.527  -9.185   1.742  0.00  0.00    -0.306 N 
ATOM     22  C   UNL     1       2.377 -10.230   1.167  0.00  0.00    +0.132 C 
ATOM     23  C   UNL     1       0.378  -9.550   2.574  0.00  0.00    +0.132 C 
ATOM     24  N   UNL     1       4.200  -5.892  -0.266  0.00  0.00    -0.327 N 
ATOM     25  H   UNL     1       4.841  -6.674  -0.700  0.00  0.00    +0.145 HD
ATOM     26  H   UNL     1       4.420  -4.832  -0.456  0.00  0.00    +0.145 HD
ENDBRANCH  14  15
ENDBRANCH  12  14
ENDBRANCH   1  12
BRANCH  11  27
ATOM     27  C   UNL     1      -1.208  -0.902   0.008  0.00  0.00    +0.201 C 
BRANCH  27  28
ATOM     28  C   UNL     1       0.002  -0.004   0.002  0.00  0.00    +0.125 A 
ATOM     29  C   UNL     1       1.284  -0.412  -0.012  0.00  0.00    +0.046 A 
ATOM     30  C   UNL     1       2.084   0.754  -0.014  0.00  0.00    +0.041 A 
ATOM     31  C   UNL     1       1.244   1.804  -0.000  0.00  0.00    +0.195 A 
ATOM     32  O   UNL     1      -0.016   1.339   0.009  0.00  0.00    -0.466 OA
ENDBRANCH  27  28
ENDBRANCH  11  27
TORSDOF 5
