REMARK  Name = ZINC40038104
REMARK  8 active torsions:
REMARK  status: ('A' for Active; 'I' for Inactive)
REMARK    1  A    between atoms: C_1  and  C_2
REMARK    2  A    between atoms: C_4  and  C_31
REMARK    3  A    between atoms: C_8  and  C_30
REMARK    4  A    between atoms: C_9  and  C_11
REMARK    5  A    between atoms: N_13  and  C_14
REMARK    6  A    between atoms: C_17  and  S_20
REMARK    7  A    between atoms: S_20  and  N_23
REMARK    8  A    between atoms: C_26  and  C_29
REMARK                            x       y       z     vdW  Elec       q    Type
REMARK                         _______ _______ _______ _____ _____    ______ ____
ROOT
ATOM      1  C   UNL     1       0.676  -5.684   2.078  0.00  0.00    +0.284 C 
ATOM      2  O   UNL     1       1.217  -5.817   3.159  0.00  0.00    -0.266 OA
ATOM      3  N   UNL     1       0.103  -6.744   1.475  0.00  0.00    -0.279 N 
ATOM      4  H   UNL     1      -0.386  -6.625   0.646  0.00  0.00    +0.155 HD
ENDROOT
BRANCH   1  13
ATOM      5  C   UNL     1       1.128   1.386  -0.263  0.00  0.00    +0.044 C 
ATOM      6  C   UNL     1       0.814  -0.086  -0.190  0.00  0.00    -0.049 A 
ATOM      7  C   UNL     1       0.119  -0.695  -1.226  0.00  0.00    +0.010 A 
ATOM      8  C   UNL     1      -0.178  -2.040  -1.181  0.00  0.00    -0.007 A 
ATOM      9  C   UNL     1       0.220  -2.800  -0.087  0.00  0.00    +0.139 A 
ATOM     10  C   UNL     1       0.923  -2.177   0.961  0.00  0.00    +0.024 A 
ATOM     11  C   UNL     1       1.220  -0.814   0.893  0.00  0.00    +0.015 A 
ATOM     12  C   UNL     1       1.190  -3.230   1.940  0.00  0.00    +0.008 A 
ATOM     13  C   UNL     1       0.647  -4.366   1.428  0.00  0.00    +0.194 A 
ATOM     14  O   UNL     1       0.078  -4.100   0.234  0.00  0.00    -0.450 OA
ATOM     15  C   UNL     1       1.920  -3.086   3.251  0.00  0.00    +0.048 C 
ATOM     16  C   UNL     1      -0.934  -2.685  -2.314  0.00  0.00    +0.047 C 
ENDBRANCH   1  13
BRANCH   3  17
ATOM     17  C   UNL     1       0.214  -8.016   2.045  0.00  0.00    +0.034 A 
ATOM     18  C   UNL     1       0.211  -8.163   3.426  0.00  0.00    +0.025 A 
ATOM     19  C   UNL     1       0.321  -9.421   3.986  0.00  0.00    +0.030 A 
ATOM     20  C   UNL     1       0.433 -10.533   3.172  0.00  0.00    +0.106 A 
ATOM     21  C   UNL     1       0.437 -10.391   1.797  0.00  0.00    +0.030 A 
ATOM     22  C   UNL     1       0.321  -9.137   1.231  0.00  0.00    +0.025 A 
BRANCH  20  23
ATOM     23  S   UNL     1       0.573 -12.136   3.890  0.00  0.00    +0.061 S 
ATOM     24  O   UNL     1       1.213 -12.959   2.925  0.00  0.00    -0.153 OA
ATOM     25  O   UNL     1       1.093 -11.951   5.199  0.00  0.00    -0.153 OA
BRANCH  23  26
ATOM     26  N   UNL     1      -0.964 -12.727   4.071  0.00  0.00    -0.177 NA
ATOM     27  C   UNL     1      -1.722 -12.477   5.305  0.00  0.00    +0.110 C 
ATOM     28  C   UNL     1      -2.209 -13.818   5.864  0.00  0.00    +0.020 C 
ATOM     29  C   UNL     1      -2.997 -14.561   4.782  0.00  0.00    -0.012 C 
ATOM     30  C   UNL     1      -2.085 -14.840   3.586  0.00  0.00    +0.020 C 
ATOM     31  C   UNL     1      -1.597 -13.506   2.999  0.00  0.00    +0.110 C 
ATOM     32  C   UNL     1      -3.515 -15.884   5.348  0.00  0.00    +0.007 C 
ENDBRANCH  23  26
ENDBRANCH  20  23
ENDBRANCH   3  17
TORSDOF 4
