REMARK  Name = ZINC66930135
REMARK  6 active torsions:
REMARK  status: ('A' for Active; 'I' for Inactive)
REMARK    1  A    between atoms: C_10  and  C_11
REMARK    2  A    between atoms: C_10  and  O_29
REMARK    3  A    between atoms: C_11  and  N_12
REMARK    4  A    between atoms: C_13  and  C_15
REMARK    5  A    between atoms: C_15  and  C_16
REMARK    6  A    between atoms: C_16  and  N_17
REMARK                            x       y       z     vdW  Elec       q    Type
REMARK                         _______ _______ _______ _____ _____    ______ ____
ROOT
ATOM      1  N   UNL     1       4.733   1.477  -0.622  0.00  0.00    -0.312 N 
ATOM      2  C   UNL     1       5.418   2.343  -1.394  0.00  0.00    +0.215 C 
ATOM      3  O   UNL     1       5.983   1.949  -2.393  0.00  0.00    -0.276 OA
ATOM      4  H   UNL     1       4.281   1.792   0.177  0.00  0.00    +0.149 HD
ENDROOT
BRANCH   1   5
ATOM      5  C   UNL     1       4.671   0.060  -0.987  0.00  0.00    +0.143 C 
BRANCH   5  15
ATOM      6  C   UNL     1       3.635  -4.797  -1.159  0.00  0.00    +0.000 A 
ATOM      7  C   UNL     1       3.604  -3.797  -2.113  0.00  0.00    +0.000 A 
ATOM      8  C   UNL     1       3.643  -2.475  -1.720  0.00  0.00    +0.007 A 
ATOM      9  C   UNL     1       3.714  -2.140  -0.374  0.00  0.00    -0.011 A 
ATOM     10  C   UNL     1       3.749  -3.136   0.575  0.00  0.00    -0.041 A 
ATOM     11  C   UNL     1       3.706  -4.467   0.178  0.00  0.00    +0.004 A 
ATOM     12  C   UNL     1       3.843  -2.847   2.051  0.00  0.00    +0.035 C 
ATOM     13  C   UNL     1       3.451  -1.399   2.340  0.00  0.00    +0.008 C 
ATOM     14  C   UNL     1       4.257  -0.485   1.410  0.00  0.00    +0.041 C 
ATOM     15  C   UNL     1       3.746  -0.677  -0.016  0.00  0.00    +0.107 C 
BRANCH  15  16
ATOM     16  O   UNL     1       2.427  -0.138  -0.121  0.00  0.00    -0.382 OA
ATOM     17  H   UNL     1       2.042  -0.209  -1.006  0.00  0.00    +0.211 HD
ENDBRANCH  15  16
ENDBRANCH   5  15
ENDBRANCH   1   5
BRANCH   2  18
ATOM     18  C   UNL     1       5.482   3.801  -1.018  0.00  0.00    +0.115 C 
BRANCH  18  19
ATOM     19  C   UNL     1       6.315   4.559  -2.054  0.00  0.00    +0.127 C 
BRANCH  19  20
ATOM     20  N   UNL     1       6.378   5.976  -1.688  0.00  0.00    -0.224 N 
ATOM     21  C   UNL     1       5.485   6.903  -2.093  0.00  0.00    +0.247 C 
ATOM     22  O   UNL     1       4.517   6.730  -2.802  0.00  0.00    -0.273 OA
ATOM     23  C   UNL     1       5.947   8.204  -1.477  0.00  0.00    +0.113 C 
ATOM     24  C   UNL     1       4.882   8.755  -0.537  0.00  0.00    +0.035 C 
ATOM     25  C   UNL     1       5.381  10.055   0.099  0.00  0.00    +0.003 C 
ATOM     26  C   UNL     1       5.691  11.073  -1.001  0.00  0.00    +0.000 C 
ATOM     27  C   UNL     1       6.778  10.516  -1.922  0.00  0.00    +0.003 C 
ATOM     28  C   UNL     1       6.284   9.217  -2.566  0.00  0.00    +0.035 C 
ATOM     29  N   UNL     1       7.155   7.834  -0.728  0.00  0.00    -0.285 N 
ATOM     30  C   UNL     1       7.324   6.510  -0.906  0.00  0.00    +0.309 C 
ATOM     31  O   UNL     1       8.234   5.873  -0.415  0.00  0.00    -0.252 OA
ATOM     32  H   UNL     1       7.717   8.426  -0.204  0.00  0.00    +0.151 HD
ENDBRANCH  19  20
ENDBRANCH  18  19
ENDBRANCH   2  18
TORSDOF 6
