REMARK  Name = ZINC44649610
REMARK  11 active torsions:
REMARK  status: ('A' for Active; 'I' for Inactive)
REMARK    1  A    between atoms: C_1  and  C_2
REMARK    2  A    between atoms: C_2  and  C_4
REMARK    3  A    between atoms: C_2  and  O_15
REMARK    4  A    between atoms: C_4  and  C_6
REMARK    5  A    between atoms: O_15  and  C_16
REMARK    6  A    between atoms: C_16  and  C_18
REMARK    7  A    between atoms: C_23  and  C_24
REMARK    8  A    between atoms: C_24  and  C_26
REMARK    9  A    between atoms: C_29  and  N_35
REMARK   10  A    between atoms: C_30  and  N_32
REMARK   11  A    between atoms: N_35  and  C_36
REMARK                            x       y       z     vdW  Elec       q    Type
REMARK                         _______ _______ _______ _____ _____    ______ ____
ROOT
ATOM      1  C   UNL     1       0.571  -1.027  -3.413  0.00  0.00    +0.070 A 
ATOM      2  C   UNL     1       1.954  -1.176  -3.472  0.00  0.00    +0.016 A 
ATOM      3  C   UNL     1       2.544  -1.713  -4.601  0.00  0.00    +0.001 A 
ATOM      4  C   UNL     1       1.768  -2.104  -5.678  0.00  0.00    +0.001 A 
ATOM      5  C   UNL     1       0.394  -1.963  -5.638  0.00  0.00    +0.012 A 
ATOM      6  C   UNL     1      -0.219  -1.430  -4.507  0.00  0.00    +0.036 A 
ENDROOT
BRANCH   1   7
ATOM      7  C   UNL     1      -0.065  -0.454  -2.208  0.00  0.00    +0.341 C 
ATOM      8  O   UNL     1      -1.258  -0.230  -2.199  0.00  0.00    -0.245 OA
BRANCH   7   9
ATOM      9  O   UNL     1       0.680  -0.178  -1.120  0.00  0.00    -0.450 OA
BRANCH   9  11
ATOM     10  C   UNL     1       0.003   1.901  -0.092  0.00  0.00    +0.061 C 
ATOM     11  C   UNL     1       0.001   0.374   0.009  0.00  0.00    +0.244 C 
BRANCH  11  12
ATOM     12  C   UNL     1       0.703  -0.047   1.274  0.00  0.00    +0.202 C 
ATOM     13  O   UNL     1       1.856  -0.427   1.231  0.00  0.00    -0.288 OA
BRANCH  12  14
ATOM     14  C   UNL     1       0.021   0.000   2.509  0.00  0.00    +0.027 C 
ATOM     15  C   UNL     1       0.519  -0.343   3.753  0.00  0.00    +0.006 A 
ATOM     16  C   UNL     1       1.778  -0.822   4.187  0.00  0.00    +0.010 A 
ATOM     17  C   UNL     1       1.993  -1.082   5.496  0.00  0.00    +0.001 A 
ATOM     18  C   UNL     1       1.004  -0.896   6.474  0.00  0.00    +0.002 A 
ATOM     19  C   UNL     1      -0.231  -0.444   6.165  0.00  0.00    +0.026 A 
ATOM     20  C   UNL     1      -0.549  -0.135   4.761  0.00  0.00    +0.043 A 
ATOM     21  N   UNL     1      -1.635   0.305   4.192  0.00  0.00    -0.380 N 
ATOM     22  C   UNL     1      -1.405   0.443   2.750  0.00  0.00    +0.152 C 
ATOM     23  H   UNL     1      -2.464   0.513   4.650  0.00  0.00    +0.160 HD
ENDBRANCH  12  14
ENDBRANCH  11  12
ENDBRANCH   9  11
ENDBRANCH   7   9
ENDBRANCH   1   7
BRANCH   6  24
ATOM     24  C   UNL     1      -1.690  -1.284  -4.456  0.00  0.00    +0.194 C 
ATOM     25  O   UNL     1      -2.231  -0.378  -5.059  0.00  0.00    -0.287 OA
BRANCH  24  26
ATOM     26  C   UNL     1      -2.498  -2.236  -3.675  0.00  0.00    +0.025 A 
ATOM     27  C   UNL     1      -1.872  -3.226  -2.910  0.00  0.00    +0.013 A 
ATOM     28  C   UNL     1      -2.625  -4.107  -2.187  0.00  0.00    +0.026 A 
ATOM     29  C   UNL     1      -4.015  -4.021  -2.211  0.00  0.00    +0.058 A 
ATOM     30  C   UNL     1      -4.642  -3.037  -2.972  0.00  0.00    +0.148 A 
ATOM     31  C   UNL     1      -3.895  -2.149  -3.692  0.00  0.00    +0.046 A 
BRANCH  30  32
ATOM     32  N   UNL     1      -6.120  -2.950  -2.995  0.00  0.00    +0.058 N 
ATOM     33  O   UNL     1      -6.692  -2.657  -4.019  0.00  0.00    -0.126 OA
ATOM     34  O   UNL     1      -6.754  -3.172  -1.990  0.00  0.00    -0.126 OA
ENDBRANCH  30  32
BRANCH  29  35
ATOM     35  N   UNL     1      -4.778  -4.918  -1.474  0.00  0.00    -0.345 N 
ATOM     36  C   UNL     1      -4.126  -6.016  -0.755  0.00  0.00    +0.125 C 
ATOM     37  H   UNL     1      -5.742  -4.819  -1.436  0.00  0.00    +0.146 HD
ENDBRANCH  29  35
ENDBRANCH  24  26
ENDBRANCH   6  24
TORSDOF 9
