REMARK  Name = ZINC20493164
REMARK  13 active torsions:
REMARK  status: ('A' for Active; 'I' for Inactive)
REMARK    1  A    between atoms: C_1  and  C_2
REMARK    2  A    between atoms: C_2  and  O_3
REMARK    3  A    between atoms: O_3  and  C_4
REMARK    4  A    between atoms: C_9  and  N_10
REMARK    5  A    between atoms: N_10  and  C_11
REMARK    6  A    between atoms: N_10  and  S_27
REMARK    7  A    between atoms: C_11  and  C_12
REMARK    8  A    between atoms: N_14  and  N_15
REMARK    9  A    between atoms: C_16  and  C_17
REMARK   10  A    between atoms: C_20  and  C_23
REMARK   11  A    between atoms: C_23  and  O_25
REMARK   12  A    between atoms: O_25  and  C_26
REMARK   13  A    between atoms: S_27  and  C_30
REMARK                            x       y       z     vdW  Elec       q    Type
REMARK                         _______ _______ _______ _____ _____    ______ ____
ROOT
ATOM      1  N   UNL     1       2.018  -1.505   3.373  0.00  0.00    -0.191 N 
ENDROOT
BRANCH   1   7
ATOM      2  C   UNL     1       0.802  -1.825   1.306  0.00  0.00    +0.143 A 
ATOM      3  C   UNL     1       0.261  -2.673   0.353  0.00  0.00    +0.047 A 
ATOM      4  C   UNL     1       0.372  -4.043   0.503  0.00  0.00    +0.004 A 
ATOM      5  C   UNL     1       1.023  -4.571   1.603  0.00  0.00    +0.002 A 
ATOM      6  C   UNL     1       1.566  -3.732   2.558  0.00  0.00    +0.028 A 
ATOM      7  C   UNL     1       1.463  -2.357   2.411  0.00  0.00    +0.093 A 
BRANCH   2   8
ATOM      8  O   UNL     1       0.693  -0.477   1.160  0.00  0.00    -0.490 OA
BRANCH   8  10
ATOM      9  C   UNL     1      -0.019   1.526   0.010  0.00  0.00    +0.048 C 
ATOM     10  C   UNL     1       0.002  -0.004   0.002  0.00  0.00    +0.226 C 
ENDBRANCH   8  10
ENDBRANCH   2   8
ENDBRANCH   1   7
BRANCH   1  11
ATOM     11  S   UNL     1       1.075  -0.922   4.604  0.00  0.00    +0.075 S 
ATOM     12  O   UNL     1       1.689   0.279   5.052  0.00  0.00    -0.150 OA
ATOM     13  O   UNL     1      -0.268  -0.965   4.143  0.00  0.00    -0.150 OA
BRANCH  11  14
ATOM     14  C   UNL     1       1.188  -2.071   5.935  0.00  0.00    +0.109 A 
ATOM     15  C   UNL     1       0.294  -3.123   6.017  0.00  0.00    +0.029 A 
ATOM     16  C   UNL     1       0.382  -4.025   7.061  0.00  0.00    +0.002 A 
ATOM     17  C   UNL     1       1.364  -3.875   8.023  0.00  0.00    +0.000 A 
ATOM     18  C   UNL     1       2.257  -2.824   7.941  0.00  0.00    +0.002 A 
ATOM     19  C   UNL     1       2.172  -1.924   6.894  0.00  0.00    +0.029 A 
ENDBRANCH  11  14
ENDBRANCH   1  11
BRANCH   1  20
ATOM     20  C   UNL     1       3.431  -1.129   3.292  0.00  0.00    +0.229 C 
BRANCH  20  21
ATOM     21  C   UNL     1       3.585   0.051   2.368  0.00  0.00    +0.251 C 
ATOM     22  O   UNL     1       2.609   0.532   1.831  0.00  0.00    -0.272 OA
ATOM     23  N   UNL     1       4.806   0.574   2.139  0.00  0.00    -0.206 N 
ATOM     24  H   UNL     1       5.586   0.189   2.569  0.00  0.00    +0.177 HD
BRANCH  23  25
ATOM     25  N   UNL     1       4.949   1.671   1.280  0.00  0.00    -0.188 NA
ATOM     26  C   UNL     1       6.125   2.174   1.060  0.00  0.00    +0.138 C 
BRANCH  26  27
ATOM     27  C   UNL     1       6.275   3.328   0.157  0.00  0.00    -0.005 A 
ATOM     28  C   UNL     1       5.150   3.886  -0.459  0.00  0.00    +0.010 A 
ATOM     29  C   UNL     1       5.289   4.957  -1.295  0.00  0.00    +0.015 A 
ATOM     30  C   UNL     1       6.557   5.495  -1.537  0.00  0.00    +0.059 A 
ATOM     31  C   UNL     1       7.682   4.937  -0.922  0.00  0.00    +0.015 A 
ATOM     32  C   UNL     1       7.543   3.870  -0.081  0.00  0.00    +0.010 A 
BRANCH  30  33
ATOM     33  C   UNL     1       6.707   6.651  -2.441  0.00  0.00    +0.339 C 
ATOM     34  O   UNL     1       5.729   7.135  -2.975  0.00  0.00    -0.245 OA
BRANCH  33  35
ATOM     35  O   UNL     1       7.929   7.170  -2.674  0.00  0.00    -0.464 OA
ATOM     36  C   UNL     1       8.000   8.289  -3.560  0.00  0.00    +0.280 C 
ENDBRANCH  33  35
ENDBRANCH  30  33
ENDBRANCH  26  27
ENDBRANCH  23  25
ENDBRANCH  20  21
ENDBRANCH   1  20
TORSDOF 11
