REMARK  Name = ZINC40916755
REMARK  8 active torsions:
REMARK  status: ('A' for Active; 'I' for Inactive)
REMARK    1  A    between atoms: C_1  and  C_2
REMARK    2  A    between atoms: C_6  and  C_8
REMARK    3  A    between atoms: C_9  and  C_26
REMARK    4  A    between atoms: C_11  and  C_14
REMARK    5  A    between atoms: C_14  and  C_15
REMARK    6  A    between atoms: C_15  and  C_16
REMARK    7  A    between atoms: C_19  and  S_22
REMARK    8  A    between atoms: S_22  and  N_25
REMARK                            x       y       z     vdW  Elec       q    Type
REMARK                         _______ _______ _______ _____ _____    ______ ____
ROOT
ATOM      1  C   UNL     1       0.050  -2.682   2.487  0.00  0.00    +0.092 A 
ATOM      2  C   UNL     1       0.512  -2.179   3.691  0.00  0.00    +0.098 A 
ATOM      3  N   UNL     1       0.340  -3.139   4.619  0.00  0.00    -0.232 NA
ATOM      4  C   UNL     1      -0.194  -4.191   4.064  0.00  0.00    +0.109 A 
ATOM      5  N   UNL     1      -0.397  -3.956   2.750  0.00  0.00    -0.340 N 
ATOM      6  H   UNL     1      -0.784  -4.573   2.109  0.00  0.00    +0.167 HD
ENDROOT
BRANCH   2   7
ATOM      7  C   UNL     1       1.088  -0.834   3.917  0.00  0.00    +0.005 A 
ATOM      8  C   UNL     1       1.867  -0.231   2.913  0.00  0.00    +0.012 A 
ATOM      9  C   UNL     1       2.406   1.000   3.096  0.00  0.00    +0.030 A 
ATOM     10  C   UNL     1       2.190   1.692   4.302  0.00  0.00    +0.089 A 
ATOM     11  C   UNL     1       1.406   1.094   5.323  0.00  0.00    +0.090 A 
ATOM     12  C   UNL     1       0.853  -0.178   5.112  0.00  0.00    +0.040 A 
ATOM     13  N   UNL     1       1.200   1.753   6.470  0.00  0.00    -0.252 NA
ATOM     14  C   UNL     1       1.725   2.945   6.639  0.00  0.00    +0.131 A 
ATOM     15  C   UNL     1       2.496   3.533   5.635  0.00  0.00    +0.131 A 
ATOM     16  N   UNL     1       2.712   2.907   4.500  0.00  0.00    -0.252 NA
ENDBRANCH   2   7
BRANCH   1  22
ATOM     17  C   UNL     1      -0.018   1.503   0.010  0.00  0.00    +0.065 C 
ATOM     18  C   UNL     1       0.002  -0.004   0.002  0.00  0.00    +0.039 A 
ATOM     19  C   UNL     1       0.005  -0.679  -1.205  0.00  0.00    +0.023 A 
ATOM     20  C   UNL     1       0.024  -2.067  -1.210  0.00  0.00    +0.004 A 
ATOM     21  C   UNL     1       0.039  -2.733   0.003  0.00  0.00    +0.030 A 
ATOM     22  C   UNL     1       0.035  -1.988   1.184  0.00  0.00    +0.090 A 
ATOM     23  N   UNL     1       0.022  -0.659   1.144  0.00  0.00    -0.250 NA
ENDBRANCH   1  22
BRANCH   4  24
ATOM     24  C   UNL     1      -0.536  -5.472   4.781  0.00  0.00    +0.079 C 
BRANCH  24  25
ATOM     25  C   UNL     1       0.707  -6.005   5.495  0.00  0.00    +0.043 C 
BRANCH  25  26
ATOM     26  C   UNL     1       0.364  -7.286   6.212  0.00  0.00    -0.047 A 
ATOM     27  C   UNL     1      -0.091  -7.247   7.516  0.00  0.00    +0.005 A 
ATOM     28  C   UNL     1      -0.406  -8.421   8.174  0.00  0.00    +0.029 A 
ATOM     29  C   UNL     1      -0.265  -9.635   7.527  0.00  0.00    +0.105 A 
ATOM     30  C   UNL     1       0.190  -9.674   6.222  0.00  0.00    +0.029 A 
ATOM     31  C   UNL     1       0.500  -8.499   5.563  0.00  0.00    +0.005 A 
BRANCH  29  32
ATOM     32  S   UNL     1      -0.665 -11.132   8.365  0.00  0.00    +0.056 S 
ATOM     33  O   UNL     1       0.072 -12.165   7.725  0.00  0.00    -0.153 OA
ATOM     34  O   UNL     1      -0.547 -10.863   9.755  0.00  0.00    -0.153 OA
BRANCH  32  35
ATOM     35  N   UNL     1      -2.265 -11.443   8.076  0.00  0.00    -0.204 NA
ATOM     36  H   UNL     1      -2.585 -12.358   8.051  0.00  0.00    +0.144 HD
ATOM     37  H   UNL     1      -2.883 -10.709   7.932  0.00  0.00    +0.144 HD
ENDBRANCH  32  35
ENDBRANCH  29  32
ENDBRANCH  25  26
ENDBRANCH  24  25
ENDBRANCH   4  24
TORSDOF 7
