REMARK  Name = ZINC08906376
REMARK  9 active torsions:
REMARK  status: ('A' for Active; 'I' for Inactive)
REMARK    1  A    between atoms: C_1  and  C_2
REMARK    2  A    between atoms: C_5  and  N_8
REMARK    3  A    between atoms: C_10  and  C_15
REMARK    4  A    between atoms: C_21  and  S_23
REMARK    5  A    between atoms: S_23  and  C_24
REMARK    6  A    between atoms: C_24  and  C_25
REMARK    7  A    between atoms: N_27  and  C_28
REMARK    8  A    between atoms: C_28  and  C_29
REMARK    9  A    between atoms: C_29  and  C_30
REMARK                            x       y       z     vdW  Elec       q    Type
REMARK                         _______ _______ _______ _____ _____    ______ ____
ROOT
ATOM      1  C   UNL     1       9.245  -1.856  -0.120  0.00  0.00    +0.224 C 
ATOM      2  O   UNL     1       8.338  -2.662  -0.125  0.00  0.00    -0.275 OA
ATOM      3  N   UNL     1       8.973  -0.536  -0.116  0.00  0.00    -0.263 N 
ATOM      4  C   UNL     1       7.651  -0.097  -0.118  0.00  0.00    +0.189 A 
ATOM      5  N   UNL     1       6.525  -0.791  -0.123  0.00  0.00    -0.125 NA
ATOM      6  N   UNL     1       5.395  -0.232  -0.124  0.00  0.00    -0.133 NA
ATOM      7  C   UNL     1       5.266   1.087  -0.120  0.00  0.00    +0.160 A 
ATOM      8  S   UNL     1       6.991   1.567  -0.122  0.00  0.00    -0.024 S 
ATOM      9  H   UNL     1       9.698   0.108  -0.112  0.00  0.00    +0.157 HD
ENDROOT
BRANCH   1  12
ATOM     10  N   UNL     1      10.826  -4.267   1.289  0.00  0.00    -0.271 N 
ATOM     11  C   UNL     1      10.745  -3.874  -0.123  0.00  0.00    +0.127 C 
ATOM     12  C   UNL     1      10.675  -2.331  -0.118  0.00  0.00    +0.102 C 
ATOM     13  C   UNL     1      11.370  -1.988   1.220  0.00  0.00    +0.110 C 
ATOM     14  C   UNL     1      11.180  -3.229   2.065  0.00  0.00    +0.221 C 
ATOM     15  O   UNL     1      11.326  -3.279   3.268  0.00  0.00    -0.275 OA
BRANCH  10  20
ATOM     16  C   UNL     1       9.780  -9.498   3.220  0.00  0.00    +0.044 C 
ATOM     17  C   UNL     1      10.057  -8.108   2.707  0.00  0.00    -0.050 A 
ATOM     18  C   UNL     1       9.839  -7.808   1.375  0.00  0.00    +0.005 A 
ATOM     19  C   UNL     1      10.093  -6.536   0.902  0.00  0.00    +0.024 A 
ATOM     20  C   UNL     1      10.567  -5.557   1.765  0.00  0.00    +0.036 A 
ATOM     21  C   UNL     1      10.790  -5.863   3.101  0.00  0.00    +0.024 A 
ATOM     22  C   UNL     1      10.529  -7.136   3.570  0.00  0.00    +0.005 A 
ENDBRANCH  10  20
ENDBRANCH   1  12
BRANCH   7  23
ATOM     23  S   UNL     1       3.813   2.084  -0.120  0.00  0.00    -0.088 S 
BRANCH  23  24
ATOM     24  C   UNL     1       2.456   0.881  -0.126  0.00  0.00    +0.172 C 
BRANCH  24  25
ATOM     25  C   UNL     1       1.137   1.611  -0.127  0.00  0.00    +0.223 C 
ATOM     26  O   UNL     1       1.115   2.823  -0.123  0.00  0.00    -0.275 OA
ATOM     27  N   UNL     1      -0.018   0.916  -0.132  0.00  0.00    -0.314 N 
ATOM     28  H   UNL     1      -0.000  -0.054  -0.134  0.00  0.00    +0.149 HD
BRANCH  27  29
ATOM     29  C   UNL     1      -1.299   1.625  -0.138  0.00  0.00    +0.109 C 
BRANCH  29  30
ATOM     30  C   UNL     1      -2.444   0.611  -0.149  0.00  0.00    +0.054 C 
BRANCH  30  31
ATOM     31  C   UNL     1      -3.763   1.341  -0.156  0.00  0.00    -0.046 A 
ATOM     32  C   UNL     1      -4.378   1.667   1.038  0.00  0.00    +0.004 A 
ATOM     33  C   UNL     1      -5.585   2.341   1.032  0.00  0.00    +0.000 A 
ATOM     34  C   UNL     1      -6.181   2.680  -0.169  0.00  0.00    +0.000 A 
ATOM     35  C   UNL     1      -5.569   2.348  -1.363  0.00  0.00    +0.000 A 
ATOM     36  C   UNL     1      -4.359   1.679  -1.356  0.00  0.00    +0.004 A 
ENDBRANCH  30  31
ENDBRANCH  29  30
ENDBRANCH  27  29
ENDBRANCH  24  25
ENDBRANCH  23  24
ENDBRANCH   7  23
TORSDOF 8
