REMARK  Name = ZINC09844197
REMARK  6 active torsions:
REMARK  status: ('A' for Active; 'I' for Inactive)
REMARK    1  A    between atoms: C_6  and  C_7
REMARK    2  A    between atoms: N_12  and  C_14
REMARK    3  A    between atoms: C_14  and  C_15
REMARK    4  A    between atoms: C_15  and  N_16
REMARK    5  A    between atoms: C_17  and  C_19
REMARK    6  A    between atoms: C_22  and  N_26
REMARK                            x       y       z     vdW  Elec       q    Type
REMARK                         _______ _______ _______ _____ _____    ______ ____
ROOT
ATOM      1  C   UNL     1      -0.729   1.579   1.267  0.00  0.00    +0.166 C 
ENDROOT
BRANCH   1   7
ATOM      2  C   UNL     1       0.239  -0.532   4.022  0.00  0.00    +0.092 A 
ATOM      3  C   UNL     1       1.284   0.183   4.653  0.00  0.00    +0.035 A 
ATOM      4  C   UNL     1       1.651   1.387   4.128  0.00  0.00    +0.074 A 
ATOM      5  C   UNL     1       0.966   1.844   2.980  0.00  0.00    +0.267 A 
ATOM      6  O   UNL     1       1.263   2.913   2.472  0.00  0.00    -0.266 OA
ATOM      7  N   UNL     1      -0.020   1.094   2.454  0.00  0.00    -0.227 N 
ATOM      8  N   UNL     1      -0.353  -0.037   2.961  0.00  0.00    -0.168 NA
BRANCH   2  14
ATOM      9  C   UNL     1       0.440  -2.377   5.687  0.00  0.00    +0.011 A 
ATOM     10  C   UNL     1       0.035  -3.597   6.189  0.00  0.00    +0.020 A 
ATOM     11  C   UNL     1      -0.988  -4.296   5.573  0.00  0.00    +0.041 A 
ATOM     12  C   UNL     1      -1.613  -3.774   4.453  0.00  0.00    +0.020 A 
ATOM     13  C   UNL     1      -1.219  -2.553   3.946  0.00  0.00    +0.011 A 
ATOM     14  C   UNL     1      -0.189  -1.845   4.563  0.00  0.00    +0.002 A 
ATOM     15 CL   UNL     1      -1.489  -5.833   6.206  0.00  0.00    -0.084 Cl
ENDBRANCH   2  14
ENDBRANCH   1   7
BRANCH   1  16
ATOM     16  C   UNL     1      -0.013   1.086   0.008  0.00  0.00    +0.128 C 
BRANCH  16  17
ATOM     17  N   UNL     1      -0.721   1.571  -1.179  0.00  0.00    -0.310 N 
ATOM     18  C   UNL     1      -0.268   1.258  -2.409  0.00  0.00    +0.246 C 
ATOM     19  O   UNL     1       0.729   0.574  -2.534  0.00  0.00    -0.270 OA
ATOM     20  H   UNL     1      -1.516   2.118  -1.079  0.00  0.00    +0.149 HD
BRANCH  18  21
ATOM     21  C   UNL     1      -0.983   1.748  -3.606  0.00  0.00    +0.055 A 
ATOM     22  C   UNL     1      -2.128   2.535  -3.467  0.00  0.00    +0.017 A 
ATOM     23  C   UNL     1      -2.790   2.988  -4.588  0.00  0.00    +0.033 A 
ATOM     24  C   UNL     1      -2.323   2.666  -5.850  0.00  0.00    +0.128 A 
ATOM     25  C   UNL     1      -1.190   1.887  -5.997  0.00  0.00    +0.053 A 
ATOM     26  C   UNL     1      -0.513   1.431  -4.883  0.00  0.00    +0.055 A 
ATOM     27 CL   UNL     1       0.914   0.460  -5.068  0.00  0.00    -0.083 Cl
BRANCH  24  28
ATOM     28  N   UNL     1      -3.039   3.158  -7.049  0.00  0.00    +0.056 N 
ATOM     29  O   UNL     1      -4.037   3.844  -6.923  0.00  0.00    -0.126 OA
ATOM     30  O   UNL     1      -2.630   2.876  -8.161  0.00  0.00    -0.126 OA
ENDBRANCH  24  28
ENDBRANCH  18  21
ENDBRANCH  16  17
ENDBRANCH   1  16
TORSDOF 6
