REMARK  Name = ZINC38975147
REMARK  4 active torsions:
REMARK  status: ('A' for Active; 'I' for Inactive)
REMARK    1  A    between atoms: N_7  and  S_8
REMARK    2  A    between atoms: S_8  and  C_11
REMARK    3  A    between atoms: C_18  and  N_23
REMARK    4  A    between atoms: N_23  and  C_24
REMARK                            x       y       z     vdW  Elec       q    Type
REMARK                         _______ _______ _______ _____ _____    ______ ____
ROOT
ATOM      1  C   UNL     1      -0.273   1.097   0.324  0.00  0.00    +0.002 A 
ATOM      2  C   UNL     1       0.836   1.950   0.198  0.00  0.00    +0.002 A 
ATOM      3  C   UNL     1       2.098   1.491   0.051  0.00  0.00    +0.030 A 
ATOM      4  C   UNL     1       2.354   0.097   0.018  0.00  0.00    +0.089 A 
ATOM      5  N   UNL     1       3.586  -0.345  -0.125  0.00  0.00    -0.226 NA
ATOM      6  C   UNL     1       3.863  -1.659  -0.160  0.00  0.00    +0.192 C 
ATOM      7  N   UNL     1       5.088  -2.071  -0.301  0.00  0.00    -0.110 NA
ATOM      8  C   UNL     1       2.730  -2.651  -0.032  0.00  0.00    +0.237 C 
ATOM      9  N   UNL     1       1.367  -2.121   0.126  0.00  0.00    -0.359 N 
ATOM     10  C   UNL     1       1.201  -0.828   0.149  0.00  0.00    +0.063 A 
ATOM     11  C   UNL     1      -0.141  -0.247   0.305  0.00  0.00    +0.027 A 
ATOM     12  H   UNL     1       0.608  -2.720   0.212  0.00  0.00    +0.162 HD
ENDROOT
BRANCH   7  13
ATOM     13  S   UNL     1       6.320  -0.973  -0.440  0.00  0.00    +0.100 S 
ATOM     14  O   UNL     1       6.118  -0.288  -1.669  0.00  0.00    -0.146 OA
ATOM     15  O   UNL     1       6.402  -0.294   0.806  0.00  0.00    -0.146 OA
BRANCH  13  16
ATOM     16  C   UNL     1       7.816  -1.887  -0.614  0.00  0.00    +0.113 A 
ATOM     17  C   UNL     1       8.536  -2.254   0.508  0.00  0.00    +0.032 A 
ATOM     18  C   UNL     1       9.709  -2.972   0.373  0.00  0.00    +0.040 A 
ATOM     19  C   UNL     1      10.164  -3.324  -0.887  0.00  0.00    +0.124 A 
ATOM     20  C   UNL     1       9.442  -2.956  -2.010  0.00  0.00    +0.040 A 
ATOM     21  C   UNL     1       8.266  -2.243  -1.872  0.00  0.00    +0.032 A 
ATOM     22  F   UNL     1      11.310  -4.025  -1.020  0.00  0.00    -0.205 F 
ENDBRANCH  13  16
ENDBRANCH   7  13
BRANCH   8  23
ATOM     23  N   UNL     1       2.743  -3.501  -1.225  0.00  0.00    -0.318 N 
ATOM     24  H   UNL     1       2.870  -3.104  -2.101  0.00  0.00    +0.148 HD
BRANCH  23  25
ATOM     25  C   UNL     1       2.571  -4.884  -1.102  0.00  0.00    +0.033 A 
ATOM     26  C   UNL     1       2.741  -5.707  -2.207  0.00  0.00    +0.027 A 
ATOM     27  C   UNL     1       2.570  -7.072  -2.085  0.00  0.00    +0.051 A 
ATOM     28  C   UNL     1       2.229  -7.625  -0.860  0.00  0.00    +0.162 A 
ATOM     29  C   UNL     1       2.061  -6.805   0.249  0.00  0.00    +0.164 A 
ATOM     30  C   UNL     1       2.236  -5.435   0.127  0.00  0.00    +0.072 A 
ATOM     31  O   UNL     1       1.734  -7.330   1.461  0.00  0.00    -0.485 OA
ATOM     32  C   UNL     1       1.208  -8.662   1.466  0.00  0.00    +0.270 C 
ATOM     33  C   UNL     1       2.091  -9.530   0.558  0.00  0.00    +0.270 C 
ATOM     34  O   UNL     1       2.062  -8.974  -0.760  0.00  0.00    -0.485 OA
ENDBRANCH  23  25
ENDBRANCH   8  23
TORSDOF 4
