REMARK  Name = ZINC12380051
REMARK  9 active torsions:
REMARK  status: ('A' for Active; 'I' for Inactive)
REMARK    1  A    between atoms: C_1  and  C_2
REMARK    2  A    between atoms: C_2  and  O_4
REMARK    3  A    between atoms: O_4  and  C_5
REMARK    4  A    between atoms: C_10  and  C_11
REMARK    5  A    between atoms: N_12  and  N_13
REMARK    6  A    between atoms: C_14  and  C_16
REMARK    7  A    between atoms: C_16  and  N_27
REMARK    8  A    between atoms: C_17  and  C_18
REMARK    9  A    between atoms: C_28  and  C_30
REMARK                            x       y       z     vdW  Elec       q    Type
REMARK                         _______ _______ _______ _____ _____    ______ ____
ROOT
ATOM      1  C   UNL     1      -1.771   2.764  -0.878  0.00  0.00    +0.098 C 
ATOM      2  C   UNL     1      -0.495   2.391  -0.615  0.00  0.00    +0.036 C 
ENDROOT
BRANCH   2   3
ATOM      3  C   UNL     1      -0.229   1.122   0.077  0.00  0.00    -0.019 A 
ATOM      4  C   UNL     1      -1.100   0.670   1.074  0.00  0.00    +0.012 A 
ATOM      5  C   UNL     1      -0.850  -0.522   1.718  0.00  0.00    +0.050 A 
ATOM      6  C   UNL     1       0.270  -1.273   1.388  0.00  0.00    +0.166 A 
ATOM      7  C   UNL     1       1.146  -0.826   0.398  0.00  0.00    +0.167 A 
ATOM      8  C   UNL     1       0.900   0.365  -0.256  0.00  0.00    +0.057 A 
ATOM      9  O   UNL     1       2.155  -1.737   0.266  0.00  0.00    -0.453 OA
ATOM     10  C   UNL     1       1.671  -2.940   0.892  0.00  0.00    +0.466 C 
ATOM     11  O   UNL     1       0.732  -2.462   1.873  0.00  0.00    -0.453 OA
ENDBRANCH   2   3
BRANCH   1  13
ATOM     12  N   UNL     1      -3.070   0.765  -1.393  0.00  0.00    -0.202 N 
ATOM     13  C   UNL     1      -2.877   1.840  -0.603  0.00  0.00    +0.277 C 
ATOM     14  O   UNL     1      -3.621   2.045   0.338  0.00  0.00    -0.267 OA
ATOM     15  H   UNL     1      -2.435   0.561  -2.098  0.00  0.00    +0.178 HD
BRANCH  12  17
ATOM     16  C   UNL     1      -4.333  -1.134  -1.908  0.00  0.00    +0.142 C 
ATOM     17  N   UNL     1      -4.186  -0.058  -1.197  0.00  0.00    -0.187 NA
BRANCH  16  23
ATOM     18  C   UNL     1      -6.578  -1.540  -0.905  0.00  0.00    +0.140 A 
ATOM     19  C   UNL     1      -7.731  -2.300  -0.798  0.00  0.00    +0.047 A 
ATOM     20  C   UNL     1      -7.880  -3.444  -1.560  0.00  0.00    +0.004 A 
ATOM     21  C   UNL     1      -6.880  -3.839  -2.432  0.00  0.00    +0.001 A 
ATOM     22  C   UNL     1      -5.728  -3.091  -2.555  0.00  0.00    +0.013 A 
ATOM     23  C   UNL     1      -5.564  -1.935  -1.787  0.00  0.00    +0.037 A 
BRANCH  18  24
ATOM     24  O   UNL     1      -6.432  -0.415  -0.157  0.00  0.00    -0.425 OA
BRANCH  24  26
ATOM     25  C   UNL     1      -5.715   0.632   1.961  0.00  0.00    +0.136 C 
ATOM     26  C   UNL     1      -5.819  -0.548   1.030  0.00  0.00    +0.309 C 
ATOM     27  O   UNL     1      -5.351  -1.615   1.353  0.00  0.00    -0.251 OA
ENDBRANCH  24  26
ENDBRANCH  18  24
ENDBRANCH  16  23
ENDBRANCH  12  17
ENDBRANCH   1  13
BRANCH   1  28
ATOM     28  N   UNL     1      -2.033   4.030  -1.412  0.00  0.00    -0.277 N 
ATOM     29  C   UNL     1      -3.297   4.385  -1.715  0.00  0.00    +0.248 C 
ATOM     30  O   UNL     1      -4.221   3.648  -1.428  0.00  0.00    -0.270 OA
ATOM     31  H   UNL     1      -1.305   4.653  -1.564  0.00  0.00    +0.155 HD
BRANCH  29  32
ATOM     32  C   UNL     1      -3.561   5.670  -2.396  0.00  0.00    +0.037 A 
ATOM     33  C   UNL     1      -2.504   6.522  -2.721  0.00  0.00    +0.013 A 
ATOM     34  C   UNL     1      -2.757   7.718  -3.360  0.00  0.00    +0.001 A 
ATOM     35  C   UNL     1      -4.056   8.079  -3.670  0.00  0.00    +0.000 A 
ATOM     36  C   UNL     1      -5.109   7.242  -3.345  0.00  0.00    +0.001 A 
ATOM     37  C   UNL     1      -4.870   6.041  -2.711  0.00  0.00    +0.013 A 
ENDBRANCH  29  32
ENDBRANCH   1  28
TORSDOF 8
