REMARK  Name = ZINC41089616
REMARK  9 active torsions:
REMARK  status: ('A' for Active; 'I' for Inactive)
REMARK    1  A    between atoms: C_1  and  C_2
REMARK    2  A    between atoms: C_5  and  C_8
REMARK    3  A    between atoms: N_10  and  C_11
REMARK    4  A    between atoms: C_15  and  C_18
REMARK    5  A    between atoms: C_16  and  C_17
REMARK    6  A    between atoms: C_18  and  O_20
REMARK    7  A    between atoms: O_20  and  C_21
REMARK    8  A    between atoms: C_21  and  C_22
REMARK    9  A    between atoms: C_30  and  C_32
REMARK                            x       y       z     vdW  Elec       q    Type
REMARK                         _______ _______ _______ _____ _____    ______ ____
ROOT
ATOM      1  C   UNL     1       0.292  -6.373   0.960  0.00  0.00    +0.037 A 
ATOM      2  C   UNL     1       0.270  -7.146  -0.196  0.00  0.00    +0.023 A 
ATOM      3  C   UNL     1      -0.092  -8.478  -0.136  0.00  0.00    +0.003 A 
ATOM      4  C   UNL     1      -0.434  -9.051   1.072  0.00  0.00    +0.015 A 
ATOM      5  C   UNL     1      -0.415  -8.284   2.239  0.00  0.00    +0.064 A 
ATOM      6  C   UNL     1      -0.044  -6.940   2.179  0.00  0.00    -0.015 A 
ATOM      7  C   UNL     1      -0.015  -6.107   3.434  0.00  0.00    +0.046 C 
ENDROOT
BRANCH   1  10
ATOM      8  C   UNL     1       1.373  -4.572  -0.157  0.00  0.00    +0.248 C 
ATOM      9  O   UNL     1       1.780  -5.351  -0.997  0.00  0.00    -0.270 OA
ATOM     10  N   UNL     1       0.659  -5.025   0.893  0.00  0.00    -0.281 N 
ATOM     11  H   UNL     1       0.399  -4.416   1.602  0.00  0.00    +0.155 HD
BRANCH   8  16
ATOM     12  C   UNL     1       2.498   1.049  -0.661  0.00  0.00    +0.044 C 
ATOM     13  C   UNL     1       2.203  -0.423  -0.529  0.00  0.00    -0.050 A 
ATOM     14  C   UNL     1       2.667  -1.307  -1.487  0.00  0.00    +0.004 A 
ATOM     15  C   UNL     1       2.401  -2.656  -1.372  0.00  0.00    +0.013 A 
ATOM     16  C   UNL     1       1.662  -3.128  -0.286  0.00  0.00    +0.037 A 
ATOM     17  C   UNL     1       1.196  -2.231   0.677  0.00  0.00    +0.013 A 
ATOM     18  C   UNL     1       1.474  -0.885   0.552  0.00  0.00    +0.004 A 
ENDBRANCH   8  16
ENDBRANCH   1  10
BRANCH   5  19
ATOM     19  C   UNL     1      -0.781  -8.895   3.534  0.00  0.00    +0.340 C 
ATOM     20  O   UNL     1      -0.885  -8.200   4.525  0.00  0.00    -0.245 OA
BRANCH  19  21
ATOM     21  O   UNL     1      -0.999 -10.222   3.615  0.00  0.00    -0.455 OA
BRANCH  21  22
ATOM     22  C   UNL     1      -1.349 -10.744   4.898  0.00  0.00    +0.288 C 
BRANCH  22  23
ATOM     23  C   UNL     1      -1.553 -12.234   4.795  0.00  0.00    +0.086 A 
ATOM     24  C   UNL     1      -0.708 -13.093   5.467  0.00  0.00    +0.100 A 
ATOM     25  C   UNL     1      -0.920 -14.475   5.354  0.00  0.00    +0.287 A 
ATOM     26  O   UNL     1      -0.192 -15.265   5.936  0.00  0.00    -0.265 OA
ATOM     27  N   UNL     1      -1.941 -14.915   4.593  0.00  0.00    -0.119 N 
ATOM     28  C   UNL     1      -2.746 -14.027   3.950  0.00  0.00    +0.177 A 
ATOM     29  N   UNL     1      -2.546 -12.717   4.063  0.00  0.00    -0.228 NA
ATOM     30  C   UNL     1      -3.709 -14.781   3.243  0.00  0.00    +0.093 A 
ATOM     31  C   UNL     1      -3.473 -16.087   3.468  0.00  0.00    +0.134 A 
ATOM     32  O   UNL     1      -2.413 -16.212   4.279  0.00  0.00    -0.373 OA
ATOM     33  C   UNL     1      -4.274 -17.229   2.899  0.00  0.00    +0.089 C 
ENDBRANCH  22  23
ENDBRANCH  21  22
ENDBRANCH  19  21
ENDBRANCH   5  19
TORSDOF 6
