REMARK  Name = ZINC12553690
REMARK  11 active torsions:
REMARK  status: ('A' for Active; 'I' for Inactive)
REMARK    1  A    between atoms: C_1  and  N_2
REMARK    2  A    between atoms: C_9  and  C_17
REMARK    3  A    between atoms: C_10  and  C_11
REMARK    4  A    between atoms: C_17  and  C_19
REMARK    5  A    between atoms: C_19  and  S_20
REMARK    6  A    between atoms: S_20  and  C_21
REMARK    7  A    between atoms: C_24  and  C_32
REMARK    8  A    between atoms: N_25  and  C_26
REMARK    9  A    between atoms: C_26  and  C_27
REMARK   10  A    between atoms: C_32  and  C_33
REMARK   11  A    between atoms: C_33  and  C_34
REMARK                            x       y       z     vdW  Elec       q    Type
REMARK                         _______ _______ _______ _____ _____    ______ ____
ROOT
ATOM      1  C   UNL     1      -3.759   3.043   4.519  0.00  0.00    +0.157 C 
ENDROOT
BRANCH   1   2
ATOM      2  C   UNL     1      -3.610   2.589   3.090  0.00  0.00    +0.176 C 
ATOM      3  O   UNL     1      -4.585   2.527   2.368  0.00  0.00    -0.291 OA
BRANCH   2  12
ATOM      4  C   UNL     1      -0.013   1.086   0.008  0.00  0.00    +0.149 C 
ATOM      5  N   UNL     1      -0.698   1.558   1.213  0.00  0.00    -0.342 N 
ATOM      6  C   UNL     1      -0.079   1.823   2.419  0.00  0.00    +0.050 A 
ATOM      7  C   UNL     1       1.246   1.738   2.837  0.00  0.00    +0.026 A 
ATOM      8  C   UNL     1       1.582   2.074   4.131  0.00  0.00    +0.002 A 
ATOM      9  C   UNL     1       0.611   2.499   5.026  0.00  0.00    +0.001 A 
ATOM     10  C   UNL     1      -0.706   2.590   4.631  0.00  0.00    +0.011 A 
ATOM     11  C   UNL     1      -1.060   2.253   3.326  0.00  0.00    +0.011 A 
ATOM     12  C   UNL     1      -2.337   2.235   2.590  0.00  0.00    +0.051 A 
ATOM     13  C   UNL     1      -2.035   1.804   1.300  0.00  0.00    +0.060 A 
BRANCH  13  14
ATOM     14  C   UNL     1      -3.009   1.635   0.204  0.00  0.00    -0.001 A 
ATOM     15  C   UNL     1      -4.230   1.000   0.441  0.00  0.00    +0.010 A 
ATOM     16  C   UNL     1      -5.138   0.852  -0.587  0.00  0.00    +0.001 A 
ATOM     17  C   UNL     1      -4.835   1.319  -1.854  0.00  0.00    +0.000 A 
ATOM     18  C   UNL     1      -3.625   1.944  -2.098  0.00  0.00    +0.001 A 
ATOM     19  C   UNL     1      -2.711   2.105  -1.078  0.00  0.00    +0.010 A 
ENDBRANCH  13  14
ENDBRANCH   2  12
ENDBRANCH   1   2
BRANCH   1  20
ATOM     20  S   UNL     1      -5.497   3.422   4.854  0.00  0.00    -0.078 S 
BRANCH  20  21
ATOM     21  C   UNL     1      -5.383   3.912   6.543  0.00  0.00    +0.192 A 
ATOM     22  N   UNL     1      -4.291   3.957   7.271  0.00  0.00    -0.122 NA
ATOM     23  N   UNL     1      -4.574   4.360   8.458  0.00  0.00    -0.133 NA
ATOM     24  C   UNL     1      -5.852   4.593   8.558  0.00  0.00    +0.135 A 
ATOM     25  N   UNL     1      -6.412   4.322   7.340  0.00  0.00    -0.299 N 
BRANCH  25  26
ATOM     26  C   UNL     1      -7.824   4.444   6.970  0.00  0.00    +0.199 C 
BRANCH  26  27
ATOM     27  C   UNL     1      -8.530   3.142   7.248  0.00  0.00    +0.125 A 
ATOM     28  C   UNL     1      -9.130   2.804   8.404  0.00  0.00    +0.046 A 
ATOM     29  C   UNL     1      -9.661   1.506   8.225  0.00  0.00    +0.041 A 
ATOM     30  C   UNL     1      -9.348   1.125   6.974  0.00  0.00    +0.195 A 
ATOM     31  O   UNL     1      -8.663   2.120   6.387  0.00  0.00    -0.466 OA
ENDBRANCH  26  27
ENDBRANCH  25  26
BRANCH  24  32
ATOM     32  C   UNL     1      -6.577   5.079   9.787  0.00  0.00    +0.085 C 
BRANCH  32  33
ATOM     33  C   UNL     1      -6.604   6.609   9.792  0.00  0.00    +0.103 C 
BRANCH  33  34
ATOM     34  C   UNL     1      -7.330   7.094  11.020  0.00  0.00    +0.211 C 
ATOM     35  O   UNL     1      -7.780   6.295  11.814  0.00  0.00    -0.276 OA
ATOM     36  N   UNL     1      -7.478   8.416  11.237  0.00  0.00    -0.329 N 
ATOM     37  H   UNL     1      -7.117   9.055  10.603  0.00  0.00    +0.145 HD
ATOM     38  H   UNL     1      -7.945   8.729  12.028  0.00  0.00    +0.145 HD
ENDBRANCH  33  34
ENDBRANCH  32  33
ENDBRANCH  24  32
ENDBRANCH  20  21
ENDBRANCH   1  20
TORSDOF 10
