REMARK  Name = ZINC39699347
REMARK  12 active torsions:
REMARK  status: ('A' for Active; 'I' for Inactive)
REMARK    1  A    between atoms: C_1  and  C_2
REMARK    2  A    between atoms: C_2  and  N_3
REMARK    3  A    between atoms: N_6  and  C_9
REMARK    4  A    between atoms: C_9  and  C_11
REMARK    5  A    between atoms: C_9  and  C_26
REMARK    6  A    between atoms: C_16  and  O_23
REMARK    7  A    between atoms: O_23  and  C_24
REMARK    8  A    between atoms: C_24  and  C_25
REMARK    9  A    between atoms: N_31  and  C_32
REMARK   10  A    between atoms: C_32  and  C_33
REMARK   11  A    between atoms: C_32  and  C_34
REMARK   12  A    between atoms: C_32  and  C_35
REMARK                            x       y       z     vdW  Elec       q    Type
REMARK                         _______ _______ _______ _____ _____    ______ ____
ROOT
ATOM      1  C   UNL     1       1.530  -2.584   4.772  0.00  0.00    +0.115 C 
ENDROOT
BRANCH   1   2
ATOM      2  C   UNL     1       0.696  -2.237   6.006  0.00  0.00    +0.119 C 
ATOM      3  C   UNL     1       1.513  -2.587   7.234  0.00  0.00    -0.003 C 
ATOM      4  C   UNL     1       0.971  -3.478   8.113  0.00  0.00    -0.004 A 
ATOM      5  C   UNL     1       1.693  -3.870   9.323  0.00  0.00    +0.055 A 
ATOM      6  C   UNL     1       1.113  -4.763  10.173  0.00  0.00    +0.121 A 
ATOM      7  C   UNL     1      -0.151  -5.304   9.907  0.00  0.00    +0.047 A 
ATOM      8  C   UNL     1      -0.868  -4.978   8.801  0.00  0.00    +0.027 A 
ATOM      9  C   UNL     1      -0.357  -4.064   7.860  0.00  0.00    +0.041 A 
ATOM     10  N   UNL     1      -1.072  -3.752   6.779  0.00  0.00    -0.284 N 
ATOM     11  C   UNL     1      -0.653  -2.904   5.856  0.00  0.00    +0.226 C 
ATOM     12  O   UNL     1      -1.351  -2.660   4.891  0.00  0.00    -0.275 OA
ATOM     13  H   UNL     1      -1.941  -4.169   6.664  0.00  0.00    +0.155 HD
BRANCH   6  14
ATOM     14  O   UNL     1       1.774  -5.137  11.300  0.00  0.00    -0.492 OA
BRANCH  14  15
ATOM     15  C   UNL     1       1.119  -6.076  12.155  0.00  0.00    +0.225 C 
ATOM     16  C   UNL     1       2.009  -6.372  13.364  0.00  0.00    +0.048 C 
ENDBRANCH  14  15
ENDBRANCH   6  14
ENDBRANCH   1   2
BRANCH   1  20
ATOM     17  N   UNL     1       0.713  -0.491   1.192  0.00  0.00    +0.381 N 
ATOM     18  C   UNL     1      -0.039  -0.117   2.398  0.00  0.00    -0.063 C 
ATOM     19  C   UNL     1       0.710  -0.608   3.639  0.00  0.00    +0.066 C 
ATOM     20  N   UNL     1       0.864  -2.067   3.569  0.00  0.00    -0.299 NA
ATOM     21  C   UNL     1       1.594  -2.458   2.354  0.00  0.00    +0.066 C 
ATOM     22  C   UNL     1       0.837  -1.953   1.124  0.00  0.00    -0.063 C 
ATOM     23  H   UNL     1       1.632  -0.076   1.228  0.00  0.00    -0.082 HD
BRANCH  17  25
ATOM     24  C   UNL     1      -0.019   1.526   0.010  0.00  0.00    -0.017 C 
ATOM     25  C   UNL     1       0.002  -0.004   0.002  0.00  0.00    -0.082 C 
ENDBRANCH  17  25
ENDBRANCH   1  20
BRANCH   1  26
ATOM     26  C   UNL     1       1.673  -4.104   4.663  0.00  0.00    +0.236 C 
ATOM     27  N   UNL     1       0.350  -4.740   4.614  0.00  0.00    -0.148 NA
ATOM     28  N   UNL     1       0.232  -5.491   5.585  0.00  0.00    -0.069 NA
ATOM     29  N   UNL     1       1.360  -5.500   6.404  0.00  0.00    -0.179 N 
ATOM     30  N   UNL     1       2.305  -4.651   5.882  0.00  0.00    -0.179 NA
ATOM     31  H   UNL     1       1.462  -6.024   7.214  0.00  0.00    +0.191 HD
BRANCH  30  32
ATOM     32  C   UNL     1       3.541  -5.374   5.555  0.00  0.00    +0.035 C 
ATOM     33  C   UNL     1       4.526  -4.418   4.878  0.00  0.00    +0.029 C 
ATOM     34  C   UNL     1       4.165  -5.924   6.839  0.00  0.00    +0.029 C 
ATOM     35  C   UNL     1       3.220  -6.531   4.607  0.00  0.00    +0.029 C 
ENDBRANCH  30  32
ENDBRANCH   1  26
TORSDOF 7
