REMARK  Name = ZINC02651753
REMARK  14 active torsions:
REMARK  status: ('A' for Active; 'I' for Inactive)
REMARK    1  A    between atoms: C_1  and  C_2
REMARK    2  A    between atoms: C_5  and  O_8
REMARK    3  A    between atoms: O_8  and  C_9
REMARK    4  A    between atoms: C_9  and  C_10
REMARK    5  A    between atoms: C_14  and  S_16
REMARK    6  A    between atoms: S_16  and  C_17
REMARK    7  A    between atoms: C_17  and  C_18
REMARK    8  A    between atoms: C_19  and  C_28
REMARK    9  A    between atoms: C_20  and  N_27
REMARK   10  A    between atoms: C_22  and  C_23
REMARK   11  A    between atoms: C_23  and  O_25
REMARK   12  A    between atoms: O_25  and  C_26
REMARK   13  A    between atoms: C_28  and  O_30
REMARK   14  A    between atoms: O_30  and  C_31
REMARK                            x       y       z     vdW  Elec       q    Type
REMARK                         _______ _______ _______ _____ _____    ______ ____
ROOT
ATOM      1  C   UNL     1      -6.819   6.461   0.068  0.00  0.00    +0.114 C 
ENDROOT
BRANCH   1   2
ATOM      2  C   UNL     1      -7.694   7.688   0.079  0.00  0.00    -0.000 A 
ATOM      3  C   UNL     1      -8.115   8.278  -1.103  0.00  0.00    +0.092 A 
ATOM      4  C   UNL     1      -8.927   9.417  -1.009  0.00  0.00    +0.078 A 
ATOM      5  S   UNL     1      -9.084   9.639   0.703  0.00  0.00    -0.066 S 
ATOM      6  C   UNL     1      -8.104   8.256   1.255  0.00  0.00    +0.103 A 
BRANCH   4   7
ATOM      7  N   UNL     1      -9.465  10.172  -2.024  0.00  0.00    -0.352 N 
ATOM      8  H   UNL     1     -10.088  11.047  -1.787  0.00  0.00    +0.143 HD
ATOM      9  H   UNL     1      -9.272   9.901  -3.072  0.00  0.00    +0.143 HD
ENDBRANCH   4   7
BRANCH   6  10
ATOM     10  C   UNL     1      -7.810   7.834   2.623  0.00  0.00    +0.346 C 
ATOM     11  O   UNL     1      -7.114   6.856   2.821  0.00  0.00    -0.244 OA
BRANCH  10  12
ATOM     12  O   UNL     1      -8.310   8.529   3.665  0.00  0.00    -0.464 OA
ATOM     13  C   UNL     1      -7.982   8.061   4.975  0.00  0.00    +0.280 C 
ENDBRANCH  10  12
ENDBRANCH   6  10
BRANCH   3  14
ATOM     14  C   UNL     1      -7.725   7.731  -2.406  0.00  0.00    +0.342 C 
ATOM     15  O   UNL     1      -8.421   6.892  -2.946  0.00  0.00    -0.245 OA
BRANCH  14  16
ATOM     16  O   UNL     1      -6.595   8.157  -3.006  0.00  0.00    -0.464 OA
ATOM     17  C   UNL     1      -6.271   7.571  -4.294  0.00  0.00    +0.280 C 
ENDBRANCH  14  16
ENDBRANCH   3  14
ENDBRANCH   1   2
BRANCH   1  18
ATOM     18  S   UNL     1      -5.076   6.960   0.063  0.00  0.00    -0.082 S 
BRANCH  18  23
ATOM     19  C   UNL     1      -2.545   4.034   0.036  0.00  0.00    +0.189 A 
ATOM     20  N   UNL     1      -3.680   3.315   0.029  0.00  0.00    -0.153 NA
ATOM     21  H   UNL     1      -5.778   3.883   0.044  0.00  0.00    +0.191 HD
ATOM     22  N   UNL     1      -4.737   4.239   0.043  0.00  0.00    -0.253 N 
ATOM     23  C   UNL     1      -4.195   5.434   0.051  0.00  0.00    +0.185 A 
ATOM     24  N   UNL     1      -2.865   5.303   0.050  0.00  0.00    -0.202 NA
BRANCH  19  25
ATOM     25  C   UNL     1      -1.145   3.475   0.029  0.00  0.00    +0.306 C 
BRANCH  25  26
ATOM     26  O   UNL     1      -1.202   2.048   0.023  0.00  0.00    -0.484 OA
BRANCH  26  31
ATOM     27  C   UNL     1       3.711  -0.707  -0.024  0.00  0.00    +0.044 C 
ATOM     28  C   UNL     1       2.396   0.030  -0.011  0.00  0.00    -0.050 A 
ATOM     29  C   UNL     1       1.208  -0.677  -0.003  0.00  0.00    +0.007 A 
ATOM     30  C   UNL     1       0.002  -0.004   0.010  0.00  0.00    +0.046 A 
ATOM     31  C   UNL     1      -0.017   1.383   0.016  0.00  0.00    +0.121 A 
ATOM     32  C   UNL     1       1.177   2.091   0.008  0.00  0.00    +0.046 A 
ATOM     33  C   UNL     1       2.380   1.413  -0.005  0.00  0.00    +0.007 A 
ENDBRANCH  26  31
ENDBRANCH  25  26
ENDBRANCH  19  25
ENDBRANCH  18  23
ENDBRANCH   1  18
TORSDOF 11
