REMARK  Name = ZINC51684476
REMARK  5 active torsions:
REMARK  status: ('A' for Active; 'I' for Inactive)
REMARK    1  A    between atoms: C_4  and  C_8
REMARK    2  A    between atoms: C_8  and  C_10
REMARK    3  A    between atoms: C_8  and  N_24
REMARK    4  A    between atoms: C_10  and  N_11
REMARK    5  A    between atoms: C_18  and  C_21
REMARK                            x       y       z     vdW  Elec       q    Type
REMARK                         _______ _______ _______ _____ _____    ______ ____
ROOT
ATOM      1  C   UNL     1       3.861  -1.229  -1.264  0.00  0.00    +0.095 C 
ENDROOT
BRANCH   1   2
ATOM      2  N   UNL     1       4.035  -0.205  -2.297  0.00  0.00    -0.300 N 
ATOM      3  C   UNL     1       4.278  -0.567  -3.572  0.00  0.00    +0.302 C 
ATOM      4  O   UNL     1       4.263  -1.742  -3.883  0.00  0.00    -0.253 OA
ATOM      5  N   UNL     1       4.540   0.373  -4.501  0.00  0.00    -0.281 N 
ATOM      6  C   UNL     1       4.692   0.013  -5.920  0.00  0.00    +0.137 C 
ATOM      7  C   UNL     1       5.995   0.632  -6.439  0.00  0.00    +0.180 C 
ATOM      8  O   UNL     1       6.007   2.029  -6.133  0.00  0.00    -0.364 OA
ATOM      9  C   UNL     1       5.984   2.321  -4.734  0.00  0.00    +0.221 C 
ATOM     10  C   UNL     1       4.675   1.790  -4.128  0.00  0.00    +0.150 C 
ATOM     11  H   UNL     1       3.974   0.735  -2.063  0.00  0.00    +0.150 HD
BRANCH   9  12
ATOM     12  C   UNL     1       6.063   3.813  -4.530  0.00  0.00    +0.241 C 
ATOM     13  O   UNL     1       6.041   4.557  -5.487  0.00  0.00    -0.273 OA
ATOM     14  N   UNL     1       6.159   4.319  -3.284  0.00  0.00    -0.327 N 
ATOM     15  H   UNL     1       6.176   3.723  -2.519  0.00  0.00    +0.145 HD
ATOM     16  H   UNL     1       6.209   5.278  -3.154  0.00  0.00    +0.145 HD
ENDBRANCH   9  12
ENDBRANCH   1   2
BRANCH   1  17
ATOM     17  C   UNL     1       3.721  -0.557   0.103  0.00  0.00    -0.016 C 
BRANCH  17  21
ATOM     18  C   UNL     1       0.098   1.707   0.212  0.00  0.00    +0.004 A 
ATOM     19  C   UNL     1       1.317   2.357   0.205  0.00  0.00    +0.038 A 
ATOM     20  C   UNL     1       2.492   1.625   0.170  0.00  0.00    +0.126 A 
ATOM     21  C   UNL     1       2.444   0.241   0.142  0.00  0.00    -0.006 A 
ATOM     22  C   UNL     1       1.222  -0.407   0.149  0.00  0.00    +0.045 A 
ATOM     23  C   UNL     1       0.049   0.326   0.185  0.00  0.00    +0.020 A 
ATOM     24 CL   UNL     1       1.161  -2.142   0.115  0.00  0.00    -0.083 Cl
ATOM     25  F   UNL     1       3.684   2.260   0.162  0.00  0.00    -0.205 F 
ENDBRANCH  17  21
BRANCH  17  26
ATOM     26  N   UNL     1       3.689  -1.584   1.153  0.00  0.00    +0.385 N 
ATOM     27  C   UNL     1       5.023  -2.224   1.285  0.00  0.00    -0.078 C 
ATOM     28  C   UNL     1       4.992  -2.816   2.716  0.00  0.00    -0.020 C 
ATOM     29  C   UNL     1       4.218  -1.744   3.517  0.00  0.00    -0.020 C 
ATOM     30  C   UNL     1       3.408  -0.963   2.466  0.00  0.00    -0.078 C 
ATOM     31  H   UNL     1       2.989  -2.278   0.940  0.00  0.00    -0.081 HD
ENDBRANCH  17  26
ENDBRANCH   1  17
TORSDOF 5
