REMARK  Name = ZINC00135905
REMARK  6 active torsions:
REMARK  status: ('A' for Active; 'I' for Inactive)
REMARK    1  A    between atoms: C_1  and  C_2
REMARK    2  A    between atoms: C_8  and  C_23
REMARK    3  A    between atoms: C_8  and  C_24
REMARK    4  A    between atoms: C_9  and  N_11
REMARK    5  A    between atoms: C_12  and  C_14
REMARK    6  A    between atoms: C_17  and  N_20
REMARK                            x       y       z     vdW  Elec       q    Type
REMARK                         _______ _______ _______ _____ _____    ______ ____
ROOT
ATOM      1  N   UNL     1       1.544   0.229  -1.398  0.00  0.00    -0.307 N 
ATOM      2  C   UNL     1       1.845   0.368  -2.704  0.00  0.00    +0.244 C 
ATOM      3  O   UNL     1       1.229  -0.265  -3.540  0.00  0.00    -0.270 OA
ATOM      4  H   UNL     1       2.036   0.734  -0.731  0.00  0.00    +0.149 HD
ENDROOT
BRANCH   1  12
ATOM      5  C   UNL     1      -0.317   1.261   0.580  0.00  0.00    +0.013 C 
ATOM      6  C   UNL     1      -0.115  -0.244   0.390  0.00  0.00    -0.013 C 
ATOM      7  C   UNL     1      -1.379  -1.133   0.596  0.00  0.00    +0.009 C 
ATOM      8  C   UNL     1      -0.822  -2.550   0.858  0.00  0.00    +0.005 C 
ATOM      9  C   UNL     1       0.727  -2.385   0.786  0.00  0.00    -0.003 C 
ATOM     10  C   UNL     1       0.892  -0.939   1.373  0.00  0.00    +0.012 C 
ATOM     11  C   UNL     1       1.023  -2.139  -0.725  0.00  0.00    -0.013 C 
ATOM     12  C   UNL     1       0.475  -0.684  -0.985  0.00  0.00    +0.085 C 
ATOM     13  C   UNL     1       0.302  -3.179  -1.586  0.00  0.00    +0.013 C 
ATOM     14  C   UNL     1       2.530  -2.180  -0.987  0.00  0.00    +0.013 C 
ENDBRANCH   1  12
BRANCH   2  15
ATOM     15  C   UNL     1       2.924   1.289  -3.120  0.00  0.00    +0.037 A 
ATOM     16  C   UNL     1       3.637   2.012  -2.163  0.00  0.00    +0.015 A 
ATOM     17  C   UNL     1       4.642   2.870  -2.558  0.00  0.00    +0.033 A 
ATOM     18  C   UNL     1       4.945   3.014  -3.900  0.00  0.00    +0.126 A 
ATOM     19  C   UNL     1       4.242   2.300  -4.855  0.00  0.00    +0.033 A 
ATOM     20  C   UNL     1       3.238   1.435  -4.473  0.00  0.00    +0.015 A 
BRANCH  18  21
ATOM     21  N   UNL     1       6.025   3.936  -4.317  0.00  0.00    +0.056 N 
ATOM     22  O   UNL     1       6.641   4.561  -3.486  0.00  0.00    -0.126 OA
ATOM     23  O   UNL     1       6.291   4.064  -5.489  0.00  0.00    -0.126 OA
ENDBRANCH  18  21
ENDBRANCH   2  15
TORSDOF 3
