REMARK  Name = ZINC13212182
REMARK  8 active torsions:
REMARK  status: ('A' for Active; 'I' for Inactive)
REMARK    1  A    between atoms: C_1  and  C_2
REMARK    2  A    between atoms: C_2  and  C_4
REMARK    3  A    between atoms: C_2  and  N_13
REMARK    4  A    between atoms: N_13  and  C_14
REMARK    5  A    between atoms: C_17  and  S_23
REMARK    6  A    between atoms: C_19  and  N_20
REMARK    7  A    between atoms: S_23  and  N_26
REMARK    8  A    between atoms: C_29  and  C_32
REMARK                            x       y       z     vdW  Elec       q    Type
REMARK                         _______ _______ _______ _____ _____    ______ ____
ROOT
ATOM      1  C   UNL     1      -1.229   1.650  -0.007  0.00  0.00    +0.058 A 
ATOM      2  C   UNL     1      -1.252   3.034   0.112  0.00  0.00    +0.027 A 
ATOM      3  C   UNL     1      -2.459   3.703   0.138  0.00  0.00    +0.030 A 
ATOM      4  C   UNL     1      -3.646   2.997   0.059  0.00  0.00    +0.108 A 
ATOM      5  C   UNL     1      -3.627   1.619  -0.053  0.00  0.00    +0.063 A 
ATOM      6  C   UNL     1      -2.422   0.943  -0.086  0.00  0.00    +0.149 A 
ENDROOT
BRANCH   6   7
ATOM      7  N   UNL     1      -2.404  -0.532  -0.206  0.00  0.00    +0.058 N 
ATOM      8  O   UNL     1      -3.442  -1.142  -0.388  0.00  0.00    -0.126 OA
ATOM      9  O   UNL     1      -1.349  -1.136  -0.124  0.00  0.00    -0.126 OA
ENDBRANCH   6   7
BRANCH   4  10
ATOM     10  S   UNL     1      -5.184   3.854   0.101  0.00  0.00    +0.061 S 
ATOM     11  O   UNL     1      -4.922   5.180  -0.339  0.00  0.00    -0.153 OA
ATOM     12  O   UNL     1      -6.135   3.014  -0.537  0.00  0.00    -0.153 OA
BRANCH  10  13
ATOM     13  N   UNL     1      -5.640   3.964   1.690  0.00  0.00    -0.177 NA
ATOM     14  C   UNL     1      -6.467   2.917   2.305  0.00  0.00    +0.110 C 
ATOM     15  C   UNL     1      -7.696   3.564   2.941  0.00  0.00    +0.032 C 
ATOM     16  C   UNL     1      -7.249   4.662   3.909  0.00  0.00    +0.105 C 
ATOM     17  C   UNL     1      -6.478   5.738   3.140  0.00  0.00    +0.032 C 
ATOM     18  C   UNL     1      -5.230   5.113   2.508  0.00  0.00    +0.110 C 
BRANCH  16  19
ATOM     19  C   UNL     1      -8.459   5.280   4.561  0.00  0.00    +0.359 C 
ATOM     20  O   UNL     1      -8.682   6.460   4.425  0.00  0.00    -0.246 OA
ATOM     21  O   UNL     1      -9.289   4.520   5.292  0.00  0.00    -0.246 OA
ENDBRANCH  16  19
ENDBRANCH  10  13
ENDBRANCH   4  10
BRANCH   1  22
ATOM     22  N   UNL     1      -0.010   0.970  -0.040  0.00  0.00    -0.333 N 
ATOM     23  H   UNL     1       0.005  -0.000  -0.047  0.00  0.00    +0.147 HD
BRANCH  22  25
ATOM     24  C   UNL     1       1.581   2.102  -1.513  0.00  0.00    +0.036 C 
ATOM     25  C   UNL     1       1.247   1.721  -0.069  0.00  0.00    +0.133 C 
BRANCH  25  26
ATOM     26  C   UNL     1       2.355   0.870   0.494  0.00  0.00    +0.126 A 
ATOM     27  C   UNL     1       3.331   1.313   1.298  0.00  0.00    +0.055 A 
ATOM     28  C   UNL     1       4.177   0.151   1.596  0.00  0.00    +0.020 A 
ATOM     29  C   UNL     1       5.327  -0.048   2.357  0.00  0.00    +0.011 A 
ATOM     30  C   UNL     1       5.885  -1.294   2.430  0.00  0.00    +0.001 A 
ATOM     31  C   UNL     1       5.312  -2.361   1.751  0.00  0.00    +0.004 A 
ATOM     32  C   UNL     1       4.175  -2.183   0.994  0.00  0.00    +0.047 A 
ATOM     33  C   UNL     1       3.592  -0.924   0.906  0.00  0.00    +0.135 A 
ATOM     34  O   UNL     1       2.505  -0.448   0.268  0.00  0.00    -0.458 OA
ENDBRANCH  25  26
ENDBRANCH  22  25
ENDBRANCH   1  22
TORSDOF 7
