REMARK  Name = ZINC09463854
REMARK  12 active torsions:
REMARK  status: ('A' for Active; 'I' for Inactive)
REMARK    1  A    between atoms: C_1  and  C_2
REMARK    2  A    between atoms: C_2  and  O_3
REMARK    3  A    between atoms: O_3  and  C_4
REMARK    4  A    between atoms: C_8  and  C_10
REMARK    5  A    between atoms: C_12  and  C_26
REMARK    6  A    between atoms: C_13  and  O_25
REMARK    7  A    between atoms: N_16  and  C_17
REMARK    8  A    between atoms: C_17  and  C_18
REMARK    9  A    between atoms: C_18  and  C_19
REMARK   10  A    between atoms: C_19  and  N_71
REMARK   11  A    between atoms: C_26  and  C_28
REMARK   12  A    between atoms: C_35  and  C_38
REMARK                            x       y       z     vdW  Elec       q    Type
REMARK                         _______ _______ _______ _____ _____    ______ ____
ROOT
ATOM      1  C   UNL     1       1.157  -1.235   0.017  0.00  0.00    +0.145 C 
ATOM      2  C   UNL     1       2.406  -0.383   0.022  0.00  0.00    +0.071 C 
ATOM      3  C   UNL     1       3.457  -1.233   0.081  0.00  0.00    +0.188 C 
ATOM      4  C   UNL     1       2.957  -2.623   0.123  0.00  0.00    +0.282 C 
ATOM      5  O   UNL     1       3.657  -3.614   0.183  0.00  0.00    -0.267 OA
ATOM      6  N   UNL     1       1.613  -2.628   0.083  0.00  0.00    -0.284 N 
ENDROOT
BRANCH   1  11
ATOM      7  C   UNL     1      -1.644   0.121   2.160  0.00  0.00    +0.121 A 
ATOM      8  C   UNL     1      -1.262  -0.316   3.420  0.00  0.00    +0.045 A 
ATOM      9  C   UNL     1      -0.100  -1.048   3.573  0.00  0.00    +0.004 A 
ATOM     10  C   UNL     1       0.679  -1.349   2.470  0.00  0.00    +0.006 A 
ATOM     11  C   UNL     1       0.303  -0.910   1.215  0.00  0.00    -0.019 A 
ATOM     12  C   UNL     1      -0.858  -0.177   1.056  0.00  0.00    +0.051 A 
BRANCH   7  13
ATOM     13  O   UNL     1      -2.786   0.842   2.007  0.00  0.00    -0.492 OA
BRANCH  13  15
ATOM     14  C   UNL     1      -4.787   1.928   2.818  0.00  0.00    +0.048 C 
ATOM     15  C   UNL     1      -3.546   1.112   3.187  0.00  0.00    +0.225 C 
ENDBRANCH  13  15
ENDBRANCH   7  13
ENDBRANCH   1  11
BRANCH   3  16
ATOM     16  O   UNL     1       4.760  -0.867   0.101  0.00  0.00    -0.502 OA
ATOM     17  H   UNL     1       5.335  -1.685   0.146  0.00  0.00    +0.292 HD
ENDBRANCH   3  16
BRANCH   2  18
ATOM     18  C   UNL     1       2.466   1.081  -0.032  0.00  0.00    +0.195 C 
ATOM     19  O   UNL     1       2.896   1.708   0.918  0.00  0.00    -0.287 OA
BRANCH  18  20
ATOM     20  C   UNL     1       2.005   1.794  -1.239  0.00  0.00    +0.023 A 
ATOM     21  C   UNL     1       1.580   1.078  -2.362  0.00  0.00    +0.015 A 
ATOM     22  C   UNL     1       1.160   1.744  -3.489  0.00  0.00    +0.046 A 
ATOM     23  C   UNL     1       1.142   3.139  -3.520  0.00  0.00    +0.124 A 
ATOM     24  C   UNL     1       1.560   3.848  -2.396  0.00  0.00    -0.002 A 
ATOM     25  C   UNL     1       1.988   3.193  -1.268  0.00  0.00    +0.019 A 
ATOM     26  C   UNL     1       1.419   5.322  -2.724  0.00  0.00    +0.083 C 
ATOM     27  C   UNL     1       0.512   5.285  -3.976  0.00  0.00    +0.175 C 
ATOM     28  O   UNL     1       0.775   3.982  -4.522  0.00  0.00    -0.488 OA
ATOM     29  C   UNL     1      -0.961   5.421  -3.583  0.00  0.00    +0.052 C 
ENDBRANCH  18  20
ENDBRANCH   2  18
BRANCH   6  30
ATOM     30  C   UNL     1       0.754  -3.816   0.102  0.00  0.00    +0.107 C 
BRANCH  30  31
ATOM     31  C   UNL     1       0.499  -4.283  -1.333  0.00  0.00    +0.000 C 
BRANCH  31  32
ATOM     32  C   UNL     1      -0.397  -5.523  -1.313  0.00  0.00    -0.077 C 
BRANCH  32  38
ATOM     33  C   UNL     1      -1.439  -4.984  -3.432  0.00  0.00    -0.050 C 
ATOM     34  C   UNL     1      -1.619  -5.463  -4.875  0.00  0.00    +0.141 C 
ATOM     35  O   UNL     1      -2.229  -6.757  -4.870  0.00  0.00    -0.383 OA
ATOM     36  C   UNL     1      -1.479  -7.744  -4.157  0.00  0.00    +0.141 C 
ATOM     37  C   UNL     1      -1.297  -7.288  -2.706  0.00  0.00    -0.050 C 
ATOM     38  N   UNL     1      -0.619  -5.975  -2.704  0.00  0.00    +0.383 N 
ATOM     39  H   UNL     1       0.289  -6.067  -3.173  0.00  0.00    -0.082 HD
ENDBRANCH  32  38
ENDBRANCH  31  32
ENDBRANCH  30  31
ENDBRANCH   6  30
TORSDOF 10
