REMARK  Name = ZINC25425842
REMARK  7 active torsions:
REMARK  status: ('A' for Active; 'I' for Inactive)
REMARK    1  A    between atoms: C_1  and  C_2
REMARK    2  A    between atoms: C_2  and  O_3
REMARK    3  A    between atoms: O_3  and  C_4
REMARK    4  A    between atoms: C_11  and  C_18
REMARK    5  A    between atoms: C_13  and  O_14
REMARK    6  A    between atoms: C_18  and  S_19
REMARK    7  A    between atoms: S_19  and  C_20
REMARK                            x       y       z     vdW  Elec       q    Type
REMARK                         _______ _______ _______ _____ _____    ______ ____
ROOT
ATOM      1  C   UNL     1       2.977   4.842  -0.108  0.00  0.00    +0.405 C 
ATOM      2  O   UNL     1       2.054   5.349  -0.714  0.00  0.00    -0.226 OA
ATOM      3  N   UNL     1       2.780   3.708   0.594  0.00  0.00    -0.251 N 
ATOM      4  C   UNL     1       1.544   3.064   0.546  0.00  0.00    +0.040 A 
ATOM      5  C   UNL     1       1.487   1.670   0.581  0.00  0.00    +0.024 A 
ATOM      6  C   UNL     1       0.285   1.026   0.535  0.00  0.00    +0.013 A 
ATOM      7  C   UNL     1      -0.899   1.768   0.446  0.00  0.00    +0.022 A 
ATOM      8  C   UNL     1      -2.202   1.103   0.401  0.00  0.00    -0.020 A 
ATOM      9  C   UNL     1      -3.316   1.878   0.321  0.00  0.00    +0.092 A 
ATOM     10  C   UNL     1      -3.192   3.282   0.290  0.00  0.00    +0.285 A 
ATOM     11  O   UNL     1      -1.994   3.885   0.337  0.00  0.00    -0.425 OA
ATOM     12  C   UNL     1      -0.849   3.174   0.417  0.00  0.00    +0.141 A 
ATOM     13  C   UNL     1       0.380   3.814   0.464  0.00  0.00    +0.070 A 
ATOM     14  H   UNL     1       3.595   3.291   1.204  0.00  0.00    +0.158 HD
ENDROOT
BRANCH  10  15
ATOM     15  O   UNL     1      -4.198   3.965   0.219  0.00  0.00    -0.480 OA
ATOM     16  H   UNL     1      -4.118   5.061   0.194  0.00  0.00    +0.295 HD
ENDBRANCH  10  15
BRANCH   1  17
ATOM     17  O   UNL     1       4.196   5.412  -0.137  0.00  0.00    -0.450 OA
BRANCH  17  19
ATOM     18  C   UNL     1       5.779   7.129  -0.827  0.00  0.00    +0.048 C 
ATOM     19  C   UNL     1       4.335   6.632  -0.912  0.00  0.00    +0.230 C 
ENDBRANCH  17  19
ENDBRANCH   1  17
BRANCH   8  20
ATOM     20  C   UNL     1      -2.306  -0.400   0.435  0.00  0.00    +0.112 C 
BRANCH  20  21
ATOM     21  S   UNL     1      -2.257  -1.049  -1.258  0.00  0.00    -0.100 S 
BRANCH  21  22
ATOM     22  C   UNL     1      -2.387  -2.793  -1.050  0.00  0.00    +0.118 A 
ATOM     23  C   UNL     1      -2.820  -3.312   0.165  0.00  0.00    +0.036 A 
ATOM     24  C   UNL     1      -2.923  -4.684   0.313  0.00  0.00    +0.004 A 
ATOM     25  C   UNL     1      -2.577  -5.495  -0.760  0.00  0.00    +0.021 A 
ATOM     26  C   UNL     1      -2.149  -4.912  -1.937  0.00  0.00    +0.134 A 
ATOM     27  N   UNL     1      -2.066  -3.600  -2.052  0.00  0.00    -0.134 N 
ATOM     28  O   UNL     1      -1.623  -3.040  -3.275  0.00  0.00    -0.163 OA
ENDBRANCH  21  22
ENDBRANCH  20  21
ENDBRANCH   8  20
TORSDOF 6
