REMARK  Name = ZINC05306258
REMARK  8 active torsions:
REMARK  status: ('A' for Active; 'I' for Inactive)
REMARK    1  A    between atoms: C_1  and  C_2
REMARK    2  A    between atoms: C_2  and  C_3
REMARK    3  A    between atoms: C_3  and  C_4
REMARK    4  A    between atoms: C_4  and  N_5
REMARK    5  A    between atoms: N_5  and  S_6
REMARK    6  A    between atoms: S_6  and  C_9
REMARK    7  A    between atoms: C_12  and  C_14
REMARK    8  A    between atoms: C_20  and  C_27
REMARK                            x       y       z     vdW  Elec       q    Type
REMARK                         _______ _______ _______ _____ _____    ______ ____
ROOT
ATOM      1  C   UNL     1      -8.024   2.294   0.239  0.00  0.00    +0.258 A 
ATOM      2  C   UNL     1      -8.345   1.033  -0.115  0.00  0.00    +0.071 A 
ATOM      3  C   UNL     1      -7.137   0.323  -0.251  0.00  0.00    +0.055 A 
ATOM      4  C   UNL     1      -6.132   1.197   0.040  0.00  0.00    +0.176 A 
ATOM      5  O   UNL     1      -6.688   2.390   0.331  0.00  0.00    -0.433 OA
ENDROOT
BRANCH   4   6
ATOM      6  C   UNL     1      -4.693   0.893   0.030  0.00  0.00    +0.220 A 
ATOM      7  N   UNL     1      -4.146  -0.308   0.021  0.00  0.00    -0.124 NA
ATOM      8  N   UNL     1      -2.863  -0.208   0.015  0.00  0.00    -0.127 NA
ATOM      9  C   UNL     1      -2.514   1.062   0.020  0.00  0.00    +0.186 A 
ATOM     10  N   UNL     1      -3.670   1.805   0.030  0.00  0.00    -0.189 N 
ATOM     11  N   UNL     1      -3.635   3.198   0.037  0.00  0.00    -0.168 NA
ATOM     12  C   UNL     1      -2.523   3.871   0.047  0.00  0.00    +0.067 A 
ATOM     13  C   UNL     1      -1.236   3.175   0.031  0.00  0.00    +0.008 A 
ATOM     14  C   UNL     1      -1.226   1.761   0.017  0.00  0.00    +0.030 A 
ATOM     15  C   UNL     1      -0.013   1.076   0.008  0.00  0.00    +0.012 A 
ATOM     16  C   UNL     1       1.169   1.785   0.001  0.00  0.00    +0.001 A 
ATOM     17  C   UNL     1       1.161   3.174   0.008  0.00  0.00    +0.001 A 
ATOM     18  C   UNL     1      -0.026   3.872   0.023  0.00  0.00    +0.010 A 
ATOM     19  C   UNL     1      -2.560   5.377   0.055  0.00  0.00    +0.068 C 
ENDBRANCH   4   6
BRANCH   1  20
ATOM     20  S   UNL     1      -9.170   3.600   0.532  0.00  0.00    +0.092 S 
ATOM     21  O   UNL     1      -8.463   4.815   0.322  0.00  0.00    -0.150 OA
ATOM     22  O   UNL     1     -10.352   3.273  -0.185  0.00  0.00    -0.150 OA
BRANCH  20  23
ATOM     23  N   UNL     1      -9.564   3.554   2.140  0.00  0.00    -0.187 NA
ATOM     24  H   UNL     1     -10.472   3.348   2.411  0.00  0.00    +0.148 HD
BRANCH  23  25
ATOM     25  C   UNL     1      -8.541   3.825   3.153  0.00  0.00    +0.106 C 
BRANCH  25  26
ATOM     26  C   UNL     1      -9.215   4.089   4.500  0.00  0.00    +0.017 C 
BRANCH  26  28
ATOM     27  C   UNL     1      -8.821   4.636   6.906  0.00  0.00    +0.004 C 
ATOM     28  C   UNL     1      -8.146   4.372   5.559  0.00  0.00    -0.002 C 
ENDBRANCH  26  28
ENDBRANCH  25  26
ENDBRANCH  23  25
ENDBRANCH  20  23
ENDBRANCH   1  20
TORSDOF 6
