REMARK  Name = ZINC28053902
REMARK  9 active torsions:
REMARK  status: ('A' for Active; 'I' for Inactive)
REMARK    1  A    between atoms: C_1  and  C_2
REMARK    2  A    between atoms: C_4  and  N_24
REMARK    3  A    between atoms: C_6  and  S_9
REMARK    4  A    between atoms: C_7  and  C_8
REMARK    5  A    between atoms: S_9  and  N_12
REMARK    6  A    between atoms: N_12  and  C_13
REMARK    7  A    between atoms: C_19  and  C_21
REMARK    8  A    between atoms: C_21  and  C_22
REMARK    9  A    between atoms: C_21  and  C_23
REMARK                            x       y       z     vdW  Elec       q    Type
REMARK                         _______ _______ _______ _____ _____    ______ ____
ROOT
ATOM      1  S   UNL     1      -3.092   1.375  -0.050  0.00  0.00    +0.059 S 
ATOM      2  O   UNL     1      -2.942   0.008  -0.408  0.00  0.00    -0.153 OA
ATOM      3  O   UNL     1      -4.343   1.928   0.339  0.00  0.00    -0.153 OA
ENDROOT
BRANCH   1   9
ATOM      4  C   UNL     1      -0.843   4.563   3.429  0.00  0.00    +0.044 C 
ATOM      5  C   UNL     1      -0.976   3.177   2.852  0.00  0.00    -0.044 A 
ATOM      6  C   UNL     1      -0.227   2.137   3.371  0.00  0.00    +0.036 A 
ATOM      7  C   UNL     1      -0.351   0.866   2.843  0.00  0.00    +0.128 A 
ATOM      8  C   UNL     1      -1.223   0.634   1.796  0.00  0.00    +0.061 A 
ATOM      9  C   UNL     1      -1.976   1.672   1.280  0.00  0.00    +0.111 A 
ATOM     10  C   UNL     1      -1.848   2.945   1.805  0.00  0.00    -0.021 A 
ATOM     11  C   UNL     1      -2.665   4.078   1.240  0.00  0.00    +0.046 C 
BRANCH   7  12
ATOM     12  N   UNL     1       0.451  -0.248   3.399  0.00  0.00    +0.056 N 
ATOM     13  O   UNL     1       1.219  -0.043   4.322  0.00  0.00    -0.126 OA
ATOM     14  O   UNL     1       0.342  -1.368   2.934  0.00  0.00    -0.126 OA
ENDBRANCH   7  12
ENDBRANCH   1   9
BRANCH   1  15
ATOM     15  N   UNL     1      -2.562   2.265  -1.342  0.00  0.00    -0.187 NA
ATOM     16  H   UNL     1      -3.100   3.183  -1.619  0.00  0.00    +0.148 HD
BRANCH  15  17
ATOM     17  C   UNL     1      -1.274   1.954  -1.966  0.00  0.00    +0.079 C 
ATOM     18  C   UNL     1      -0.198   2.888  -1.407  0.00  0.00    +0.039 C 
ATOM     19  C   UNL     1       1.154   2.537  -2.036  0.00  0.00    +0.109 C 
ATOM     20  N   UNL     1       1.020   2.578  -3.499  0.00  0.00    -0.301 N 
ATOM     21  C   UNL     1      -0.043   1.787  -4.133  0.00  0.00    +0.109 C 
ATOM     22  C   UNL     1      -1.382   2.146  -3.481  0.00  0.00    +0.039 C 
ATOM     23  C   UNL     1       1.855   3.328  -4.244  0.00  0.00    +0.218 C 
ATOM     24  O   UNL     1       1.682   3.422  -5.441  0.00  0.00    -0.275 OA
BRANCH  23  25
ATOM     25  C   UNL     1       3.006   4.050  -3.591  0.00  0.00    +0.069 C 
ATOM     26  C   UNL     1       4.120   4.267  -4.617  0.00  0.00    +0.017 C 
ATOM     27  C   UNL     1       2.526   5.404  -3.065  0.00  0.00    +0.017 C 
ENDBRANCH  23  25
ENDBRANCH  15  17
ENDBRANCH   1  15
TORSDOF 5
