REMARK  Name = ZINC12779927
REMARK  12 active torsions:
REMARK  status: ('A' for Active; 'I' for Inactive)
REMARK    1  A    between atoms: C_1  and  C_2
REMARK    2  A    between atoms: C_5  and  S_8
REMARK    3  A    between atoms: S_8  and  N_11
REMARK    4  A    between atoms: N_11  and  C_12
REMARK    5  A    between atoms: C_12  and  C_14
REMARK    6  A    between atoms: C_12  and  C_17
REMARK    7  A    between atoms: C_14  and  C_15
REMARK    8  A    between atoms: C_14  and  C_16
REMARK    9  A    between atoms: C_17  and  O_19
REMARK   10  A    between atoms: O_19  and  C_20
REMARK   11  A    between atoms: C_20  and  C_22
REMARK   12  A    between atoms: C_20  and  C_23
REMARK                            x       y       z     vdW  Elec       q    Type
REMARK                         _______ _______ _______ _____ _____    ______ ____
ROOT
ATOM      1  C   UNL     1      -2.122   3.631   3.601  0.00  0.00    +0.327 C 
ATOM      2  O   UNL     1      -3.299   3.363   3.564  0.00  0.00    -0.249 OA
ENDROOT
BRANCH   1   3
ATOM      3  C   UNL     1      -1.202   3.136   2.514  0.00  0.00    +0.187 C 
BRANCH   3   4
ATOM      4  C   UNL     1      -0.117   2.250   3.129  0.00  0.00    +0.012 C 
ATOM      5  C   UNL     1       0.729   1.631   2.014  0.00  0.00    +0.009 C 
ATOM      6  C   UNL     1       0.777   3.095   4.038  0.00  0.00    +0.009 C 
ENDBRANCH   3   4
BRANCH   3   7
ATOM      7  N   UNL     1      -1.972   2.360   1.539  0.00  0.00    -0.176 NA
ATOM      8  H   UNL     1      -2.153   1.421   1.701  0.00  0.00    +0.149 HD
BRANCH   7   9
ATOM      9  S   UNL     1      -2.533   3.086   0.160  0.00  0.00    +0.059 S 
ATOM     10  O   UNL     1      -3.170   4.289   0.565  0.00  0.00    -0.153 OA
ATOM     11  O   UNL     1      -3.207   2.079  -0.583  0.00  0.00    -0.153 OA
BRANCH   9  16
ATOM     12  C   UNL     1       2.275   4.703  -3.107  0.00  0.00    +0.044 C 
ATOM     13  C   UNL     1       1.075   4.298  -2.290  0.00  0.00    -0.050 A 
ATOM     14  C   UNL     1       0.575   3.013  -2.386  0.00  0.00    +0.005 A 
ATOM     15  C   UNL     1      -0.525   2.642  -1.636  0.00  0.00    +0.029 A 
ATOM     16  C   UNL     1      -1.125   3.556  -0.790  0.00  0.00    +0.105 A 
ATOM     17  C   UNL     1      -0.624   4.841  -0.693  0.00  0.00    +0.029 A 
ATOM     18  C   UNL     1       0.475   5.212  -1.444  0.00  0.00    +0.005 A 
ENDBRANCH   9  16
ENDBRANCH   7   9
ENDBRANCH   3   7
ENDBRANCH   1   3
BRANCH   1  19
ATOM     19  O   UNL     1      -1.633   4.369   4.609  0.00  0.00    -0.451 OA
BRANCH  19  20
ATOM     20  C   UNL     1      -2.576   4.812   5.620  0.00  0.00    +0.259 C 
ATOM     21  C   UNL     1      -2.658   3.766   6.734  0.00  0.00    +0.062 C 
BRANCH  20  22
ATOM     22  C   UNL     1      -2.115   6.125   6.198  0.00  0.00    +0.261 C 
ATOM     23  O   UNL     1      -1.092   6.638   5.796  0.00  0.00    -0.271 OA
ATOM     24  N   UNL     1      -2.840   6.730   7.160  0.00  0.00    -0.258 N 
ATOM     25  C   UNL     1      -4.084   6.129   7.664  0.00  0.00    +0.209 C 
ATOM     26  C   UNL     1      -5.120   7.211   7.830  0.00  0.00    +0.235 C 
ATOM     27  O   UNL     1      -6.296   6.937   7.716  0.00  0.00    -0.274 OA
ATOM     28  N   UNL     1      -4.756   8.478   8.105  0.00  0.00    -0.283 N 
ATOM     29  C   UNL     1      -3.405   8.831   8.193  0.00  0.00    +0.055 A 
ATOM     30  C   UNL     1      -2.428   7.951   7.717  0.00  0.00    +0.058 A 
ATOM     31  C   UNL     1      -1.089   8.284   7.795  0.00  0.00    +0.025 A 
ATOM     32  C   UNL     1      -0.714   9.494   8.355  0.00  0.00    +0.002 A 
ATOM     33  C   UNL     1      -1.675  10.365   8.834  0.00  0.00    +0.002 A 
ATOM     34  C   UNL     1      -3.024  10.042   8.748  0.00  0.00    +0.025 A 
ATOM     35  H   UNL     1      -5.438   9.153   8.243  0.00  0.00    +0.155 HD
ENDBRANCH  20  22
ENDBRANCH  19  20
ENDBRANCH   1  19
TORSDOF 8
