REMARK  Name = ZINC33604783
REMARK  12 active torsions:
REMARK  status: ('A' for Active; 'I' for Inactive)
REMARK    1  A    between atoms: C_1  and  C_2
REMARK    2  A    between atoms: C_2  and  C_3
REMARK    3  A    between atoms: C_7  and  C_41
REMARK    4  A    between atoms: C_8  and  N_9
REMARK    5  A    between atoms: C_14  and  C_32
REMARK    6  A    between atoms: C_17  and  C_22
REMARK    7  A    between atoms: C_17  and  C_29
REMARK    8  A    between atoms: C_22  and  C_23
REMARK    9  A    between atoms: C_34  and  C_40
REMARK   10  A    between atoms: C_35  and  O_39
REMARK   11  A    between atoms: C_36  and  C_38
REMARK   12  A    between atoms: C_41  and  C_42
REMARK                            x       y       z     vdW  Elec       q    Type
REMARK                         _______ _______ _______ _____ _____    ______ ____
ROOT
ATOM      1  N   UNL     1       0.210   0.003   0.832  0.00  0.00    -0.209 N 
ATOM      2  C   UNL     1       0.009  -0.961   1.779  0.00  0.00    +0.229 C 
ATOM      3  O   UNL     1      -0.374  -0.795   2.917  0.00  0.00    -0.275 OA
ATOM      4  C   UNL     1       0.355  -2.263   1.131  0.00  0.00    +0.077 C 
ATOM      5  C   UNL     1      -0.504  -3.500   1.327  0.00  0.00    -0.027 C 
ATOM      6  N   UNL     1      -0.647  -4.116  -0.026  0.00  0.00    +0.395 N 
ATOM      7  C   UNL     1      -0.046  -3.171  -1.029  0.00  0.00    +0.048 C 
ATOM      8  C   UNL     1      -0.099  -1.882  -0.327  0.00  0.00    +0.086 C 
ATOM      9  C   UNL     1       0.322  -0.513  -0.435  0.00  0.00    +0.229 C 
ATOM     10  O   UNL     1       0.698   0.064  -1.433  0.00  0.00    -0.275 OA
ATOM     11  H   UNL     1      -0.120  -5.081  -0.047  0.00  0.00    -0.083 HD
ATOM     12  H   UNL     1      -1.714  -4.276  -0.245  0.00  0.00    -0.083 HD
ENDROOT
BRANCH   5  13
ATOM     13  C   UNL     1      -1.855  -3.113   1.870  0.00  0.00    -0.060 A 
ATOM     14  C   UNL     1      -2.090  -3.156   3.232  0.00  0.00    +0.009 A 
ATOM     15  C   UNL     1      -3.326  -2.797   3.733  0.00  0.00    -0.009 A 
ATOM     16  C   UNL     1      -4.337  -2.404   2.867  0.00  0.00    +0.123 A 
ATOM     17  C   UNL     1      -4.100  -2.367   1.500  0.00  0.00    -0.009 A 
ATOM     18  C   UNL     1      -2.860  -2.722   1.005  0.00  0.00    +0.009 A 
ATOM     19  C   UNL     1      -5.196  -1.942   0.557  0.00  0.00    +0.047 C 
ATOM     20  C   UNL     1      -3.580  -2.838   5.218  0.00  0.00    +0.047 C 
BRANCH  16  21
ATOM     21  O   UNL     1      -5.556  -2.056   3.357  0.00  0.00    -0.506 OA
ATOM     22  H   UNL     1      -6.356  -1.745   2.669  0.00  0.00    +0.292 HD
ENDBRANCH  16  21
ENDBRANCH   5  13
BRANCH   1  28
ATOM     23  C   UNL     1      -0.861   2.152   1.111  0.00  0.00    -0.026 A 
ATOM     24  C   UNL     1      -0.782   3.500   1.402  0.00  0.00    +0.005 A 
ATOM     25  C   UNL     1       0.441   4.075   1.695  0.00  0.00    +0.001 A 
ATOM     26  C   UNL     1       1.587   3.302   1.703  0.00  0.00    +0.005 A 
ATOM     27  C   UNL     1       1.514   1.952   1.418  0.00  0.00    -0.026 A 
ATOM     28  C   UNL     1       0.288   1.372   1.123  0.00  0.00    +0.050 A 
BRANCH  23  30
ATOM     29  C   UNL     1      -2.796   0.921   2.054  0.00  0.00    +0.009 C 
ATOM     30  C   UNL     1      -2.193   1.528   0.785  0.00  0.00    +0.033 C 
ENDBRANCH  23  30
BRANCH  27  31
ATOM     31  C   UNL     1       2.764   1.110   1.427  0.00  0.00    +0.033 C 
ATOM     32  C   UNL     1       3.320   1.008   0.005  0.00  0.00    +0.009 C 
ENDBRANCH  27  31
ENDBRANCH   1  28
BRANCH   7  33
ATOM     33  C   UNL     1      -0.872  -3.133  -2.289  0.00  0.00    +0.346 C 
ATOM     34  O   UNL     1      -1.006  -2.094  -2.892  0.00  0.00    -0.248 OA
ATOM     35  O   UNL     1      -1.458  -4.252  -2.742  0.00  0.00    -0.248 OA
ENDBRANCH   7  33
BRANCH   7  36
ATOM     36  C   UNL     1       1.400  -3.560  -1.342  0.00  0.00    +0.003 C 
BRANCH  36  37
ATOM     37  C   UNL     1       1.422  -4.921  -2.041  0.00  0.00    -0.012 C 
ATOM     38  C   UNL     1       0.958  -6.004  -1.065  0.00  0.00    +0.003 C 
ATOM     39  C   UNL     1       0.980  -7.364  -1.765  0.00  0.00    +0.000 C 
ATOM     40  C   UNL     1       2.404  -7.675  -2.231  0.00  0.00    +0.000 C 
ATOM     41  C   UNL     1       2.868  -6.592  -3.207  0.00  0.00    +0.000 C 
ATOM     42  C   UNL     1       2.846  -5.231  -2.507  0.00  0.00    +0.003 C 
ENDBRANCH  36  37
ENDBRANCH   7  36
TORSDOF 8
