REMARK  Name = ZINC30883954
REMARK  12 active torsions:
REMARK  status: ('A' for Active; 'I' for Inactive)
REMARK    1  A    between atoms: C_1  and  C_2
REMARK    2  A    between atoms: C_4  and  N_31
REMARK    3  A    between atoms: C_8  and  C_30
REMARK    4  A    between atoms: C_11  and  O_29
REMARK    5  A    between atoms: C_13  and  C_17
REMARK    6  A    between atoms: C_17  and  C_19
REMARK    7  A    between atoms: C_17  and  C_20
REMARK    8  A    between atoms: N_22  and  C_23
REMARK    9  A    between atoms: C_23  and  C_24
REMARK   10  A    between atoms: C_32  and  C_34
REMARK   11  A    between atoms: C_34  and  O_35
REMARK   12  A    between atoms: O_35  and  C_36
REMARK                            x       y       z     vdW  Elec       q    Type
REMARK                         _______ _______ _______ _____ _____    ______ ____
ROOT
ATOM      1  C   UNL     1       3.366   2.472   1.522  0.00  0.00    +0.010 C 
ATOM      2  C   UNL     1       1.912   1.997   1.550  0.00  0.00    +0.012 C 
ATOM      3  C   UNL     1       1.871   0.473   1.423  0.00  0.00    +0.076 C 
ATOM      4  C   UNL     1       0.417  -0.002   1.450  0.00  0.00    +0.023 C 
ATOM      5  C   UNL     1      -0.347   0.627   0.284  0.00  0.00    +0.009 C 
ATOM      6  C   UNL     1      -0.306   2.152   0.410  0.00  0.00    -0.027 C 
ATOM      7  C   UNL     1       1.148   2.627   0.383  0.00  0.00    +0.028 C 
ATOM      8  C   UNL     1       1.189   4.151   0.510  0.00  0.00    +0.122 C 
ATOM      9  C   UNL     1       0.425   4.780  -0.657  0.00  0.00    +0.029 C 
ATOM     10  C   UNL     1      -1.029   4.305  -0.630  0.00  0.00    +0.007 C 
ATOM     11  C   UNL     1      -1.070   2.781  -0.756  0.00  0.00    +0.007 C 
ATOM     12  C   UNL     1      -0.955   2.571   1.731  0.00  0.00    +0.011 C 
ENDROOT
BRANCH   3  13
ATOM     13  N   UNL     1       2.603  -0.130   2.540  0.00  0.00    -0.309 N 
ATOM     14  C   UNL     1       3.138  -1.360   2.409  0.00  0.00    +0.251 C 
ATOM     15  O   UNL     1       3.014  -1.968   1.368  0.00  0.00    -0.272 OA
ATOM     16  H   UNL     1       2.716   0.422   3.485  0.00  0.00    +0.149 HD
BRANCH  14  17
ATOM     17  C   UNL     1       3.891  -1.980   3.558  0.00  0.00    +0.324 C 
BRANCH  17  18
ATOM     18  O   UNL     1       4.358  -3.276   3.178  0.00  0.00    -0.483 OA
BRANCH  18  19
ATOM     19  C   UNL     1       5.061  -3.975   4.107  0.00  0.00    +0.121 A 
ATOM     20  C   UNL     1       5.301  -3.423   5.357  0.00  0.00    +0.045 A 
ATOM     21  C   UNL     1       6.012  -4.139   6.301  0.00  0.00    +0.004 A 
ATOM     22  C   UNL     1       6.492  -5.399   5.998  0.00  0.00    +0.000 A 
ATOM     23  C   UNL     1       6.258  -5.949   4.751  0.00  0.00    +0.004 A 
ATOM     24  C   UNL     1       5.544  -5.240   3.805  0.00  0.00    +0.045 A 
ENDBRANCH  18  19
ENDBRANCH  17  18
ENDBRANCH  14  17
ENDBRANCH   3  13
BRANCH   9  25
ATOM     25  C   UNL     1       1.074   4.361  -1.977  0.00  0.00    +0.077 C 
ATOM     26  C   UNL     1       2.551   4.760  -1.969  0.00  0.00    +0.017 C 
BRANCH  25  27
ATOM     27  C   UNL     1       0.374   5.048  -3.122  0.00  0.00    +0.216 C 
ATOM     28  O   UNL     1      -0.552   5.799  -2.903  0.00  0.00    -0.276 OA
ATOM     29  N   UNL     1       0.778   4.827  -4.388  0.00  0.00    -0.310 N 
ATOM     30  H   UNL     1       1.618   4.146  -4.587  0.00  0.00    +0.149 HD
BRANCH  29  31
ATOM     31  C   UNL     1       0.098   5.495  -5.501  0.00  0.00    +0.146 C 
BRANCH  31  32
ATOM     32  C   UNL     1       0.737   5.082  -6.801  0.00  0.00    +0.007 A 
ATOM     33  C   UNL     1       0.427   4.040  -7.612  0.00  0.00    +0.013 A 
ATOM     34  C   UNL     1       1.157   3.852  -8.770  0.00  0.00    +0.008 A 
ATOM     35  C   UNL     1       2.162   4.714  -9.062  0.00  0.00    +0.045 A 
ATOM     36  S   UNL     1       2.094   5.841  -7.679  0.00  0.00    -0.100 S 
ENDBRANCH  31  32
ENDBRANCH  29  31
ENDBRANCH  25  27
ENDBRANCH   9  25
BRANCH   8  37
ATOM     37  O   UNL     1       2.547   4.595   0.484  0.00  0.00    -0.391 OA
ATOM     38  H   UNL     1       2.777   5.667   0.564  0.00  0.00    +0.210 HD
ENDBRANCH   8  37
TORSDOF 9
