REMARK  Name = ZINC09690507
REMARK  7 active torsions:
REMARK  status: ('A' for Active; 'I' for Inactive)
REMARK    1  A    between atoms: C_3  and  N_25
REMARK    2  A    between atoms: C_5  and  O_7
REMARK    3  A    between atoms: O_7  and  C_8
REMARK    4  A    between atoms: C_8  and  C_9
REMARK    5  A    between atoms: C_9  and  C_11
REMARK    6  A    between atoms: C_9  and  O_24
REMARK    7  A    between atoms: C_11  and  N_12
REMARK                            x       y       z     vdW  Elec       q    Type
REMARK                         _______ _______ _______ _____ _____    ______ ____
ROOT
ATOM      1  C   UNL     1      -0.729   1.579   1.267  0.00  0.00    +0.172 C 
ENDROOT
BRANCH   1   2
ATOM      2  O   UNL     1      -0.647   3.004   1.334  0.00  0.00    -0.387 OA
ATOM      3  H   UNL     1       0.258   3.345   1.368  0.00  0.00    +0.210 HD
ENDBRANCH   1   2
BRANCH   1   4
ATOM      4  C   UNL     1      -0.013   1.086   0.008  0.00  0.00    +0.262 C 
BRANCH   4   5
ATOM      5  O   UNL     1      -0.704   1.559  -1.150  0.00  0.00    -0.489 OA
BRANCH   5  10
ATOM      6  C   UNL     1       1.464   0.067  -3.661  0.00  0.00    +0.006 A 
ATOM      7  C   UNL     1       0.843   0.491  -4.822  0.00  0.00    +0.033 A 
ATOM      8  C   UNL     1      -0.295   1.272  -4.753  0.00  0.00    +0.130 A 
ATOM      9  C   UNL     1      -0.818   1.628  -3.525  0.00  0.00    +0.078 A 
ATOM     10  C   UNL     1      -0.194   1.208  -2.359  0.00  0.00    +0.123 A 
ATOM     11  C   UNL     1       0.948   0.423  -2.431  0.00  0.00    +0.046 A 
BRANCH   8  12
ATOM     12  N   UNL     1      -0.957   1.725  -5.997  0.00  0.00    +0.057 N 
ATOM     13  O   UNL     1      -0.500   1.408  -7.081  0.00  0.00    -0.126 OA
ATOM     14  O   UNL     1      -1.960   2.413  -5.938  0.00  0.00    -0.126 OA
ENDBRANCH   8  12
ENDBRANCH   5  10
ENDBRANCH   4   5
ENDBRANCH   1   4
BRANCH   1  15
ATOM     15  C   UNL     1      -0.064   0.971   2.503  0.00  0.00    +0.161 C 
BRANCH  15  16
ATOM     16  N   UNL     1      -0.821   1.347   3.700  0.00  0.00    -0.296 N 
ATOM     17  C   UNL     1      -0.500   2.485   4.370  0.00  0.00    +0.202 A 
ATOM     18  N   UNL     1      -1.126   2.888   5.434  0.00  0.00    -0.237 NA
ATOM     19  C   UNL     1      -2.155   2.181   5.964  0.00  0.00    +0.078 A 
ATOM     20  C   UNL     1      -2.825   2.611   7.111  0.00  0.00    +0.030 A 
ATOM     21  C   UNL     1      -3.864   1.862   7.616  0.00  0.00    +0.022 A 
ATOM     22  C   UNL     1      -4.257   0.681   6.996  0.00  0.00    +0.042 A 
ATOM     23  C   UNL     1      -3.612   0.237   5.862  0.00  0.00    +0.035 A 
ATOM     24  C   UNL     1      -2.557   0.981   5.336  0.00  0.00    +0.066 A 
ATOM     25  C   UNL     1      -1.831   0.556   4.130  0.00  0.00    +0.262 A 
ATOM     26  O   UNL     1      -2.126  -0.468   3.542  0.00  0.00    -0.267 OA
ATOM     27 CL   UNL     1      -5.572  -0.240   7.656  0.00  0.00    -0.084 Cl
ENDBRANCH  15  16
ENDBRANCH   1  15
TORSDOF 7
