REMARK  Name = ZINC08389196
REMARK  10 active torsions:
REMARK  status: ('A' for Active; 'I' for Inactive)
REMARK    1  A    between atoms: C_1  and  C_2
REMARK    2  A    between atoms: C_2  and  C_4
REMARK    3  A    between atoms: C_2  and  S_16
REMARK    4  A    between atoms: N_6  and  C_7
REMARK    5  A    between atoms: S_16  and  C_17
REMARK    6  A    between atoms: C_20  and  C_26
REMARK    7  A    between atoms: N_21  and  C_22
REMARK    8  A    between atoms: C_22  and  C_23
REMARK    9  A    between atoms: C_23  and  C_24
REMARK   10  A    between atoms: C_23  and  C_25
REMARK                            x       y       z     vdW  Elec       q    Type
REMARK                         _______ _______ _______ _____ _____    ______ ____
ROOT
ATOM      1  C   UNL     1      -0.032   1.519   0.015  0.00  0.00    +0.029 C 
ATOM      2  C   UNL     1      -0.000  -0.010   0.003  0.00  0.00    +0.137 C 
ENDROOT
BRANCH   2   3
ATOM      3  C   UNL     1       0.708  -0.488  -1.238  0.00  0.00    +0.230 C 
ATOM      4  O   UNL     1       1.867  -0.839  -1.178  0.00  0.00    -0.274 OA
ATOM      5  N   UNL     1       0.053  -0.526  -2.415  0.00  0.00    -0.284 N 
ATOM      6  H   UNL     1      -0.892  -0.310  -2.452  0.00  0.00    +0.155 HD
BRANCH   5   7
ATOM      7  C   UNL     1       0.736  -0.877  -3.587  0.00  0.00    +0.037 A 
ATOM      8  C   UNL     1       0.406  -0.272  -4.792  0.00  0.00    +0.027 A 
ATOM      9  C   UNL     1       1.079  -0.617  -5.947  0.00  0.00    +0.051 A 
ATOM     10  C   UNL     1       2.086  -1.568  -5.908  0.00  0.00    +0.166 A 
ATOM     11  C   UNL     1       2.420  -2.177  -4.700  0.00  0.00    +0.168 A 
ATOM     12  C   UNL     1       1.748  -1.827  -3.541  0.00  0.00    +0.072 A 
ATOM     13  O   UNL     1       3.430  -3.068  -4.925  0.00  0.00    -0.453 OA
ATOM     14  C   UNL     1       3.433  -3.295  -6.347  0.00  0.00    +0.466 C 
ATOM     15  O   UNL     1       2.888  -2.078  -6.889  0.00  0.00    -0.453 OA
ENDBRANCH   5   7
ENDBRANCH   2   3
BRANCH   2  16
ATOM     16  S   UNL     1       0.882  -0.609   1.471  0.00  0.00    -0.074 S 
BRANCH  16  17
ATOM     17  C   UNL     1      -0.136  -0.101   2.817  0.00  0.00    +0.193 A 
ATOM     18  N   UNL     1      -1.271   0.554   2.731  0.00  0.00    -0.122 NA
ATOM     19  N   UNL     1      -1.752   0.763   3.904  0.00  0.00    -0.125 NA
ATOM     20  C   UNL     1      -0.951   0.254   4.814  0.00  0.00    +0.200 A 
ATOM     21  N   UNL     1       0.107  -0.321   4.144  0.00  0.00    -0.299 N 
BRANCH  20  22
ATOM     22  C   UNL     1      -1.149   0.286   6.271  0.00  0.00    +0.172 A 
ATOM     23  C   UNL     1      -2.314   0.581   6.914  0.00  0.00    +0.053 A 
ATOM     24  C   UNL     1      -2.050   0.493   8.294  0.00  0.00    +0.042 A 
ATOM     25  C   UNL     1      -0.752   0.153   8.427  0.00  0.00    +0.196 A 
ATOM     26  O   UNL     1      -0.213   0.024   7.204  0.00  0.00    -0.460 OA
ENDBRANCH  20  22
BRANCH  21  27
ATOM     27  C   UNL     1       1.253  -1.019   4.731  0.00  0.00    +0.129 C 
BRANCH  27  28
ATOM     28  C   UNL     1       2.373  -0.014   5.011  0.00  0.00    +0.003 C 
ATOM     29  C   UNL     1       1.912   0.978   6.080  0.00  0.00    +0.009 C 
ATOM     30  C   UNL     1       3.614  -0.759   5.507  0.00  0.00    +0.009 C 
ENDBRANCH  27  28
ENDBRANCH  21  27
ENDBRANCH  16  17
ENDBRANCH   2  16
TORSDOF 7
