REMARK  Name = ZINC63801424
REMARK  8 active torsions:
REMARK  status: ('A' for Active; 'I' for Inactive)
REMARK    1  A    between atoms: C_1  and  C_2
REMARK    2  A    between atoms: N_4  and  C_5
REMARK    3  A    between atoms: C_5  and  C_7
REMARK    4  A    between atoms: C_5  and  C_17
REMARK    5  A    between atoms: C_7  and  C_8
REMARK    6  A    between atoms: N_19  and  C_20
REMARK    7  A    between atoms: C_23  and  O_26
REMARK    8  A    between atoms: O_26  and  C_27
REMARK                            x       y       z     vdW  Elec       q    Type
REMARK                         _______ _______ _______ _____ _____    ______ ____
ROOT
ATOM      1  C   UNL     1      -0.143  -3.078  -0.918  0.00  0.00    +0.238 C 
ATOM      2  O   UNL     1       0.036  -2.180  -1.714  0.00  0.00    -0.273 OA
ATOM      3  N   UNL     1       0.168  -4.346  -1.252  0.00  0.00    -0.284 N 
ATOM      4  H   UNL     1       0.136  -5.046  -0.581  0.00  0.00    +0.155 HD
ENDROOT
BRANCH   3   5
ATOM      5  C   UNL     1       0.538  -4.653  -2.568  0.00  0.00    +0.034 A 
ATOM      6  C   UNL     1       0.324  -5.930  -3.070  0.00  0.00    +0.027 A 
ATOM      7  C   UNL     1       0.688  -6.232  -4.367  0.00  0.00    +0.048 A 
ATOM      8  C   UNL     1       1.269  -5.260  -5.169  0.00  0.00    +0.129 A 
ATOM      9  C   UNL     1       1.484  -3.984  -4.668  0.00  0.00    +0.048 A 
ATOM     10  C   UNL     1       1.115  -3.680  -3.373  0.00  0.00    +0.027 A 
BRANCH   8  11
ATOM     11  O   UNL     1       1.628  -5.558  -6.446  0.00  0.00    -0.456 OA
BRANCH  11  12
ATOM     12  C   UNL     1       1.236  -6.755  -6.956  0.00  0.00    +0.129 A 
ATOM     13  C   UNL     1      -0.074  -6.934  -7.378  0.00  0.00    +0.047 A 
ATOM     14  C   UNL     1      -0.471  -8.151  -7.897  0.00  0.00    +0.019 A 
ATOM     15  C   UNL     1       0.436  -9.191  -7.996  0.00  0.00    +0.018 A 
ATOM     16  C   UNL     1       1.742  -9.015  -7.576  0.00  0.00    +0.019 A 
ATOM     17  C   UNL     1       2.145  -7.798  -7.061  0.00  0.00    +0.047 A 
ATOM     18 BR   UNL     1      -0.111 -10.856  -8.706  0.00  0.00    -0.050 Br
ENDBRANCH  11  12
ENDBRANCH   8  11
ENDBRANCH   3   5
BRANCH   1  19
ATOM     19  C   UNL     1      -0.714  -2.776   0.444  0.00  0.00    +0.163 C 
BRANCH  19  23
ATOM     20  C   UNL     1      -1.417   0.967   0.055  0.00  0.00    +0.109 C 
ATOM     21  C   UNL     1      -0.713  -0.365   0.089  0.00  0.00    +0.211 C 
ATOM     22  O   UNL     1       0.469  -0.434  -0.172  0.00  0.00    -0.276 OA
ATOM     23  N   UNL     1      -1.398  -1.481   0.410  0.00  0.00    -0.304 N 
ATOM     24  H   UNL     1      -2.343  -1.427   0.619  0.00  0.00    +0.149 HD
ENDBRANCH  19  23
BRANCH  19  25
ATOM     25  C   UNL     1       0.418  -2.728   1.472  0.00  0.00    +0.065 C 
BRANCH  25  26
ATOM     26  C   UNL     1      -0.163  -2.549   2.851  0.00  0.00    -0.039 C 
ATOM     27  C   UNL     1      -0.444  -3.521   3.748  0.00  0.00    -0.001 A 
ATOM     28  C   UNL     1      -0.299  -4.981   3.710  0.00  0.00    +0.010 A 
ATOM     29  C   UNL     1      -0.676  -5.706   4.787  0.00  0.00    +0.001 A 
ATOM     30  C   UNL     1      -1.201  -5.100   5.937  0.00  0.00    +0.002 A 
ATOM     31  C   UNL     1      -1.365  -3.764   6.046  0.00  0.00    +0.026 A 
ATOM     32  C   UNL     1      -1.000  -2.905   4.973  0.00  0.00    +0.043 A 
ATOM     33  N   UNL     1      -1.061  -1.602   4.839  0.00  0.00    -0.380 N 
ATOM     34  C   UNL     1      -0.544  -1.244   3.514  0.00  0.00    +0.144 C 
ATOM     35  H   UNL     1      -1.390  -0.979   5.506  0.00  0.00    +0.160 HD
ENDBRANCH  25  26
ENDBRANCH  19  25
ENDBRANCH   1  19
TORSDOF 7
