REMARK  Name = ZINC16828574
REMARK  13 active torsions:
REMARK  status: ('A' for Active; 'I' for Inactive)
REMARK    1  A    between atoms: C_1  and  C_2
REMARK    2  A    between atoms: C_2  and  C_4
REMARK    3  A    between atoms: C_2  and  S_11
REMARK    4  A    between atoms: N_6  and  C_7
REMARK    5  A    between atoms: C_7  and  C_8
REMARK    6  A    between atoms: C_7  and  C_9
REMARK    7  A    between atoms: C_7  and  C_10
REMARK    8  A    between atoms: S_11  and  C_12
REMARK    9  A    between atoms: N_22  and  C_23
REMARK   10  A    between atoms: C_23  and  C_24
REMARK   11  A    between atoms: C_24  and  C_25
REMARK   12  A    between atoms: C_28  and  S_31
REMARK   13  A    between atoms: S_31  and  N_34
REMARK                            x       y       z     vdW  Elec       q    Type
REMARK                         _______ _______ _______ _____ _____    ______ ____
ROOT
ATOM      1  C   UNL     1      -2.020  -0.740  -1.168  0.00  0.00    +0.173 A 
ATOM      2  N   UNL     1      -3.248  -1.192  -1.234  0.00  0.00    -0.223 NA
ATOM      3  C   UNL     1      -3.961  -1.465  -0.123  0.00  0.00    +0.079 A 
ATOM      4  C   UNL     1      -5.271  -1.947  -0.193  0.00  0.00    +0.028 A 
ATOM      5  C   UNL     1      -5.958  -2.210   0.958  0.00  0.00    +0.002 A 
ATOM      6  C   UNL     1      -5.373  -2.006   2.201  0.00  0.00    +0.001 A 
ATOM      7  C   UNL     1      -4.093  -1.536   2.303  0.00  0.00    +0.015 A 
ATOM      8  C   UNL     1      -3.369  -1.258   1.144  0.00  0.00    +0.065 A 
ATOM      9  C   UNL     1      -1.990  -0.755   1.192  0.00  0.00    +0.262 A 
ATOM     10  O   UNL     1      -1.425  -0.562   2.252  0.00  0.00    -0.267 OA
ATOM     11  N   UNL     1      -1.372  -0.511   0.012  0.00  0.00    -0.287 N 
ENDROOT
BRANCH   1  12
ATOM     12  S   UNL     1      -1.164  -0.410  -2.673  0.00  0.00    -0.075 S 
BRANCH  12  14
ATOM     13  C   UNL     1      -2.726  -2.370  -3.759  0.00  0.00    +0.029 C 
ATOM     14  C   UNL     1      -2.442  -0.871  -3.869  0.00  0.00    +0.137 C 
BRANCH  14  15
ATOM     15  C   UNL     1      -1.966  -0.550  -5.262  0.00  0.00    +0.227 C 
ATOM     16  O   UNL     1      -0.778  -0.498  -5.499  0.00  0.00    -0.275 OA
ATOM     17  N   UNL     1      -2.860  -0.321  -6.244  0.00  0.00    -0.310 N 
ATOM     18  H   UNL     1      -3.810  -0.363  -6.054  0.00  0.00    +0.149 HD
BRANCH  17  19
ATOM     19  C   UNL     1      -2.397  -0.010  -7.598  0.00  0.00    +0.026 C 
ATOM     20  C   UNL     1      -1.554  -1.171  -8.129  0.00  0.00    +0.031 C 
ATOM     21  C   UNL     1      -3.604   0.204  -8.514  0.00  0.00    +0.031 C 
ATOM     22  C   UNL     1      -1.548   1.263  -7.567  0.00  0.00    +0.031 C 
ENDBRANCH  17  19
ENDBRANCH  14  15
ENDBRANCH  12  14
ENDBRANCH   1  12
BRANCH  11  23
ATOM     23  C   UNL     1       0.002  -0.004   0.002  0.00  0.00    +0.132 C 
BRANCH  23  24
ATOM     24  C   UNL     1      -0.019   1.526   0.010  0.00  0.00    +0.057 C 
BRANCH  24  25
ATOM     25  C   UNL     1       1.395   2.047  -0.000  0.00  0.00    -0.046 A 
ATOM     26  C   UNL     1       2.053   2.285   1.192  0.00  0.00    +0.005 A 
ATOM     27  C   UNL     1       3.351   2.760   1.182  0.00  0.00    +0.029 A 
ATOM     28  C   UNL     1       3.989   3.005  -0.020  0.00  0.00    +0.105 A 
ATOM     29  C   UNL     1       3.329   2.772  -1.212  0.00  0.00    +0.029 A 
ATOM     30  C   UNL     1       2.032   2.293  -1.202  0.00  0.00    +0.005 A 
BRANCH  28  31
ATOM     31  S   UNL     1       5.642   3.613  -0.032  0.00  0.00    +0.056 S 
ATOM     32  O   UNL     1       6.225   3.231   1.206  0.00  0.00    -0.153 OA
ATOM     33  O   UNL     1       6.202   3.243  -1.285  0.00  0.00    -0.153 OA
BRANCH  31  34
ATOM     34  N   UNL     1       5.555   5.267  -0.024  0.00  0.00    -0.204 NA
ATOM     35  H   UNL     1       6.260   5.788   0.392  0.00  0.00    +0.144 HD
ATOM     36  H   UNL     1       4.799   5.715  -0.435  0.00  0.00    +0.144 HD
ENDBRANCH  31  34
ENDBRANCH  28  31
ENDBRANCH  24  25
ENDBRANCH  23  24
ENDBRANCH  11  23
TORSDOF 9
