REMARK  Name = ZINC51829436
REMARK  5 active torsions:
REMARK  status: ('A' for Active; 'I' for Inactive)
REMARK    1  A    between atoms: C_3  and  C_25
REMARK    2  A    between atoms: C_5  and  O_7
REMARK    3  A    between atoms: O_7  and  C_8
REMARK    4  A    between atoms: C_8  and  C_10
REMARK    5  A    between atoms: C_13  and  C_15
REMARK                            x       y       z     vdW  Elec       q    Type
REMARK                         _______ _______ _______ _____ _____    ______ ____
ROOT
ATOM      1  C   UNL     1       0.015  -4.149   0.197  0.00  0.00    +0.097 A 
ATOM      2  C   UNL     1      -1.082  -4.994   0.313  0.00  0.00    +0.023 A 
ATOM      3  C   UNL     1      -0.866  -6.340   0.399  0.00  0.00    +0.017 A 
ATOM      4  C   UNL     1       0.438  -6.809   0.368  0.00  0.00    +0.020 A 
ATOM      5  S   UNL     1       1.379  -5.301   0.204  0.00  0.00    -0.082 S 
ENDROOT
BRANCH   4   6
ATOM      6  C   UNL     1       0.925  -8.202   0.444  0.00  0.00    -0.008 A 
ATOM      7  C   UNL     1       0.016  -9.256   0.560  0.00  0.00    +0.013 A 
ATOM      8  C   UNL     1       0.473 -10.554   0.632  0.00  0.00    +0.050 A 
ATOM      9  C   UNL     1       1.836 -10.820   0.590  0.00  0.00    +0.162 A 
ATOM     10  C   UNL     1       2.747  -9.774   0.472  0.00  0.00    +0.163 A 
ATOM     11  C   UNL     1       2.294  -8.469   0.395  0.00  0.00    +0.058 A 
ATOM     12  O   UNL     1       4.085 -10.019   0.421  0.00  0.00    -0.485 OA
ATOM     13  C   UNL     1       4.521 -11.307   0.869  0.00  0.00    +0.270 C 
ATOM     14  C   UNL     1       3.607 -12.368   0.243  0.00  0.00    +0.270 C 
ATOM     15  O   UNL     1       2.264 -12.110   0.666  0.00  0.00    -0.485 OA
ENDBRANCH   4   6
BRANCH   1  16
ATOM     16  C   UNL     1       0.043  -2.691   0.091  0.00  0.00    +0.351 C 
ATOM     17  O   UNL     1      -0.996  -2.059   0.103  0.00  0.00    -0.244 OA
BRANCH  16  18
ATOM     18  O   UNL     1       1.224  -2.046  -0.021  0.00  0.00    -0.422 OA
BRANCH  18  23
ATOM     19  C   UNL     1       1.505   1.411  -1.130  0.00  0.00    +0.004 A 
ATOM     20  C   UNL     1       1.196   2.089   0.032  0.00  0.00    +0.013 A 
ATOM     21  C   UNL     1       0.892   1.377   1.194  0.00  0.00    +0.040 A 
ATOM     22  C   UNL     1       0.902  -0.018   1.174  0.00  0.00    +0.059 A 
ATOM     23  C   UNL     1       1.213  -0.687   0.003  0.00  0.00    +0.133 A 
ATOM     24  C   UNL     1       1.514   0.029  -1.148  0.00  0.00    +0.046 A 
BRANCH  21  25
ATOM     25  C   UNL     1       0.561   2.099   2.441  0.00  0.00    +0.242 C 
ATOM     26  O   UNL     1       0.297   1.478   3.451  0.00  0.00    -0.270 OA
ATOM     27  N   UNL     1       0.553   3.447   2.457  0.00  0.00    -0.325 N 
ATOM     28  H   UNL     1       0.764   3.943   1.651  0.00  0.00    +0.145 HD
ATOM     29  H   UNL     1       0.336   3.921   3.275  0.00  0.00    +0.145 HD
ENDBRANCH  21  25
ENDBRANCH  18  23
ENDBRANCH  16  18
ENDBRANCH   1  16
TORSDOF 5
