REMARK  Name = ZINC39431582
REMARK  8 active torsions:
REMARK  status: ('A' for Active; 'I' for Inactive)
REMARK    1  A    between atoms: C_6  and  C_11
REMARK    2  A    between atoms: C_11  and  O_13
REMARK    3  A    between atoms: O_13  and  C_14
REMARK    4  A    between atoms: C_14  and  C_15
REMARK    5  A    between atoms: C_15  and  C_17
REMARK    6  A    between atoms: C_17  and  O_18
REMARK    7  A    between atoms: O_18  and  C_19
REMARK    8  A    between atoms: C_19  and  C_21
REMARK                            x       y       z     vdW  Elec       q    Type
REMARK                         _______ _______ _______ _____ _____    ______ ____
ROOT
ATOM      1  C   UNL     1       3.457  -6.113   2.616  0.00  0.00    +0.208 C 
ATOM      2  O   UNL     1       2.779  -6.573   1.729  0.00  0.00    -0.290 OA
ENDROOT
BRANCH   1   3
ATOM      3  C   UNL     1       3.884  -4.668   2.566  0.00  0.00    +0.309 C 
BRANCH   3   4
ATOM      4  O   UNL     1       3.365  -4.059   1.383  0.00  0.00    -0.455 OA
BRANCH   4   5
ATOM      5  C   UNL     1       3.656  -2.763   1.187  0.00  0.00    +0.334 C 
ATOM      6  O   UNL     1       4.329  -2.166   1.993  0.00  0.00    -0.248 OA
BRANCH   5  12
ATOM      7  C   UNL     1      -0.016   1.348   0.009  0.00  0.00    +0.001 A 
ATOM      8  C   UNL     1       1.166   2.101   0.002  0.00  0.00    +0.002 A 
ATOM      9  C   UNL     1       2.391   1.535  -0.013  0.00  0.00    +0.026 A 
ATOM     10  C   UNL     1       2.529   0.120  -0.022  0.00  0.00    +0.043 A 
ATOM     11  N   UNL     1       3.587  -0.654  -0.037  0.00  0.00    -0.369 N 
ATOM     12  C   UNL     1       3.143  -2.053  -0.040  0.00  0.00    +0.213 C 
ATOM     13  C   UNL     1       1.631  -2.009  -0.025  0.00  0.00    +0.018 C 
ATOM     14  C   UNL     1       1.295  -0.698  -0.014  0.00  0.00    -0.003 A 
ATOM     15  C   UNL     1       0.002  -0.004   0.002  0.00  0.00    +0.010 A 
ATOM     16  H   UNL     1       4.509  -0.353  -0.044  0.00  0.00    +0.161 HD
ENDBRANCH   5  12
ENDBRANCH   4   5
ENDBRANCH   3   4
ENDBRANCH   1   3
BRANCH   1  17
ATOM     17  C   UNL     1       3.877  -6.983   3.772  0.00  0.00    +0.309 C 
BRANCH  17  18
ATOM     18  O   UNL     1       3.353  -8.300   3.592  0.00  0.00    -0.455 OA
BRANCH  18  19
ATOM     19  C   UNL     1       3.638  -9.205   4.542  0.00  0.00    +0.334 C 
ATOM     20  O   UNL     1       4.310  -8.889   5.495  0.00  0.00    -0.248 OA
BRANCH  19  21
ATOM     21  C   UNL     1       3.119 -10.615   4.420  0.00  0.00    +0.213 C 
ATOM     22  C   UNL     1       3.689 -11.274   3.184  0.00  0.00    +0.018 C 
ATOM     23  C   UNL     1       4.393 -12.344   3.621  0.00  0.00    -0.003 A 
ATOM     24  C   UNL     1       5.171 -13.374   2.923  0.00  0.00    +0.010 A 
ATOM     25  C   UNL     1       5.777 -14.342   3.648  0.00  0.00    +0.001 A 
ATOM     26  C   UNL     1       5.681 -14.385   5.046  0.00  0.00    +0.002 A 
ATOM     27  C   UNL     1       4.984 -13.473   5.757  0.00  0.00    +0.026 A 
ATOM     28  C   UNL     1       4.307 -12.412   5.097  0.00  0.00    +0.043 A 
ATOM     29  N   UNL     1       3.577 -11.422   5.556  0.00  0.00    -0.369 N 
ATOM     30  H   UNL     1       3.374 -11.252   6.489  0.00  0.00    +0.161 HD
ENDBRANCH  19  21
ENDBRANCH  18  19
ENDBRANCH  17  18
ENDBRANCH   1  17
TORSDOF 8
