REMARK  Name = ZINC25980476
REMARK  14 active torsions:
REMARK  status: ('A' for Active; 'I' for Inactive)
REMARK    1  A    between atoms: C_1  and  C_2
REMARK    2  A    between atoms: C_2  and  C_3
REMARK    3  A    between atoms: C_2  and  C_4
REMARK    4  A    between atoms: C_4  and  N_5
REMARK    5  A    between atoms: C_6  and  N_35
REMARK    6  A    between atoms: C_7  and  N_14
REMARK    7  A    between atoms: N_14  and  C_15
REMARK    8  A    between atoms: C_15  and  C_16
REMARK    9  A    between atoms: C_16  and  C_17
REMARK   10  A    between atoms: C_16  and  C_18
REMARK   11  A    between atoms: C_19  and  C_21
REMARK   12  A    between atoms: C_21  and  S_22
REMARK   13  A    between atoms: S_22  and  C_23
REMARK   14  A    between atoms: N_31  and  C_32
REMARK                            x       y       z     vdW  Elec       q    Type
REMARK                         _______ _______ _______ _____ _____    ______ ____
ROOT
ATOM      1  N   UNL     1       0.012   0.879   2.756  0.00  0.00    -0.263 N 
ATOM      2  C   UNL     1      -0.901   1.201   1.816  0.00  0.00    +0.230 C 
ATOM      3  O   UNL     1      -2.035   1.483   2.142  0.00  0.00    -0.274 OA
ENDROOT
BRANCH   1   6
ATOM      4  N   UNL     1      -1.014   2.226   6.017  0.00  0.00    -0.280 N 
ATOM      5  C   UNL     1      -0.692   2.173   4.681  0.00  0.00    +0.127 A 
ATOM      6  C   UNL     1      -0.324   0.965   4.124  0.00  0.00    +0.140 A 
ATOM      7  C   UNL     1      -0.295  -0.179   4.942  0.00  0.00    +0.277 A 
ATOM      8  O   UNL     1       0.022  -1.260   4.474  0.00  0.00    -0.266 OA
ATOM      9  N   UNL     1      -0.614  -0.072   6.247  0.00  0.00    -0.273 N 
ATOM     10  H   UNL     1      -0.584  -0.960   6.895  0.00  0.00    +0.173 HD
ATOM     11  C   UNL     1      -0.970   1.114   6.772  0.00  0.00    +0.331 A 
ATOM     12  O   UNL     1      -1.258   1.181   7.952  0.00  0.00    -0.246 OA
BRANCH   5  13
ATOM     13  N   UNL     1      -0.736   3.310   3.909  0.00  0.00    -0.343 N 
ATOM     14  H   UNL     1      -0.477   3.260   2.841  0.00  0.00    +0.144 HD
ATOM     15  H   UNL     1      -1.030   4.269   4.360  0.00  0.00    +0.144 HD
ENDBRANCH   5  13
BRANCH   4  16
ATOM     16  C   UNL     1      -1.406   3.502   6.622  0.00  0.00    +0.131 C 
BRANCH  16  18
ATOM     17  C   UNL     1      -3.620   2.597   7.346  0.00  0.00    +0.009 C 
ATOM     18  C   UNL     1      -2.923   3.673   6.511  0.00  0.00    +0.003 C 
ATOM     19  C   UNL     1      -3.319   5.057   7.028  0.00  0.00    +0.009 C 
ENDBRANCH  16  18
ENDBRANCH   4  16
ENDBRANCH   1   6
BRANCH   1  20
ATOM     20  C   UNL     1       1.351   0.438   2.357  0.00  0.00    +0.117 C 
BRANCH  20  21
ATOM     21  C   UNL     1       2.245   1.660   2.137  0.00  0.00    +0.001 C 
ATOM     22  C   UNL     1       2.461   2.380   3.470  0.00  0.00    +0.009 C 
ATOM     23  C   UNL     1       3.595   1.210   1.576  0.00  0.00    +0.009 C 
ENDBRANCH  20  21
ENDBRANCH   1  20
BRANCH   2  24
ATOM     24  C   UNL     1      -0.511   1.212   0.360  0.00  0.00    +0.173 C 
BRANCH  24  25
ATOM     25  S   UNL     1      -1.942   1.680  -0.644  0.00  0.00    -0.078 S 
BRANCH  25  26
ATOM     26  C   UNL     1      -1.223   1.613  -2.252  0.00  0.00    +0.175 A 
ATOM     27  N   UNL     1       0.023   1.295  -2.507  0.00  0.00    -0.222 NA
ATOM     28  C   UNL     1       0.240   1.343  -3.847  0.00  0.00    +0.090 A 
ATOM     29  C   UNL     1       1.361   1.103  -4.646  0.00  0.00    +0.030 A 
ATOM     30  C   UNL     1       1.267   1.238  -6.014  0.00  0.00    +0.002 A 
ATOM     31  C   UNL     1       0.069   1.611  -6.604  0.00  0.00    +0.002 A 
ATOM     32  C   UNL     1      -1.047   1.851  -5.828  0.00  0.00    +0.028 A 
ATOM     33  C   UNL     1      -0.971   1.721  -4.450  0.00  0.00    +0.074 A 
ATOM     34  N   UNL     1      -1.882   1.879  -3.418  0.00  0.00    -0.262 N 
BRANCH  34  35
ATOM     35  C   UNL     1      -3.289   2.265  -3.553  0.00  0.00    +0.450 C 
ATOM     36  F   UNL     1      -3.372   3.520  -4.166  0.00  0.00    -0.185 F 
ATOM     37  F   UNL     1      -3.959   1.318  -4.336  0.00  0.00    -0.185 F 
ENDBRANCH  34  35
ENDBRANCH  25  26
ENDBRANCH  24  25
ENDBRANCH   2  24
TORSDOF 10
