REMARK  Name = ZINC03292027
REMARK  8 active torsions:
REMARK  status: ('A' for Active; 'I' for Inactive)
REMARK    1  A    between atoms: C_1  and  C_2
REMARK    2  A    between atoms: C_5  and  C_8
REMARK    3  A    between atoms: C_11  and  S_14
REMARK    4  A    between atoms: N_12  and  N_13
REMARK    5  A    between atoms: S_14  and  C_15
REMARK    6  A    between atoms: C_15  and  C_16
REMARK    7  A    between atoms: N_18  and  C_19
REMARK    8  A    between atoms: C_20  and  C_28
REMARK                            x       y       z     vdW  Elec       q    Type
REMARK                         _______ _______ _______ _____ _____    ______ ____
ROOT
ATOM      1  S   UNL     1       0.514  -7.829   1.481  0.00  0.00    -0.075 S 
ENDROOT
BRANCH   1   5
ATOM      2  C   UNL     1       0.058  -4.251  -0.021  0.00  0.00    +0.182 A 
ATOM      3  N   UNL     1      -0.205  -5.029  -1.045  0.00  0.00    -0.127 NA
ATOM      4  N   UNL     1      -0.094  -6.262  -0.700  0.00  0.00    -0.121 NA
ATOM      5  C   UNL     1       0.247  -6.346   0.567  0.00  0.00    +0.209 A 
ATOM      6  N   UNL     1       0.361  -5.071   1.041  0.00  0.00    -0.224 N 
BRANCH   2  11
ATOM      7  C   UNL     1      -0.018   1.503   0.010  0.00  0.00    +0.044 C 
ATOM      8  C   UNL     1       0.002  -0.004   0.002  0.00  0.00    -0.050 A 
ATOM      9  C   UNL     1       0.006  -0.686  -1.202  0.00  0.00    +0.004 A 
ATOM     10  C   UNL     1       0.024  -2.066  -1.216  0.00  0.00    +0.012 A 
ATOM     11  C   UNL     1       0.039  -2.773  -0.013  0.00  0.00    +0.021 A 
ATOM     12  C   UNL     1       0.036  -2.079   1.198  0.00  0.00    +0.012 A 
ATOM     13  C   UNL     1       0.023  -0.699   1.198  0.00  0.00    +0.004 A 
ENDBRANCH   2  11
BRANCH   6  14
ATOM     14  N   UNL     1       0.701  -4.689   2.308  0.00  0.00    -0.295 N 
ATOM     15  H   UNL     1      -0.117  -4.601   2.891  0.00  0.00    +0.163 HD
ATOM     16  H   UNL     1       1.367  -5.330   2.713  0.00  0.00    +0.163 HD
ENDBRANCH   6  14
ENDBRANCH   1   5
BRANCH   1  17
ATOM     17  C   UNL     1       0.210  -9.149   0.274  0.00  0.00    +0.173 C 
BRANCH  17  18
ATOM     18  C   UNL     1       0.407 -10.489   0.935  0.00  0.00    +0.228 C 
ATOM     19  O   UNL     1       0.721 -10.548   2.105  0.00  0.00    -0.275 OA
ATOM     20  N   UNL     1       0.234 -11.622   0.226  0.00  0.00    -0.278 N 
ATOM     21  H   UNL     1      -0.017 -11.575  -0.710  0.00  0.00    +0.155 HD
BRANCH  20  22
ATOM     22  C   UNL     1       0.415 -12.856   0.835  0.00  0.00    +0.090 A 
ATOM     23  C   UNL     1       0.287 -14.113   0.267  0.00  0.00    +0.084 A 
ATOM     24  C   UNL     1       0.533 -15.258   1.124  0.00  0.00    -0.018 A 
ATOM     25  C   UNL     1       0.861 -14.937   2.395  0.00  0.00    -0.004 A 
ATOM     26  S   UNL     1       0.846 -13.168   2.428  0.00  0.00    -0.077 S 
ATOM     27  C   UNL     1       1.170 -15.885   3.512  0.00  0.00    +0.043 C 
ATOM     28  C   UNL     1       0.691 -17.285   3.101  0.00  0.00    +0.005 C 
ATOM     29  C   UNL     1       1.189 -17.584   1.684  0.00  0.00    +0.005 C 
ATOM     30  C   UNL     1       0.441 -16.709   0.675  0.00  0.00    +0.037 C 
BRANCH  23  31
ATOM     31  C   UNL     1      -0.073 -14.276  -1.110  0.00  0.00    +0.102 C 
ATOM     32  N   UNL     1      -0.358 -14.405  -2.202  0.00  0.00    -0.191 NA
ENDBRANCH  23  31
ENDBRANCH  20  22
ENDBRANCH  17  18
ENDBRANCH   1  17
TORSDOF 7
