REMARK  Name = ZINC01408426
REMARK  8 active torsions:
REMARK  status: ('A' for Active; 'I' for Inactive)
REMARK    1  A    between atoms: C_4  and  S_7
REMARK    2  A    between atoms: S_7  and  C_8
REMARK    3  A    between atoms: C_11  and  C_17
REMARK    4  A    between atoms: C_13  and  N_14
REMARK    5  A    between atoms: N_18  and  N_19
REMARK    6  A    between atoms: C_20  and  C_22
REMARK    7  A    between atoms: C_22  and  O_23
REMARK    8  A    between atoms: O_23  and  C_24
REMARK                            x       y       z     vdW  Elec       q    Type
REMARK                         _______ _______ _______ _____ _____    ______ ____
ROOT
ATOM      1  C   UNL     1       3.486  -2.561  -0.084  0.00  0.00    +0.046 A 
ATOM      2  C   UNL     1       2.170  -3.004  -0.176  0.00  0.00    +0.018 A 
ATOM      3  C   UNL     1       1.897  -4.353  -0.211  0.00  0.00    +0.011 A 
ATOM      4  C   UNL     1       2.944  -5.278  -0.155  0.00  0.00    -0.003 A 
ATOM      5  C   UNL     1       4.264  -4.829  -0.064  0.00  0.00    +0.043 A 
ATOM      6  C   UNL     1       4.530  -3.478  -0.034  0.00  0.00    +0.141 A 
ENDROOT
BRANCH   6   7
ATOM      7  N   UNL     1       5.929  -3.002   0.057  0.00  0.00    +0.058 N 
ATOM      8  O   UNL     1       6.837  -3.798   0.101  0.00  0.00    -0.126 OA
ATOM      9  O   UNL     1       6.162  -1.816   0.088  0.00  0.00    -0.126 OA
ENDBRANCH   6   7
BRANCH   4  10
ATOM     10  C   UNL     1       2.655  -6.723  -0.192  0.00  0.00    +0.138 C 
ATOM     11  N   UNL     1       1.429  -7.138  -0.277  0.00  0.00    -0.188 NA
BRANCH  11  12
ATOM     12  N   UNL     1       1.155  -8.512  -0.312  0.00  0.00    -0.204 N 
ATOM     13  C   UNL     1      -0.119  -8.943  -0.400  0.00  0.00    +0.270 C 
ATOM     14  O   UNL     1      -1.029  -8.141  -0.449  0.00  0.00    -0.270 OA
ATOM     15  H   UNL     1       1.882  -9.152  -0.273  0.00  0.00    +0.177 HD
BRANCH  13  16
ATOM     16  C   UNL     1      -0.414 -10.420  -0.438  0.00  0.00    +0.326 C 
BRANCH  16  17
ATOM     17  O   UNL     1      -1.825 -10.622  -0.532  0.00  0.00    -0.483 OA
BRANCH  17  18
ATOM     18  C   UNL     1      -2.263 -11.908  -0.577  0.00  0.00    +0.121 A 
ATOM     19  C   UNL     1      -1.353 -12.954  -0.525  0.00  0.00    +0.047 A 
ATOM     20  C   UNL     1      -1.800 -14.260  -0.571  0.00  0.00    +0.023 A 
ATOM     21  C   UNL     1      -3.154 -14.526  -0.668  0.00  0.00    +0.041 A 
ATOM     22  C   UNL     1      -4.064 -13.485  -0.720  0.00  0.00    +0.023 A 
ATOM     23  C   UNL     1      -3.621 -12.177  -0.668  0.00  0.00    +0.047 A 
ATOM     24 CL   UNL     1      -3.713 -16.169  -0.726  0.00  0.00    -0.084 Cl
ENDBRANCH  17  18
ENDBRANCH  16  17
ENDBRANCH  13  16
ENDBRANCH  11  12
ENDBRANCH   4  10
BRANCH   1  25
ATOM     25  S   UNL     1       3.830  -0.833  -0.039  0.00  0.00    -0.048 S 
BRANCH  25  29
ATOM     26  C   UNL     1       4.718  -0.027   4.235  0.00  0.00    +0.039 A 
ATOM     27  C   UNL     1       4.859   0.970   3.282  0.00  0.00    +0.115 A 
ATOM     28  N   UNL     1       4.587   0.696   2.017  0.00  0.00    -0.230 NA
ATOM     29  C   UNL     1       4.182  -0.513   1.657  0.00  0.00    +0.193 A 
ATOM     30  N   UNL     1       4.037  -1.488   2.544  0.00  0.00    -0.230 NA
ATOM     31  C   UNL     1       4.293  -1.281   3.824  0.00  0.00    +0.115 A 
ENDBRANCH  25  29
ENDBRANCH   1  25
TORSDOF 8
