REMARK  Name = ZINC41077181
REMARK  8 active torsions:
REMARK  status: ('A' for Active; 'I' for Inactive)
REMARK    1  A    between atoms: C_1  and  C_2
REMARK    2  A    between atoms: C_5  and  C_31
REMARK    3  A    between atoms: C_6  and  O_8
REMARK    4  A    between atoms: O_8  and  C_9
REMARK    5  A    between atoms: C_9  and  C_10
REMARK    6  A    between atoms: N_12  and  C_13
REMARK    7  A    between atoms: C_13  and  C_14
REMARK    8  A    between atoms: C_22  and  C_24
REMARK                            x       y       z     vdW  Elec       q    Type
REMARK                         _______ _______ _______ _____ _____    ______ ____
ROOT
ATOM      1  C   UNL     1       0.074  -2.514   8.425  0.00  0.00    +0.066 A 
ATOM      2  C   UNL     1      -0.995  -2.577   9.294  0.00  0.00    +0.097 A 
ATOM      3  C   UNL     1      -0.980  -1.818  10.465  0.00  0.00    +0.275 A 
ATOM      4  O   UNL     1      -1.924  -1.870  11.239  0.00  0.00    -0.266 OA
ATOM      5  N   UNL     1       0.090  -1.017  10.744  0.00  0.00    -0.171 N 
ATOM      6  C   UNL     1       1.107  -1.014   9.828  0.00  0.00    +0.199 A 
ATOM      7  N   UNL     1       1.103  -1.727   8.730  0.00  0.00    -0.225 NA
ATOM      8  S   UNL     1       2.272   0.123  10.545  0.00  0.00    -0.028 S 
ATOM      9  C   UNL     1       1.338   0.523  12.014  0.00  0.00    +0.132 A 
ATOM     10  N   UNL     1       0.262  -0.202  11.859  0.00  0.00    -0.154 NA
ENDROOT
BRANCH   9  11
ATOM     11  C   UNL     1       1.692   1.439  13.121  0.00  0.00    +0.010 A 
ATOM     12  C   UNL     1       0.817   1.611  14.194  0.00  0.00    +0.011 A 
ATOM     13  C   UNL     1       1.153   2.466  15.223  0.00  0.00    +0.002 A 
ATOM     14  C   UNL     1       2.353   3.152  15.194  0.00  0.00    +0.020 A 
ATOM     15  C   UNL     1       3.226   2.986  14.132  0.00  0.00    +0.042 A 
ATOM     16  C   UNL     1       2.904   2.129  13.098  0.00  0.00    +0.030 A 
ATOM     17 CL   UNL     1       4.730   3.852  14.103  0.00  0.00    -0.084 Cl
ENDBRANCH   9  11
BRANCH   1  18
ATOM     18  C   UNL     1       0.079  -3.326   7.156  0.00  0.00    +0.160 C 
BRANCH  18  21
ATOM     19  C   UNL     1       0.063  -2.932   4.751  0.00  0.00    +0.251 C 
ATOM     20  O   UNL     1       0.078  -4.133   4.584  0.00  0.00    -0.272 OA
ATOM     21  N   UNL     1       0.062  -2.425   6.000  0.00  0.00    -0.307 N 
ATOM     22  H   UNL     1       0.050  -1.465   6.134  0.00  0.00    +0.149 HD
BRANCH  19  23
ATOM     23  C   UNL     1       0.045  -2.006   3.562  0.00  0.00    +0.324 C 
BRANCH  23  24
ATOM     24  O   UNL     1       0.050  -2.776   2.358  0.00  0.00    -0.483 OA
BRANCH  24  30
ATOM     25  C   UNL     1      -0.018   1.503   0.010  0.00  0.00    +0.044 C 
ATOM     26  C   UNL     1       0.002  -0.004   0.002  0.00  0.00    -0.047 A 
ATOM     27  C   UNL     1       0.006  -0.688  -1.200  0.00  0.00    +0.004 A 
ATOM     28  C   UNL     1       0.024  -2.071  -1.211  0.00  0.00    +0.007 A 
ATOM     29  C   UNL     1       0.039  -2.772  -0.020  0.00  0.00    -0.009 A 
ATOM     30  C   UNL     1       0.035  -2.088   1.186  0.00  0.00    +0.124 A 
ATOM     31  C   UNL     1       0.023  -0.700   1.195  0.00  0.00    +0.049 A 
ATOM     32  C   UNL     1       0.059  -4.279  -0.033  0.00  0.00    +0.047 C 
ENDBRANCH  24  30
ENDBRANCH  23  24
ENDBRANCH  19  23
ENDBRANCH  18  21
ENDBRANCH   1  18
TORSDOF 6
