REMARK  Name = ZINC64765205
REMARK  4 active torsions:
REMARK  status: ('A' for Active; 'I' for Inactive)
REMARK    1  A    between atoms: C_2  and  C_11
REMARK    2  A    between atoms: C_11  and  N_12
REMARK    3  A    between atoms: C_18  and  C_21
REMARK    4  A    between atoms: C_21  and  C_22
REMARK                            x       y       z     vdW  Elec       q    Type
REMARK                         _______ _______ _______ _____ _____    ______ ____
ROOT
ATOM      1  N   UNL     1       1.151   4.077   1.394  0.00  0.00    -0.295 N 
ATOM      2  C   UNL     1       1.134   5.401   1.648  0.00  0.00    +0.302 C 
ATOM      3  O   UNL     1       1.206   6.197   0.731  0.00  0.00    -0.253 OA
ATOM      4  N   UNL     1       1.037   5.843   2.917  0.00  0.00    -0.286 N 
ATOM      5  C   UNL     1       1.067   4.898   4.043  0.00  0.00    +0.109 C 
ATOM      6  C   UNL     1      -0.166   5.136   4.919  0.00  0.00    +0.023 C 
ATOM      7  C   UNL     1      -0.216   6.608   5.335  0.00  0.00    +0.001 C 
ATOM      8  C   UNL     1      -0.332   7.489   4.088  0.00  0.00    +0.023 C 
ATOM      9  C   UNL     1       0.906   7.278   3.203  0.00  0.00    +0.109 C 
ATOM     10  H   UNL     1       1.169   3.443   2.128  0.00  0.00    +0.151 HD
ENDROOT
BRANCH   1  11
ATOM     11  C   UNL     1       1.145   3.596   0.010  0.00  0.00    +0.141 C 
BRANCH  11  13
ATOM     12  C   UNL     1      -0.020   1.382   0.011  0.00  0.00    +0.054 A 
ATOM     13  C   UNL     1       1.167   2.090   0.002  0.00  0.00    -0.026 A 
ATOM     14  C   UNL     1       2.375   1.419  -0.015  0.00  0.00    +0.024 A 
ATOM     15  C   UNL     1       2.401   0.035  -0.023  0.00  0.00    +0.064 A 
ATOM     16  C   UNL     1       1.215  -0.680  -0.014  0.00  0.00    +0.180 A 
ATOM     17  C   UNL     1      -0.002  -0.003   0.003  0.00  0.00    +0.168 A 
ATOM     18  O   UNL     1      -1.012  -0.922   0.007  0.00  0.00    -0.453 OA
ATOM     19  C   UNL     1      -0.410  -2.158  -0.418  0.00  0.00    +0.466 C 
ATOM     20  O   UNL     1       0.967  -2.023  -0.020  0.00  0.00    -0.451 OA
ATOM     21 BR   UNL     1       4.056  -0.879  -0.046  0.00  0.00    -0.046 Br
ENDBRANCH  11  13
ENDBRANCH   1  11
BRANCH   7  22
ATOM     22  C   UNL     1      -1.428   6.842   6.239  0.00  0.00    +0.099 C 
BRANCH  22  23
ATOM     23  C   UNL     1      -1.409   8.261   6.747  0.00  0.00    +0.211 C 
ATOM     24  O   UNL     1      -0.514   9.011   6.419  0.00  0.00    -0.276 OA
ATOM     25  N   UNL     1      -2.386   8.696   7.567  0.00  0.00    -0.329 N 
ATOM     26  H   UNL     1      -3.102   8.097   7.829  0.00  0.00    +0.145 HD
ATOM     27  H   UNL     1      -2.374   9.609   7.894  0.00  0.00    +0.145 HD
ENDBRANCH  22  23
ENDBRANCH   7  22
TORSDOF 4
