REMARK  Name = ZINC17216812
REMARK  11 active torsions:
REMARK  status: ('A' for Active; 'I' for Inactive)
REMARK    1  A    between atoms: C_1  and  C_2
REMARK    2  A    between atoms: C_3  and  C_10
REMARK    3  A    between atoms: C_5  and  C_7
REMARK    4  A    between atoms: C_7  and  N_9
REMARK    5  A    between atoms: C_10  and  C_17
REMARK    6  A    between atoms: N_11  and  N_12
REMARK    7  A    between atoms: N_12  and  C_13
REMARK    8  A    between atoms: C_13  and  C_14
REMARK    9  A    between atoms: C_13  and  C_15
REMARK   10  A    between atoms: C_13  and  C_16
REMARK   11  A    between atoms: C_18  and  C_19
REMARK                            x       y       z     vdW  Elec       q    Type
REMARK                         _______ _______ _______ _____ _____    ______ ____
ROOT
ATOM      1  C   UNL     1      -5.274   3.615   0.030  0.00  0.00    +0.097 C 
ATOM      2  N   UNL     1      -5.697   4.854   0.116  0.00  0.00    -0.186 NA
ENDROOT
BRANCH   1   5
ATOM      3  C   UNL     1      -3.477   3.266   2.535  0.00  0.00    +0.067 C 
ATOM      4  C   UNL     1      -2.964   3.159   1.122  0.00  0.00    +0.055 A 
ATOM      5  C   UNL     1      -3.827   3.327   0.044  0.00  0.00    +0.062 A 
ATOM      6  S   UNL     1      -2.694   3.096  -1.321  0.00  0.00    -0.064 S 
ATOM      7  C   UNL     1      -1.227   2.808  -0.341  0.00  0.00    +0.130 A 
ATOM      8  N   UNL     1      -1.708   2.902   0.895  0.00  0.00    -0.242 NA
BRANCH   7   9
ATOM      9  C   UNL     1       0.145   2.533  -0.783  0.00  0.00    +0.102 C 
ATOM     10  S   UNL     1       0.506   2.455  -2.455  0.00  0.00    -0.033 S 
BRANCH   9  11
ATOM     11  N   UNL     1       1.122   2.347   0.127  0.00  0.00    -0.350 N 
ATOM     12  H   UNL     1       2.030   2.169  -0.166  0.00  0.00    +0.143 HD
ATOM     13  H   UNL     1       0.918   2.391   1.074  0.00  0.00    +0.143 HD
ENDBRANCH   9  11
ENDBRANCH   7   9
ENDBRANCH   1   5
BRANCH   2  14
ATOM     14  N   UNL     1      -4.777   5.911   0.107  0.00  0.00    -0.263 N 
ATOM     15  H   UNL     1      -3.835   5.732  -0.038  0.00  0.00    +0.169 HD
BRANCH  14  16
ATOM     16  C   UNL     1      -5.239   7.286   0.316  0.00  0.00    +0.041 C 
ATOM     17  C   UNL     1      -5.914   7.394   1.684  0.00  0.00    +0.032 C 
ATOM     18  C   UNL     1      -4.044   8.239   0.259  0.00  0.00    +0.032 C 
ATOM     19  C   UNL     1      -6.241   7.659  -0.778  0.00  0.00    +0.032 C 
ENDBRANCH  14  16
ENDBRANCH   2  14
BRANCH   1  20
ATOM     20  C   UNL     1      -6.241   2.513  -0.080  0.00  0.00    +0.031 C 
ATOM     21  C   UNL     1      -7.560   2.776  -0.092  0.00  0.00    +0.010 C 
BRANCH  21  22
ATOM     22  C   UNL     1      -8.530   1.672  -0.202  0.00  0.00    -0.023 A 
ATOM     23  C   UNL     1      -9.902   1.942  -0.216  0.00  0.00    +0.009 A 
ATOM     24  C   UNL     1     -10.804   0.904  -0.319  0.00  0.00    +0.022 A 
ATOM     25  C   UNL     1     -10.355  -0.403  -0.409  0.00  0.00    +0.059 A 
ATOM     26  C   UNL     1      -8.996  -0.678  -0.396  0.00  0.00    +0.060 A 
ATOM     27  C   UNL     1      -8.082   0.352  -0.299  0.00  0.00    +0.029 A 
ATOM     28 CL   UNL     1      -8.443  -2.319  -0.509  0.00  0.00    -0.082 Cl
ATOM     29 CL   UNL     1     -11.498  -1.703  -0.538  0.00  0.00    -0.082 Cl
ENDBRANCH  21  22
ENDBRANCH   1  20
TORSDOF 7
