REMARK  Name = ZINC39738099
REMARK  6 active torsions:
REMARK  status: ('A' for Active; 'I' for Inactive)
REMARK    1  A    between atoms: C_7  and  S_31
REMARK    2  A    between atoms: C_9  and  N_12
REMARK    3  A    between atoms: C_10  and  N_11
REMARK    4  A    between atoms: N_13  and  C_14
REMARK    5  A    between atoms: C_17  and  C_20
REMARK    6  A    between atoms: C_21  and  C_22
REMARK                            x       y       z     vdW  Elec       q    Type
REMARK                         _______ _______ _______ _____ _____    ______ ____
ROOT
ATOM      1  N   UNL     1       4.869  -2.680   0.029  0.00  0.00    -0.147 NA
ATOM      2  N   UNL     1       4.883  -3.970   0.062  0.00  0.00    -0.149 NA
ENDROOT
BRANCH   1  11
ATOM      3  C   UNL     1      -0.016   1.357  -0.124  0.00  0.00    +0.001 A 
ATOM      4  C   UNL     1       1.168   2.090  -0.131  0.00  0.00    +0.001 A 
ATOM      5  C   UNL     1       2.378   1.464  -0.103  0.00  0.00    +0.010 A 
ATOM      6  C   UNL     1       2.435   0.062  -0.066  0.00  0.00    +0.007 A 
ATOM      7  C   UNL     1       1.231  -0.684  -0.059  0.00  0.00    +0.011 A 
ATOM      8  C   UNL     1       0.002  -0.005  -0.088  0.00  0.00    +0.010 A 
ATOM      9  C   UNL     1       1.280  -2.092  -0.022  0.00  0.00    +0.129 A 
ATOM     10  C   UNL     1       2.474  -2.734   0.006  0.00  0.00    +0.061 A 
ATOM     11  C   UNL     1       3.683  -2.013   0.000  0.00  0.00    +0.109 A 
ATOM     12  C   UNL     1       3.672  -0.616  -0.036  0.00  0.00    +0.060 A 
BRANCH   9  13
ATOM     13  S   UNL     1      -0.217  -3.022  -0.012  0.00  0.00    +0.140 S 
ATOM     14  O   UNL     1      -0.653  -3.134  -1.395  0.00  0.00    -0.140 OA
ATOM     15  O   UNL     1       0.096  -4.319   0.566  0.00  0.00    -0.140 OA
ATOM     16  O   UNL     1      -1.169  -2.281   0.800  0.00  0.00    -0.043 OA
ENDBRANCH   9  13
BRANCH  12  17
ATOM     17  N   UNL     1       4.861   0.095  -0.043  0.00  0.00    -0.356 N 
ATOM     18  H   UNL     1       4.846   1.064  -0.069  0.00  0.00    +0.142 HD
ATOM     19  H   UNL     1       5.708  -0.377  -0.022  0.00  0.00    +0.142 HD
ENDBRANCH  12  17
ENDBRANCH   1  11
BRANCH   2  20
ATOM     20  C   UNL     1       6.073  -4.638   0.092  0.00  0.00    +0.086 A 
ATOM     21  C   UNL     1       7.277  -3.926   0.091  0.00  0.00    +0.030 A 
ATOM     22  C   UNL     1       8.467  -4.596   0.121  0.00  0.00    +0.010 A 
ATOM     23  C   UNL     1       8.482  -5.993   0.152  0.00  0.00    -0.025 A 
ATOM     24  C   UNL     1       7.280  -6.706   0.152  0.00  0.00    +0.010 A 
ATOM     25  C   UNL     1       6.089  -6.037   0.128  0.00  0.00    +0.030 A 
BRANCH  23  26
ATOM     26  C   UNL     1       9.768  -6.716   0.184  0.00  0.00    +0.007 C 
ATOM     27  C   UNL     1       9.783  -8.043   0.213  0.00  0.00    +0.020 C 
BRANCH  27  28
ATOM     28  C   UNL     1      11.096  -8.782   0.245  0.00  0.00    +0.198 C 
ATOM     29  N   UNL     1      11.181  -9.709  -0.890  0.00  0.00    -0.360 N 
ATOM     30  C   UNL     1      11.301 -10.911  -0.404  0.00  0.00    +0.060 A 
ATOM     31  C   UNL     1      11.426 -12.234  -1.031  0.00  0.00    +0.027 A 
ATOM     32  C   UNL     1      11.537 -13.330  -0.254  0.00  0.00    +0.002 A 
ATOM     33  C   UNL     1      11.538 -13.267   1.151  0.00  0.00    +0.002 A 
ATOM     34  C   UNL     1      11.428 -12.105   1.826  0.00  0.00    +0.027 A 
ATOM     35  C   UNL     1      11.302 -10.844   1.083  0.00  0.00    +0.060 A 
ATOM     36  N   UNL     1      11.183  -9.604   1.459  0.00  0.00    -0.360 N 
ATOM     37  H   UNL     1      11.153  -9.470  -1.830  0.00  0.00    +0.162 HD
ATOM     38  H   UNL     1      11.156  -9.281   2.373  0.00  0.00    +0.162 HD
ENDBRANCH  27  28
ENDBRANCH  23  26
ENDBRANCH   2  20
TORSDOF 6
