REMARK  Name = ZINC40320677
REMARK  5 active torsions:
REMARK  status: ('A' for Active; 'I' for Inactive)
REMARK    1  A    between atoms: C_4  and  N_25
REMARK    2  A    between atoms: C_5  and  N_7
REMARK    3  A    between atoms: C_8  and  C_10
REMARK    4  A    between atoms: C_13  and  S_15
REMARK    5  A    between atoms: S_15  and  C_18
REMARK                            x       y       z     vdW  Elec       q    Type
REMARK                         _______ _______ _______ _____ _____    ______ ____
ROOT
ATOM      1  C   UNL     1       0.030  -4.155   0.025  0.00  0.00    +0.192 A 
ATOM      2  C   UNL     1      -1.077  -4.951  -0.039  0.00  0.00    +0.056 A 
ATOM      3  C   UNL     1      -0.632  -6.274   0.110  0.00  0.00    +0.070 A 
ATOM      4  C   UNL     1       0.710  -6.228   0.257  0.00  0.00    +0.246 A 
ATOM      5  O   UNL     1       1.107  -4.950   0.200  0.00  0.00    -0.433 OA
ENDROOT
BRANCH   1   7
ATOM      6  N   UNL     1       1.216  -2.025  -0.007  0.00  0.00    -0.277 N 
ATOM      7  C   UNL     1       0.048  -2.693  -0.082  0.00  0.00    +0.284 C 
ATOM      8  O   UNL     1      -0.993  -2.082  -0.239  0.00  0.00    -0.266 OA
ATOM      9  H   UNL     1       2.052  -2.515   0.042  0.00  0.00    +0.155 HD
BRANCH   6  14
ATOM     10  C   UNL     1       0.212   1.452   0.639  0.00  0.00    +0.002 A 
ATOM     11  C   UNL     1       1.238   2.140   0.017  0.00  0.00    +0.002 A 
ATOM     12  C   UNL     1       2.256   1.448  -0.613  0.00  0.00    +0.034 A 
ATOM     13  C   UNL     1       2.252   0.067  -0.623  0.00  0.00    +0.147 A 
ATOM     14  C   UNL     1       1.224  -0.627   0.001  0.00  0.00    +0.064 A 
ATOM     15  C   UNL     1       0.202   0.071   0.633  0.00  0.00    +0.025 A 
BRANCH  13  16
ATOM     16  N   UNL     1       3.342  -0.672  -1.298  0.00  0.00    +0.058 N 
ATOM     17  O   UNL     1       4.188  -0.070  -1.917  0.00  0.00    -0.126 OA
ATOM     18  O   UNL     1       3.387  -1.879  -1.230  0.00  0.00    -0.126 OA
ENDBRANCH  13  16
ENDBRANCH   6  14
ENDBRANCH   1   7
BRANCH   4  19
ATOM     19  S   UNL     1       1.766  -7.621   0.480  0.00  0.00    +0.058 S 
ATOM     20  O   UNL     1       2.936  -7.143   1.131  0.00  0.00    -0.161 OA
ATOM     21  O   UNL     1       0.961  -8.658   1.023  0.00  0.00    -0.161 OA
BRANCH  19  22
ATOM     22  C   UNL     1       2.266  -8.157  -1.122  0.00  0.00    +0.097 A 
ATOM     23  C   UNL     1       1.509  -9.092  -1.805  0.00  0.00    +0.029 A 
ATOM     24  C   UNL     1       1.901  -9.513  -3.062  0.00  0.00    +0.022 A 
ATOM     25  C   UNL     1       3.049  -9.000  -3.636  0.00  0.00    +0.041 A 
ATOM     26  C   UNL     1       3.806  -8.065  -2.953  0.00  0.00    +0.022 A 
ATOM     27  C   UNL     1       3.411  -7.640  -1.699  0.00  0.00    +0.029 A 
ATOM     28 CL   UNL     1       3.542  -9.529  -5.215  0.00  0.00    -0.084 Cl
ENDBRANCH  19  22
ENDBRANCH   4  19
TORSDOF 5
