REMARK  Name = ZINC15128492
REMARK  9 active torsions:
REMARK  status: ('A' for Active; 'I' for Inactive)
REMARK    1  A    between atoms: C_1  and  C_2
REMARK    2  A    between atoms: C_2  and  C_3
REMARK    3  A    between atoms: C_2  and  C_4
REMARK    4  A    between atoms: C_2  and  C_5
REMARK    5  A    between atoms: C_8  and  S_11
REMARK    6  A    between atoms: S_11  and  N_14
REMARK    7  A    between atoms: N_17  and  C_20
REMARK    8  A    between atoms: C_23  and  C_29
REMARK    9  A    between atoms: C_25  and  N_26
REMARK                            x       y       z     vdW  Elec       q    Type
REMARK                         _______ _______ _______ _____ _____    ______ ____
ROOT
ATOM      1  N   UNL     1       4.211  -1.007  -0.081  0.00  0.00    -0.174 NA
ATOM      2  C   UNL     1       3.945  -0.346   1.206  0.00  0.00    +0.128 C 
ATOM      3  C   UNL     1       2.531   0.244   1.166  0.00  0.00    +0.122 C 
ATOM      4  N   UNL     1       2.396   1.107  -0.015  0.00  0.00    -0.326 N 
ATOM      5  C   UNL     1       2.552   0.337  -1.257  0.00  0.00    +0.122 C 
ATOM      6  C   UNL     1       3.967  -0.249  -1.317  0.00  0.00    +0.128 C 
ENDROOT
BRANCH   4   7
ATOM      7  C   UNL     1       1.184   1.788   0.000  0.00  0.00    +0.060 A 
ATOM      8  C   UNL     1      -0.013   1.076   0.008  0.00  0.00    +0.026 A 
ATOM      9  C   UNL     1      -1.214   1.747   0.017  0.00  0.00    +0.015 A 
ATOM     10  C   UNL     1      -1.232   3.145   0.031  0.00  0.00    +0.039 A 
ATOM     11  C   UNL     1      -0.029   3.856   0.024  0.00  0.00    +0.047 A 
ATOM     12  C   UNL     1       1.169   3.179   0.008  0.00  0.00    +0.148 A 
BRANCH  10  13
ATOM     13  C   UNL     1      -2.518   3.867   0.048  0.00  0.00    +0.242 C 
ATOM     14  O   UNL     1      -2.532   5.083   0.055  0.00  0.00    -0.270 OA
ATOM     15  N   UNL     1      -3.677   3.180   0.055  0.00  0.00    -0.325 N 
ATOM     16  H   UNL     1      -3.666   2.210   0.050  0.00  0.00    +0.145 HD
ATOM     17  H   UNL     1      -4.523   3.655   0.066  0.00  0.00    +0.145 HD
ENDBRANCH  10  13
BRANCH  12  18
ATOM     18  N   UNL     1       2.444   3.932  -0.000  0.00  0.00    +0.058 N 
ATOM     19  O   UNL     1       2.432   5.150   0.006  0.00  0.00    -0.126 OA
ATOM     20  O   UNL     1       3.505   3.334  -0.013  0.00  0.00    -0.126 OA
ENDBRANCH  12  18
ENDBRANCH   4   7
BRANCH   1  21
ATOM     21  S   UNL     1       4.771  -2.564  -0.136  0.00  0.00    +0.061 S 
ATOM     22  O   UNL     1       5.438  -2.712  -1.382  0.00  0.00    -0.153 OA
ATOM     23  O   UNL     1       5.417  -2.808   1.107  0.00  0.00    -0.153 OA
BRANCH  21  27
ATOM     24  C   UNL     1       1.156  -5.285  -0.271  0.00  0.00    -0.042 A 
ATOM     25  C   UNL     1       1.718  -4.823  -1.447  0.00  0.00    +0.006 A 
ATOM     26  C   UNL     1       2.822  -3.992  -1.405  0.00  0.00    +0.029 A 
ATOM     27  C   UNL     1       3.364  -3.623  -0.189  0.00  0.00    +0.105 A 
ATOM     28  C   UNL     1       2.805  -4.089   0.987  0.00  0.00    +0.029 A 
ATOM     29  C   UNL     1       1.698  -4.916   0.946  0.00  0.00    +0.006 A 
BRANCH  24  31
ATOM     30  C   UNL     1       0.302  -7.466  -1.085  0.00  0.00    +0.015 C 
ATOM     31  C   UNL     1      -0.048  -6.190  -0.316  0.00  0.00    -0.013 C 
ATOM     32  C   UNL     1      -0.467  -6.553   1.110  0.00  0.00    +0.015 C 
ATOM     33  C   UNL     1      -1.201  -5.471  -1.019  0.00  0.00    +0.015 C 
ENDBRANCH  24  31
ENDBRANCH  21  27
ENDBRANCH   1  21
TORSDOF 6
