REMARK  Name = ZINC17073155
REMARK  5 active torsions:
REMARK  status: ('A' for Active; 'I' for Inactive)
REMARK    1  A    between atoms: C_1  and  C_2
REMARK    2  A    between atoms: C_5  and  C_8
REMARK    3  A    between atoms: C_11  and  C_13
REMARK    4  A    between atoms: N_15  and  N_16
REMARK    5  A    between atoms: N_19  and  C_20
REMARK                            x       y       z     vdW  Elec       q    Type
REMARK                         _______ _______ _______ _____ _____    ______ ____
ROOT
ATOM      1  N   UNL     1       2.366   1.215  -0.019  0.00  0.00    -0.218 N 
ATOM      2  C   UNL     1       3.524   1.904  -0.019  0.00  0.00    +0.320 C 
ATOM      3  O   UNL     1       4.585   1.310  -0.024  0.00  0.00    -0.251 OA
ATOM      4  N   UNL     1       3.506   3.252  -0.014  0.00  0.00    -0.268 N 
ATOM      5  H   UNL     1       2.379   0.245  -0.023  0.00  0.00    +0.174 HD
ATOM      6  H   UNL     1       2.662   3.726  -0.078  0.00  0.00    +0.156 HD
ENDROOT
BRANCH   4   7
ATOM      7  C   UNL     1       4.706   3.968   0.084  0.00  0.00    +0.039 A 
ATOM      8  C   UNL     1       4.743   5.168   0.782  0.00  0.00    +0.027 A 
ATOM      9  C   UNL     1       5.928   5.873   0.884  0.00  0.00    +0.051 A 
ATOM     10  C   UNL     1       7.078   5.391   0.281  0.00  0.00    +0.166 A 
ATOM     11  C   UNL     1       7.042   4.190  -0.424  0.00  0.00    +0.168 A 
ATOM     12  C   UNL     1       5.856   3.481  -0.521  0.00  0.00    +0.073 A 
ATOM     13  O   UNL     1       8.290   3.937  -0.918  0.00  0.00    -0.453 OA
ATOM     14  C   UNL     1       9.180   4.783  -0.166  0.00  0.00    +0.466 C 
ATOM     15  O   UNL     1       8.348   5.890   0.228  0.00  0.00    -0.453 OA
ENDBRANCH   4   7
BRANCH   1  18
ATOM     16  C   UNL     1      -0.015   1.209  -0.014  0.00  0.00    +0.233 C 
ATOM     17  O   UNL     1       0.002  -0.004  -0.018  0.00  0.00    -0.274 OA
ATOM     18  N   UNL     1       1.143   1.899  -0.014  0.00  0.00    -0.233 N 
ATOM     19  H   UNL     1       1.130   2.869  -0.010  0.00  0.00    +0.173 HD
BRANCH  16  22
ATOM     20  C   UNL     1      -2.609   1.106  -0.020  0.00  0.00    +0.032 C 
ATOM     21  C   UNL     1      -2.185   1.863  -1.280  0.00  0.00    +0.022 C 
ATOM     22  C   UNL     1      -1.330   1.945  -0.014  0.00  0.00    +0.084 C 
BRANCH  20  27
ATOM     23  C   UNL     1      -7.150   3.143   2.917  0.00  0.00    +0.044 C 
ATOM     24  C   UNL     1      -5.966   2.611   2.151  0.00  0.00    -0.050 A 
ATOM     25  C   UNL     1      -5.418   1.387   2.487  0.00  0.00    +0.003 A 
ATOM     26  C   UNL     1      -4.332   0.900   1.784  0.00  0.00    +0.004 A 
ATOM     27  C   UNL     1      -3.793   1.637   0.746  0.00  0.00    -0.044 A 
ATOM     28  C   UNL     1      -4.338   2.863   0.413  0.00  0.00    +0.004 A 
ATOM     29  C   UNL     1      -5.427   3.348   1.113  0.00  0.00    +0.003 A 
ENDBRANCH  20  27
ENDBRANCH  16  22
ENDBRANCH   1  18
TORSDOF 4
