REMARK  Name = ZINC15923900
REMARK  6 active torsions:
REMARK  status: ('A' for Active; 'I' for Inactive)
REMARK    1  A    between atoms: C_5  and  C_7
REMARK    2  A    between atoms: C_7  and  S_8
REMARK    3  A    between atoms: S_8  and  C_9
REMARK    4  A    between atoms: C_12  and  C_18
REMARK    5  A    between atoms: C_14  and  N_15
REMARK    6  A    between atoms: N_19  and  O_20
REMARK                            x       y       z     vdW  Elec       q    Type
REMARK                         _______ _______ _______ _____ _____    ______ ____
ROOT
ATOM      1  C   UNL     1       1.276  -4.553   1.507  0.00  0.00    +0.038 A 
ATOM      2  C   UNL     1       1.277  -5.122   0.236  0.00  0.00    +0.017 A 
ATOM      3  C   UNL     1       1.294  -6.491   0.094  0.00  0.00    +0.011 A 
ATOM      4  C   UNL     1       1.311  -7.310   1.226  0.00  0.00    -0.002 A 
ATOM      5  C   UNL     1       1.310  -6.736   2.501  0.00  0.00    +0.043 A 
ATOM      6  C   UNL     1       1.298  -5.366   2.636  0.00  0.00    +0.140 A 
ENDROOT
BRANCH   6   7
ATOM      7  N   UNL     1       1.304  -4.756   3.985  0.00  0.00    +0.058 N 
ATOM      8  O   UNL     1       1.323  -5.462   4.967  0.00  0.00    -0.126 OA
ATOM      9  O   UNL     1       1.288  -3.554   4.105  0.00  0.00    -0.126 OA
ENDBRANCH   6   7
BRANCH   4  10
ATOM     10  C   UNL     1       1.329  -8.777   1.077  0.00  0.00    +0.160 C 
ATOM     11  N   UNL     1       1.328  -9.308  -0.103  0.00  0.00    -0.095 NA
BRANCH  11  12
ATOM     12  O   UNL     1       1.345 -10.716  -0.246  0.00  0.00    -0.409 OA
ATOM     13  H   UNL     1       1.344 -11.018  -1.165  0.00  0.00    +0.328 HD
ENDBRANCH  11  12
ENDBRANCH   4  10
BRANCH   1  14
ATOM     14  S   UNL     1       1.254  -2.800   1.685  0.00  0.00    -0.118 S 
BRANCH  14  15
ATOM     15  C   UNL     1       1.229  -2.186  -0.022  0.00  0.00    +0.111 C 
BRANCH  15  20
ATOM     16  C   UNL     1      -0.017   1.378   0.010  0.00  0.00    +0.000 A 
ATOM     17  C   UNL     1       1.171   2.086   0.002  0.00  0.00    +0.001 A 
ATOM     18  C   UNL     1       2.377   1.412  -0.013  0.00  0.00    +0.020 A 
ATOM     19  C   UNL     1       2.397   0.029  -0.021  0.00  0.00    +0.045 A 
ATOM     20  C   UNL     1       1.208  -0.679  -0.013  0.00  0.00    -0.019 A 
ATOM     21  C   UNL     1       0.002  -0.004   0.002  0.00  0.00    +0.006 A 
ATOM     22 CL   UNL     1       3.912  -0.818  -0.041  0.00  0.00    -0.083 Cl
ENDBRANCH  15  20
ENDBRANCH  14  15
ENDBRANCH   1  14
TORSDOF 6
