REMARK  Name = ZINC10491332
REMARK  7 active torsions:
REMARK  status: ('A' for Active; 'I' for Inactive)
REMARK    1  A    between atoms: C_9  and  C_12
REMARK    2  A    between atoms: C_10  and  O_11
REMARK    3  A    between atoms: C_12  and  O_14
REMARK    4  A    between atoms: O_14  and  C_15
REMARK    5  A    between atoms: C_15  and  C_16
REMARK    6  A    between atoms: N_18  and  N_19
REMARK    7  A    between atoms: C_20  and  C_22
REMARK                            x       y       z     vdW  Elec       q    Type
REMARK                         _______ _______ _______ _____ _____    ______ ____
ROOT
ATOM      1  O   UNL     1       2.255   8.105   0.021  0.00  0.00    -0.452 OA
ENDROOT
BRANCH   1   2
ATOM      2  C   UNL     1       1.090   7.427   0.029  0.00  0.00    +0.343 C 
ATOM      3  O   UNL     1       0.035   8.030   0.042  0.00  0.00    -0.245 OA
BRANCH   2  12
ATOM      4  C   UNL     1      -0.013   1.076   0.008  0.00  0.00    +0.001 A 
ATOM      5  C   UNL     1      -1.234   1.745   0.017  0.00  0.00    +0.001 A 
ATOM      6  C   UNL     1      -1.286   3.106   0.030  0.00  0.00    +0.012 A 
ATOM      7  C   UNL     1      -0.093   3.848   0.023  0.00  0.00    +0.024 A 
ATOM      8  C   UNL     1       1.150   3.167   0.008  0.00  0.00    -0.014 A 
ATOM      9  C   UNL     1       1.163   1.763   0.000  0.00  0.00    +0.008 A 
ATOM     10  C   UNL     1       2.350   3.904  -0.000  0.00  0.00    +0.009 A 
ATOM     11  C   UNL     1       2.319   5.259   0.006  0.00  0.00    +0.019 A 
ATOM     12  C   UNL     1       1.095   5.955   0.021  0.00  0.00    +0.101 A 
ATOM     13  C   UNL     1      -0.112   5.257   0.029  0.00  0.00    +0.138 A 
BRANCH  13  14
ATOM     14  O   UNL     1      -1.289   5.926   0.043  0.00  0.00    -0.505 OA
ATOM     15  H   UNL     1      -1.623   6.116   0.931  0.00  0.00    +0.292 HD
ENDBRANCH  13  14
ENDBRANCH   2  12
ENDBRANCH   1   2
BRANCH   1  16
ATOM     16  C   UNL     1       2.173   9.555   0.029  0.00  0.00    +0.329 C 
BRANCH  16  17
ATOM     17  C   UNL     1       3.563  10.136   0.018  0.00  0.00    +0.267 C 
ATOM     18  O   UNL     1       4.528   9.401   0.005  0.00  0.00    -0.271 OA
ATOM     19  N   UNL     1       3.735  11.473   0.023  0.00  0.00    -0.231 N 
ATOM     20  H   UNL     1       2.964  12.060   0.034  0.00  0.00    +0.173 HD
BRANCH  19  21
ATOM     21  N   UNL     1       5.028  12.013   0.013  0.00  0.00    -0.230 N 
ATOM     22  C   UNL     1       5.199  13.350   0.018  0.00  0.00    +0.267 C 
ATOM     23  O   UNL     1       4.232  14.087   0.031  0.00  0.00    -0.268 OA
ATOM     24  H   UNL     1       5.799  11.425   0.003  0.00  0.00    +0.173 HD
BRANCH  22  25
ATOM     25  C   UNL     1       6.552  13.915   0.008  0.00  0.00    +0.075 A 
ATOM     26  C   UNL     1       6.943  15.245   0.005  0.00  0.00    +0.021 A 
ATOM     27  C   UNL     1       8.292  15.500  -0.002  0.00  0.00    +0.008 A 
ATOM     28  C   UNL     1       9.164  14.458  -0.016  0.00  0.00    +0.046 A 
ATOM     29  S   UNL     1       8.123  13.071  -0.012  0.00  0.00    -0.092 S 
ENDBRANCH  22  25
ENDBRANCH  19  21
ENDBRANCH  16  17
ENDBRANCH   1  16
TORSDOF 7
