REMARK  Name = ZINC33870009
REMARK  14 active torsions:
REMARK  status: ('A' for Active; 'I' for Inactive)
REMARK    1  A    between atoms: C_1  and  C_2
REMARK    2  A    between atoms: C_2  and  C_3
REMARK    3  A    between atoms: C_3  and  C_4
REMARK    4  A    between atoms: C_4  and  C_6
REMARK    5  A    between atoms: C_4  and  N_37
REMARK    6  A    between atoms: C_8  and  C_11
REMARK    7  A    between atoms: N_13  and  C_14
REMARK    8  A    between atoms: C_14  and  C_16
REMARK    9  A    between atoms: C_14  and  C_25
REMARK   10  A    between atoms: C_16  and  S_17
REMARK   11  A    between atoms: S_17  and  C_18
REMARK   12  A    between atoms: C_18  and  C_19
REMARK   13  A    between atoms: N_27  and  C_28
REMARK   14  A    between atoms: C_31  and  N_34
REMARK                            x       y       z     vdW  Elec       q    Type
REMARK                         _______ _______ _______ _____ _____    ______ ____
ROOT
ATOM      1  C   UNL     1      -0.411  -4.825  -7.444  0.00  0.00    +0.169 C 
ENDROOT
BRANCH   1   4
ATOM      2  C   UNL     1       1.203  -3.938  -5.849  0.00  0.00    +0.266 C 
ATOM      3  O   UNL     1       2.083  -4.170  -6.656  0.00  0.00    -0.268 OA
ATOM      4  N   UNL     1      -0.078  -4.230  -6.148  0.00  0.00    -0.298 N 
ATOM      5  H   UNL     1      -0.780  -4.045  -5.505  0.00  0.00    +0.150 HD
BRANCH   2   8
ATOM      6  C   UNL     1       1.332  -2.518  -2.559  0.00  0.00    +0.182 A 
ATOM      7  N   UNL     1       0.663  -3.027  -3.550  0.00  0.00    -0.210 NA
ATOM      8  C   UNL     1       1.538  -3.339  -4.545  0.00  0.00    +0.163 A 
ATOM      9  C   UNL     1       2.780  -2.994  -4.108  0.00  0.00    +0.230 A 
ATOM     10  O   UNL     1       2.634  -2.482  -2.876  0.00  0.00    -0.449 OA
BRANCH   6  11
ATOM     11  C   UNL     1       0.737  -2.040  -1.260  0.00  0.00    +0.013 C 
BRANCH  11  12
ATOM     12  N   UNL     1       1.553  -2.525  -0.139  0.00  0.00    +0.386 N 
ATOM     13  H   UNL     1       1.573  -3.533  -0.148  0.00  0.00    -0.089 HD
ATOM     14  H   UNL     1       2.493  -2.169  -0.229  0.00  0.00    -0.089 HD
ATOM     15  H   UNL     1       1.155  -2.204   0.731  0.00  0.00    -0.089 HD
ENDBRANCH  11  12
BRANCH  11  16
ATOM     16  C   UNL     1       0.707  -0.510  -1.245  0.00  0.00    -0.007 C 
BRANCH  16  18
ATOM     17  C   UNL     1      -0.039   1.504   0.032  0.00  0.00    +0.004 C 
ATOM     18  C   UNL     1      -0.010  -0.026   0.017  0.00  0.00    -0.005 C 
ENDBRANCH  16  18
ENDBRANCH  11  16
ENDBRANCH   6  11
ENDBRANCH   2   8
ENDBRANCH   1   4
BRANCH   1  19
ATOM     19  C   UNL     1      -1.840  -4.500  -7.795  0.00  0.00    +0.238 C 
ATOM     20  O   UNL     1      -2.514  -3.837  -7.036  0.00  0.00    -0.273 OA
ATOM     21  N   UNL     1      -2.369  -4.947  -8.951  0.00  0.00    -0.284 N 
ATOM     22  H   UNL     1      -1.812  -5.421  -9.588  0.00  0.00    +0.155 HD
BRANCH  21  23
ATOM     23  C   UNL     1      -3.722  -4.729  -9.232  0.00  0.00    +0.034 A 
ATOM     24  C   UNL     1      -4.453  -5.688  -9.922  0.00  0.00    +0.025 A 
ATOM     25  C   UNL     1      -5.789  -5.469 -10.198  0.00  0.00    +0.034 A 
ATOM     26  C   UNL     1      -6.398  -4.298  -9.787  0.00  0.00    +0.126 A 
ATOM     27  C   UNL     1      -5.673  -3.341  -9.100  0.00  0.00    +0.034 A 
ATOM     28  C   UNL     1      -4.339  -3.557  -8.816  0.00  0.00    +0.025 A 
BRANCH  26  29
ATOM     29  N   UNL     1      -7.830  -4.067 -10.084  0.00  0.00    +0.056 N 
ATOM     30  O   UNL     1      -8.465  -4.902 -10.685  0.00  0.00    -0.126 OA
ATOM     31  O   UNL     1      -8.364  -3.043  -9.726  0.00  0.00    -0.126 OA
ENDBRANCH  26  29
ENDBRANCH  21  23
ENDBRANCH   1  19
BRANCH   1  32
ATOM     32  C   UNL     1      -0.237  -6.343  -7.368  0.00  0.00    +0.101 C 
BRANCH  32  33
ATOM     33  S   UNL     1       1.484  -6.735  -6.947  0.00  0.00    -0.154 S 
BRANCH  33  34
ATOM     34  C   UNL     1       1.522  -8.547  -6.896  0.00  0.00    +0.104 C 
BRANCH  34  35
ATOM     35  C   UNL     1       2.914  -9.011  -6.551  0.00  0.00    -0.038 A 
ATOM     36  C   UNL     1       3.833  -9.245  -7.557  0.00  0.00    +0.004 A 
ATOM     37  C   UNL     1       5.110  -9.670  -7.241  0.00  0.00    +0.000 A 
ATOM     38  C   UNL     1       5.468  -9.861  -5.920  0.00  0.00    +0.000 A 
ATOM     39  C   UNL     1       4.549  -9.626  -4.914  0.00  0.00    +0.000 A 
ATOM     40  C   UNL     1       3.273  -9.197  -5.230  0.00  0.00    +0.004 A 
ENDBRANCH  34  35
ENDBRANCH  33  34
ENDBRANCH  32  33
ENDBRANCH   1  32
TORSDOF 13
