REMARK  Name = ZINC09576414
REMARK  12 active torsions:
REMARK  status: ('A' for Active; 'I' for Inactive)
REMARK    1  A    between atoms: C_1  and  C_2
REMARK    2  A    between atoms: C_2  and  C_4
REMARK    3  A    between atoms: C_2  and  C_5
REMARK    4  A    between atoms: C_5  and  C_7
REMARK    5  A    between atoms: C_5  and  N_17
REMARK    6  A    between atoms: N_9  and  C_10
REMARK    7  A    between atoms: C_10  and  C_11
REMARK    8  A    between atoms: C_18  and  C_20
REMARK    9  A    between atoms: C_24  and  C_28
REMARK   10  A    between atoms: C_28  and  N_29
REMARK   11  A    between atoms: N_29  and  S_30
REMARK   12  A    between atoms: S_30  and  C_33
REMARK                            x       y       z     vdW  Elec       q    Type
REMARK                         _______ _______ _______ _____ _____    ______ ____
ROOT
ATOM      1  N   UNL     1       9.015  -1.729  -7.244  0.00  0.00    -0.304 N 
ATOM      2  C   UNL     1       7.831  -1.228  -7.649  0.00  0.00    +0.217 C 
ATOM      3  O   UNL     1       7.690  -0.853  -8.794  0.00  0.00    -0.275 OA
ATOM      4  H   UNL     1       9.127  -2.028  -6.329  0.00  0.00    +0.149 HD
ENDROOT
BRANCH   2   5
ATOM      5  C   UNL     1       6.682  -1.132  -6.678  0.00  0.00    +0.075 C 
ATOM      6  C   UNL     1       5.465  -0.533  -7.386  0.00  0.00    +0.013 C 
ATOM      7  C   UNL     1       4.298  -0.437  -6.401  0.00  0.00    +0.005 C 
ATOM      8  C   UNL     1       3.951  -1.834  -5.883  0.00  0.00    +0.005 C 
ATOM      9  C   UNL     1       5.168  -2.433  -5.175  0.00  0.00    +0.005 C 
ATOM     10  C   UNL     1       6.334  -2.530  -6.160  0.00  0.00    +0.013 C 
BRANCH   8  11
ATOM     11  C   UNL     1       2.784  -1.737  -4.897  0.00  0.00    +0.109 C 
BRANCH  11  12
ATOM     12  N   UNL     1       2.373  -3.084  -4.493  0.00  0.00    -0.190 NA
ATOM     13  H   UNL     1       2.673  -3.855  -5.000  0.00  0.00    +0.148 HD
BRANCH  12  14
ATOM     14  S   UNL     1       1.399  -3.290  -3.171  0.00  0.00    +0.058 S 
ATOM     15  O   UNL     1       1.974  -2.527  -2.119  0.00  0.00    -0.153 OA
ATOM     16  O   UNL     1       1.160  -4.686  -3.056  0.00  0.00    -0.153 OA
BRANCH  14  17
ATOM     17  C   UNL     1      -0.153  -2.543  -3.545  0.00  0.00    +0.105 A 
ATOM     18  C   UNL     1      -1.152  -3.288  -4.142  0.00  0.00    +0.028 A 
ATOM     19  C   UNL     1      -2.369  -2.701  -4.437  0.00  0.00    +0.002 A 
ATOM     20  C   UNL     1      -2.586  -1.370  -4.134  0.00  0.00    +0.000 A 
ATOM     21  C   UNL     1      -1.587  -0.625  -3.536  0.00  0.00    +0.002 A 
ATOM     22  C   UNL     1      -0.370  -1.212  -3.242  0.00  0.00    +0.028 A 
ENDBRANCH  14  17
ENDBRANCH  12  14
ENDBRANCH  11  12
ENDBRANCH   8  11
ENDBRANCH   2   5
BRANCH   1  23
ATOM     23  C   UNL     1      10.132  -1.821  -8.188  0.00  0.00    +0.161 C 
BRANCH  23  24
ATOM     24  C   UNL     1      11.075  -2.910  -7.744  0.00  0.00    +0.234 C 
ATOM     25  O   UNL     1      11.034  -3.320  -6.604  0.00  0.00    -0.274 OA
ATOM     26  N   UNL     1      11.963  -3.428  -8.616  0.00  0.00    -0.311 N 
ATOM     27  H   UNL     1      11.944  -3.156  -9.546  0.00  0.00    +0.149 HD
BRANCH  26  28
ATOM     28  C   UNL     1      12.957  -4.402  -8.156  0.00  0.00    +0.135 C 
BRANCH  28  29
ATOM     29  C   UNL     1      13.836  -4.827  -9.334  0.00  0.00    +0.135 C 
ATOM     30  C   UNL     1      14.810  -5.946  -8.902  0.00  0.00    +0.035 C 
ATOM     31  C   UNL     1      16.112  -5.627  -9.669  0.00  0.00    +0.031 C 
ATOM     32  C   UNL     1      15.772  -4.353 -10.474  0.00  0.00    +0.160 C 
ATOM     33  O   UNL     1      14.687  -3.736  -9.746  0.00  0.00    -0.375 OA
ENDBRANCH  28  29
ENDBRANCH  26  28
ENDBRANCH  23  24
BRANCH  23  35
ATOM     34  C   UNL     1       9.953   0.597  -8.788  0.00  0.00    +0.009 C 
ATOM     35  C   UNL     1      10.877  -0.486  -8.229  0.00  0.00    +0.012 C 
ATOM     36  C   UNL     1      11.313  -0.102  -6.813  0.00  0.00    +0.009 C 
ENDBRANCH  23  35
ENDBRANCH   1  23
TORSDOF 10
