REMARK  Name = ZINC24143911
REMARK  7 active torsions:
REMARK  status: ('A' for Active; 'I' for Inactive)
REMARK    1  A    between atoms: C_1  and  C_2
REMARK    2  A    between atoms: N_4  and  C_5
REMARK    3  A    between atoms: C_5  and  C_7
REMARK    4  A    between atoms: C_5  and  C_18
REMARK    5  A    between atoms: C_7  and  C_8
REMARK    6  A    between atoms: C_23  and  C_26
REMARK    7  A    between atoms: N_28  and  C_29
REMARK                            x       y       z     vdW  Elec       q    Type
REMARK                         _______ _______ _______ _____ _____    ______ ____
ROOT
ATOM      1  C   UNL     1       9.720   3.046  -1.494  0.00  0.00    +0.236 C 
ATOM      2  O   UNL     1      10.635   2.275  -1.295  0.00  0.00    -0.274 OA
ATOM      3  N   UNL     1       8.629   3.015  -0.703  0.00  0.00    -0.300 N 
ATOM      4  C   UNL     1       8.533   2.053   0.403  0.00  0.00    +0.108 C 
ATOM      5  C   UNL     1       7.226   1.265   0.260  0.00  0.00    +0.032 C 
ATOM      6  C   UNL     1       6.053   2.244   0.174  0.00  0.00    +0.078 C 
ATOM      7  C   UNL     1       6.217   3.134  -1.060  0.00  0.00    +0.032 C 
ATOM      8  C   UNL     1       7.512   3.942  -0.932  0.00  0.00    +0.108 C 
ENDROOT
BRANCH   6   9
ATOM      9  C   UNL     1       4.763   1.472   0.068  0.00  0.00    +0.220 C 
ATOM     10  O   UNL     1       4.780   0.259   0.061  0.00  0.00    -0.275 OA
ATOM     11  N   UNL     1       3.589   2.129  -0.020  0.00  0.00    -0.285 N 
ATOM     12  H   UNL     1       3.578   3.226  -0.101  0.00  0.00    +0.155 HD
BRANCH  11  13
ATOM     13  C   UNL     1       2.384   1.415  -0.007  0.00  0.00    +0.037 A 
ATOM     14  C   UNL     1       2.275   0.249   0.738  0.00  0.00    +0.027 A 
ATOM     15  C   UNL     1       1.087  -0.456   0.752  0.00  0.00    +0.051 A 
ATOM     16  C   UNL     1       0.000  -0.001   0.022  0.00  0.00    +0.166 A 
ATOM     17  C   UNL     1       0.106   1.169  -0.726  0.00  0.00    +0.168 A 
ATOM     18  C   UNL     1       1.298   1.875  -0.740  0.00  0.00    +0.072 A 
ATOM     19  O   UNL     1      -1.086   1.397  -1.351  0.00  0.00    -0.453 OA
ATOM     20  C   UNL     1      -1.795   0.146  -1.298  0.00  0.00    +0.466 C 
ATOM     21  O   UNL     1      -1.261  -0.503  -0.129  0.00  0.00    -0.453 OA
ENDBRANCH  11  13
ENDBRANCH   6   9
BRANCH   1  22
ATOM     22  C   UNL     1       9.803   4.038  -2.625  0.00  0.00    +0.163 C 
BRANCH  22  26
ATOM     23  C   UNL     1      13.358   3.341  -3.861  0.00  0.00    +0.109 C 
ATOM     24  C   UNL     1      11.918   3.160  -3.457  0.00  0.00    +0.211 C 
ATOM     25  O   UNL     1      11.402   2.064  -3.527  0.00  0.00    -0.276 OA
ATOM     26  N   UNL     1      11.203   4.215  -3.018  0.00  0.00    -0.304 N 
ATOM     27  H   UNL     1      11.671   5.208  -2.954  0.00  0.00    +0.149 HD
ENDBRANCH  22  26
BRANCH  22  28
ATOM     28  C   UNL     1       9.000   3.519  -3.819  0.00  0.00    +0.069 C 
BRANCH  28  29
ATOM     29  C   UNL     1       8.981   4.565  -4.904  0.00  0.00    -0.020 A 
ATOM     30  C   UNL     1       8.023   5.482  -5.113  0.00  0.00    +0.087 A 
ATOM     31  N   UNL     1       8.349   6.261  -6.189  0.00  0.00    -0.360 N 
ATOM     32  H   UNL     1       7.675   7.069  -6.508  0.00  0.00    +0.165 HD
ATOM     33  C   UNL     1       9.556   5.854  -6.713  0.00  0.00    +0.047 A 
ATOM     34  C   UNL     1      10.007   4.777  -5.928  0.00  0.00    +0.003 A 
ATOM     35  C   UNL     1      11.223   4.159  -6.226  0.00  0.00    +0.010 A 
ATOM     36  C   UNL     1      11.970   4.606  -7.279  0.00  0.00    +0.001 A 
ATOM     37  C   UNL     1      11.531   5.669  -8.055  0.00  0.00    +0.002 A 
ATOM     38  C   UNL     1      10.331   6.289  -7.783  0.00  0.00    +0.026 A 
ENDBRANCH  28  29
ENDBRANCH  22  28
ENDBRANCH   1  22
TORSDOF 6
