REMARK  Name = ZINC28821872
REMARK  7 active torsions:
REMARK  status: ('A' for Active; 'I' for Inactive)
REMARK    1  A    between atoms: C_3  and  N_9
REMARK    2  A    between atoms: N_9  and  C_10
REMARK    3  A    between atoms: C_17  and  C_18
REMARK    4  A    between atoms: N_20  and  O_21
REMARK    5  A    between atoms: O_21  and  C_22
REMARK    6  A    between atoms: C_22  and  C_23
REMARK    7  A    between atoms: C_23  and  O_24
REMARK                            x       y       z     vdW  Elec       q    Type
REMARK                         _______ _______ _______ _____ _____    ______ ____
ROOT
ATOM      1  C   UNL     1       3.650   3.540  -0.204  0.00  0.00    +0.050 A 
ATOM      2  C   UNL     1       2.500   4.300  -0.087  0.00  0.00    +0.094 A 
ATOM      3  C   UNL     1       2.608   5.659   0.227  0.00  0.00    +0.251 A 
ATOM      4  O   UNL     1       1.595   6.332   0.331  0.00  0.00    -0.268 OA
ATOM      5  N   UNL     1       3.805   6.236   0.416  0.00  0.00    -0.328 N 
ATOM      6  H   UNL     1       3.842   7.181   0.633  0.00  0.00    +0.168 HD
ATOM      7  C   UNL     1       4.956   5.546   0.315  0.00  0.00    +0.101 A 
ATOM      8  C   UNL     1       4.943   4.201   0.014  0.00  0.00    +0.076 A 
ENDROOT
BRANCH   8   9
ATOM      9  C   UNL     1       6.201   3.443  -0.091  0.00  0.00    +0.270 C 
ATOM     10  O   UNL     1       6.173   2.236  -0.239  0.00  0.00    -0.268 OA
ATOM     11  N   UNL     1       7.383   4.086  -0.023  0.00  0.00    -0.190 N 
ATOM     12  H   UNL     1       7.406   5.055   0.022  0.00  0.00    +0.183 HD
BRANCH  11  13
ATOM     13  O   UNL     1       8.592   3.348  -0.017  0.00  0.00    -0.277 OA
BRANCH  13  14
ATOM     14  C   UNL     1       9.767   4.157   0.059  0.00  0.00    +0.218 C 
BRANCH  14  15
ATOM     15  C   UNL     1      11.005   3.260   0.058  0.00  0.00    +0.186 C 
BRANCH  15  16
ATOM     16  O   UNL     1      11.097   2.575  -1.193  0.00  0.00    -0.393 OA
ATOM     17  H   UNL     1      11.861   1.987  -1.264  0.00  0.00    +0.209 HD
ENDBRANCH  15  16
ENDBRANCH  14  15
ENDBRANCH  13  14
ENDBRANCH  11  13
ENDBRANCH   8   9
BRANCH   1  18
ATOM     18  N   UNL     1       3.583   2.196  -0.513  0.00  0.00    -0.311 N 
ATOM     19  H   UNL     1       3.156   1.578   0.101  0.00  0.00    +0.152 HD
BRANCH  18  22
ATOM     20  C   UNL     1       5.182   2.152  -3.824  0.00  0.00    +0.017 A 
ATOM     21  C   UNL     1       4.640   2.620  -2.642  0.00  0.00    +0.027 A 
ATOM     22  C   UNL     1       4.133   1.725  -1.711  0.00  0.00    +0.067 A 
ATOM     23  C   UNL     1       4.172   0.359  -1.970  0.00  0.00    +0.145 A 
ATOM     24  C   UNL     1       4.715  -0.103  -3.154  0.00  0.00    +0.055 A 
ATOM     25  C   UNL     1       5.220   0.793  -4.080  0.00  0.00    +0.021 A 
ATOM     26 BR   UNL     1       5.963   0.159  -5.700  0.00  0.00    -0.050 Br
ATOM     27  F   UNL     1       3.679  -0.516  -1.066  0.00  0.00    -0.204 F 
ENDBRANCH  18  22
ENDBRANCH   1  18
TORSDOF 7
