REMARK  Name = ZINC22243008
REMARK  8 active torsions:
REMARK  status: ('A' for Active; 'I' for Inactive)
REMARK    1  A    between atoms: C_1  and  C_2
REMARK    2  A    between atoms: C_2  and  C_3
REMARK    3  A    between atoms: C_2  and  C_4
REMARK    4  A    between atoms: C_4  and  C_6
REMARK    5  A    between atoms: C_4  and  N_21
REMARK    6  A    between atoms: N_11  and  C_14
REMARK    7  A    between atoms: C_19  and  O_20
REMARK    8  A    between atoms: C_22  and  C_24
REMARK                            x       y       z     vdW  Elec       q    Type
REMARK                         _______ _______ _______ _____ _____    ______ ____
ROOT
ATOM      1  C   UNL     1      -1.287   2.376  -0.004  0.00  0.00    +0.236 C 
ATOM      2  O   UNL     1      -2.176   1.817  -0.610  0.00  0.00    -0.274 OA
ATOM      3  N   UNL     1      -0.312   1.652   0.581  0.00  0.00    -0.297 N 
ATOM      4  C   UNL     1       0.837   2.311   1.220  0.00  0.00    +0.126 C 
ATOM      5  C   UNL     1       1.000   1.743   2.634  0.00  0.00    +0.124 C 
ATOM      6  N   UNL     1       1.084   0.279   2.564  0.00  0.00    -0.324 N 
ATOM      7  C   UNL     1      -0.157  -0.301   2.031  0.00  0.00    +0.124 C 
ATOM      8  C   UNL     1      -0.366   0.182   0.592  0.00  0.00    +0.126 C 
ENDROOT
BRANCH   6   9
ATOM      9  C   UNL     1       1.396  -0.267   3.814  0.00  0.00    +0.072 A 
ATOM     10  C   UNL     1       1.364   0.532   4.949  0.00  0.00    +0.027 A 
ATOM     11  C   UNL     1       1.668  -0.010   6.183  0.00  0.00    +0.002 A 
ATOM     12  C   UNL     1       2.013  -1.344   6.290  0.00  0.00    +0.004 A 
ATOM     13  C   UNL     1       2.052  -2.145   5.164  0.00  0.00    +0.047 A 
ATOM     14  C   UNL     1       1.744  -1.611   3.923  0.00  0.00    +0.138 A 
BRANCH  14  15
ATOM     15  O   UNL     1       1.782  -2.397   2.814  0.00  0.00    -0.505 OA
ATOM     16  H   UNL     1       2.058  -3.459   2.901  0.00  0.00    +0.292 HD
ENDBRANCH  14  15
ENDBRANCH   6   9
BRANCH   1  17
ATOM     17  C   UNL     1      -1.271   3.879   0.094  0.00  0.00    +0.162 C 
BRANCH  17  18
ATOM     18  N   UNL     1      -2.647   4.381   0.120  0.00  0.00    -0.304 N 
ATOM     19  C   UNL     1      -2.920   5.571   0.690  0.00  0.00    +0.217 C 
ATOM     20  O   UNL     1      -2.026   6.227   1.183  0.00  0.00    -0.275 OA
ATOM     21  H   UNL     1      -3.458   3.787  -0.327  0.00  0.00    +0.149 HD
BRANCH  19  22
ATOM     22  C   UNL     1      -4.335   6.088   0.717  0.00  0.00    +0.075 C 
ATOM     23  C   UNL     1      -4.851   6.238  -0.716  0.00  0.00    +0.013 C 
ATOM     24  C   UNL     1      -6.288   6.762  -0.689  0.00  0.00    +0.001 C 
ATOM     25  C   UNL     1      -6.321   8.122   0.011  0.00  0.00    +0.000 C 
ATOM     26  C   UNL     1      -5.806   7.972   1.444  0.00  0.00    +0.001 C 
ATOM     27  C   UNL     1      -4.369   7.448   1.417  0.00  0.00    +0.013 C 
ENDBRANCH  19  22
ENDBRANCH  17  18
BRANCH  17  29
ATOM     28  C   UNL     1       0.932   4.042  -1.073  0.00  0.00    +0.009 C 
ATOM     29  C   UNL     1      -0.538   4.462  -1.116  0.00  0.00    +0.012 C 
ATOM     30  C   UNL     1      -1.181   3.938  -2.402  0.00  0.00    +0.009 C 
ENDBRANCH  17  29
ENDBRANCH   1  17
TORSDOF 6
