REMARK  Name = ZINC03534223
REMARK  13 active torsions:
REMARK  status: ('A' for Active; 'I' for Inactive)
REMARK    1  A    between atoms: C_1  and  C_2
REMARK    2  A    between atoms: C_2  and  C_3
REMARK    3  A    between atoms: C_3  and  C_4
REMARK    4  A    between atoms: C_4  and  N_5
REMARK    5  A    between atoms: C_6  and  N_33
REMARK    6  A    between atoms: C_7  and  N_14
REMARK    7  A    between atoms: N_14  and  C_15
REMARK    8  A    between atoms: C_15  and  C_16
REMARK    9  A    between atoms: C_16  and  C_17
REMARK   10  A    between atoms: C_16  and  C_18
REMARK   11  A    between atoms: C_19  and  C_21
REMARK   12  A    between atoms: C_21  and  S_22
REMARK   13  A    between atoms: S_22  and  C_23
REMARK                            x       y       z     vdW  Elec       q    Type
REMARK                         _______ _______ _______ _____ _____    ______ ____
ROOT
ATOM      1  N   UNL     1      -0.081   1.344   2.559  0.00  0.00    -0.263 N 
ATOM      2  C   UNL     1      -0.812   1.479   1.433  0.00  0.00    +0.230 C 
ATOM      3  O   UNL     1      -0.409   1.011   0.388  0.00  0.00    -0.274 OA
ENDROOT
BRANCH   1   6
ATOM      4  N   UNL     1      -1.446   1.365   5.970  0.00  0.00    -0.280 N 
ATOM      5  C   UNL     1      -0.947   0.895   4.778  0.00  0.00    +0.127 A 
ATOM      6  C   UNL     1      -0.596   1.795   3.793  0.00  0.00    +0.140 A 
ATOM      7  C   UNL     1      -0.755   3.171   4.042  0.00  0.00    +0.277 A 
ATOM      8  O   UNL     1      -0.448   3.988   3.190  0.00  0.00    -0.266 OA
ATOM      9  N   UNL     1      -1.254   3.579   5.225  0.00  0.00    -0.273 N 
ATOM     10  H   UNL     1      -1.375   4.556   5.400  0.00  0.00    +0.173 HD
ATOM     11  C   UNL     1      -1.591   2.687   6.173  0.00  0.00    +0.331 A 
ATOM     12  O   UNL     1      -2.034   3.083   7.234  0.00  0.00    -0.246 OA
BRANCH   5  13
ATOM     13  N   UNL     1      -0.799  -0.456   4.570  0.00  0.00    -0.343 N 
ATOM     14  H   UNL     1      -0.389  -0.779   3.752  0.00  0.00    +0.144 HD
ATOM     15  H   UNL     1      -1.105  -1.086   5.241  0.00  0.00    +0.144 HD
ENDBRANCH   5  13
BRANCH   4  16
ATOM     16  C   UNL     1      -1.822   0.421   7.025  0.00  0.00    +0.128 C 
BRANCH  16  17
ATOM     17  C   UNL     1      -0.615   0.156   7.927  0.00  0.00    +0.021 C 
BRANCH  17  19
ATOM     18  C   UNL     1       0.199  -1.094   9.931  0.00  0.00    +0.004 C 
ATOM     19  C   UNL     1      -1.008  -0.830   9.029  0.00  0.00    -0.002 C 
ENDBRANCH  17  19
ENDBRANCH  16  17
ENDBRANCH   4  16
ENDBRANCH   1   6
BRANCH   1  20
ATOM     20  C   UNL     1       1.248   0.729   2.500  0.00  0.00    +0.117 C 
BRANCH  20  21
ATOM     21  C   UNL     1       2.313   1.824   2.407  0.00  0.00    +0.001 C 
ATOM     22  C   UNL     1       3.703   1.190   2.477  0.00  0.00    +0.009 C 
ATOM     23  C   UNL     1       2.159   2.573   1.082  0.00  0.00    +0.009 C 
ENDBRANCH  20  21
ENDBRANCH   1  20
BRANCH   2  24
ATOM     24  C   UNL     1      -2.129   2.210   1.473  0.00  0.00    +0.172 C 
BRANCH  24  25
ATOM     25  S   UNL     1      -2.820   2.300  -0.198  0.00  0.00    -0.096 S 
BRANCH  25  26
ATOM     26  C   UNL     1      -4.311   3.178   0.134  0.00  0.00    +0.108 A 
ATOM     27  C   UNL     1      -5.217   3.495  -0.908  0.00  0.00    +0.032 A 
ATOM     28  C   UNL     1      -4.977   3.133  -2.238  0.00  0.00    +0.012 A 
ATOM     29  C   UNL     1      -5.885   3.467  -3.199  0.00  0.00    +0.001 A 
ATOM     30  C   UNL     1      -7.047   4.162  -2.875  0.00  0.00    +0.002 A 
ATOM     31  C   UNL     1      -7.309   4.529  -1.588  0.00  0.00    +0.028 A 
ATOM     32  C   UNL     1      -6.397   4.202  -0.576  0.00  0.00    +0.075 A 
ATOM     33  N   UNL     1      -6.607   4.540   0.706  0.00  0.00    -0.235 NA
ATOM     34  C   UNL     1      -5.733   4.220   1.630  0.00  0.00    +0.223 A 
ATOM     35  N   UNL     1      -4.619   3.555   1.369  0.00  0.00    -0.229 NA
ENDBRANCH  25  26
ENDBRANCH  24  25
ENDBRANCH   2  24
TORSDOF 10
