REMARK  Name = ZINC67602948
REMARK  7 active torsions:
REMARK  status: ('A' for Active; 'I' for Inactive)
REMARK    1  A    between atoms: C_6  and  O_7
REMARK    2  A    between atoms: O_7  and  C_8
REMARK    3  A    between atoms: C_8  and  C_9
REMARK    4  A    between atoms: C_9  and  C_11
REMARK    5  A    between atoms: C_9  and  O_26
REMARK    6  A    between atoms: C_11  and  N_12
REMARK    7  A    between atoms: N_15  and  C_16
REMARK                            x       y       z     vdW  Elec       q    Type
REMARK                         _______ _______ _______ _____ _____    ______ ____
ROOT
ATOM      1  C   UNL     1      -4.865  -0.074   0.174  0.00  0.00    +0.140 C 
ENDROOT
BRANCH   1   2
ATOM      2  N   UNL     1      -6.005  -0.987   0.300  0.00  0.00    -0.297 N 
ATOM      3  C   UNL     1      -7.251  -0.493   0.437  0.00  0.00    +0.300 C 
ATOM      4  O   UNL     1      -7.430   0.709   0.457  0.00  0.00    -0.253 OA
ATOM      5  N   UNL     1      -8.299  -1.333   0.553  0.00  0.00    -0.292 N 
ATOM      6  H   UNL     1      -5.862  -1.946   0.284  0.00  0.00    +0.150 HD
ATOM      7  H   UNL     1      -8.156  -2.292   0.538  0.00  0.00    +0.151 HD
BRANCH   5   8
ATOM      8  C   UNL     1      -9.654  -0.796   0.703  0.00  0.00    +0.108 C 
ATOM      9  C   UNL     1     -10.545  -1.830   1.404  0.00  0.00    +0.027 C 
ATOM     10  C   UNL     1     -12.007  -1.383   1.320  0.00  0.00    +0.010 C 
ATOM     11  C   UNL     1     -12.497  -1.502  -0.128  0.00  0.00    +0.075 C 
ATOM     12  C   UNL     1     -11.497  -0.820  -1.028  0.00  0.00    +0.110 A 
ATOM     13  C   UNL     1     -10.238  -0.507  -0.655  0.00  0.00    +0.014 A 
ATOM     14  C   UNL     1      -9.621   0.115  -1.755  0.00  0.00    +0.047 A 
ATOM     15  C   UNL     1     -10.536   0.149  -2.743  0.00  0.00    +0.195 A 
ATOM     16  O   UNL     1     -11.670  -0.422  -2.295  0.00  0.00    -0.467 OA
ENDBRANCH   5   8
ENDBRANCH   1   2
BRANCH   1  17
ATOM     17  C   UNL     1      -3.576  -0.886   0.031  0.00  0.00    +0.169 C 
BRANCH  17  18
ATOM     18  O   UNL     1      -3.608  -1.621  -1.193  0.00  0.00    -0.387 OA
ATOM     19  H   UNL     1      -3.686  -1.068  -1.983  0.00  0.00    +0.210 HD
ENDBRANCH  17  18
BRANCH  17  20
ATOM     20  C   UNL     1      -2.375   0.063   0.025  0.00  0.00    +0.261 C 
BRANCH  20  21
ATOM     21  O   UNL     1      -1.166  -0.700   0.009  0.00  0.00    -0.489 OA
BRANCH  21  27
ATOM     22  C   UNL     1      -0.017   1.382   0.010  0.00  0.00    +0.049 A 
ATOM     23  C   UNL     1       1.170   2.092   0.002  0.00  0.00    +0.053 A 
ATOM     24  C   UNL     1       2.381   1.419  -0.013  0.00  0.00    +0.166 A 
ATOM     25  C   UNL     1       2.402   0.027  -0.021  0.00  0.00    +0.170 A 
ATOM     26  C   UNL     1       1.212  -0.682  -0.012  0.00  0.00    +0.095 A 
ATOM     27  C   UNL     1       0.002  -0.004   0.002  0.00  0.00    +0.124 A 
ATOM     28  O   UNL     1       3.702  -0.390  -0.037  0.00  0.00    -0.452 OA
ATOM     29  C   UNL     1       4.468   0.757  -0.451  0.00  0.00    +0.466 C 
ATOM     30  O   UNL     1       3.668   1.875  -0.024  0.00  0.00    -0.453 OA
ENDBRANCH  21  27
ENDBRANCH  20  21
ENDBRANCH  17  20
ENDBRANCH   1  17
TORSDOF 7
