REMARK  Name = ZINC36398443
REMARK  5 active torsions:
REMARK  status: ('A' for Active; 'I' for Inactive)
REMARK    1  A    between atoms: C_3  and  C_23
REMARK    2  A    between atoms: C_5  and  N_7
REMARK    3  A    between atoms: C_8  and  C_10
REMARK    4  A    between atoms: C_13  and  C_16
REMARK    5  A    between atoms: N_27  and  C_28
REMARK                            x       y       z     vdW  Elec       q    Type
REMARK                         _______ _______ _______ _____ _____    ______ ____
ROOT
ATOM      1  N   UNL     1       1.200  -1.948  -0.003  0.00  0.00    -0.282 N 
ATOM      2  C   UNL     1       0.131  -2.754  -0.156  0.00  0.00    +0.261 C 
ATOM      3  O   UNL     1      -0.961  -2.276  -0.383  0.00  0.00    -0.271 OA
ATOM      4  H   UNL     1       2.086  -2.332   0.099  0.00  0.00    +0.155 HD
ENDROOT
BRANCH   1   9
ATOM      5  C   UNL     1       1.852   1.635  -0.529  0.00  0.00    +0.002 A 
ATOM      6  C   UNL     1       0.721   2.199   0.025  0.00  0.00    +0.012 A 
ATOM      7  C   UNL     1      -0.266   1.383   0.578  0.00  0.00    +0.022 A 
ATOM      8  C   UNL     1      -0.105  -0.002   0.568  0.00  0.00    +0.035 A 
ATOM      9  C   UNL     1       1.034  -0.559   0.009  0.00  0.00    +0.034 A 
ATOM     10  C   UNL     1       2.012   0.263  -0.539  0.00  0.00    +0.023 A 
BRANCH   7  11
ATOM     11  C   UNL     1      -1.480   1.985   1.173  0.00  0.00    +0.182 A 
ATOM     12  N   UNL     1      -2.623   1.374   1.406  0.00  0.00    -0.108 NA
ATOM     13  N   UNL     1      -3.468   2.187   1.931  0.00  0.00    -0.023 NA
ATOM     14  N   UNL     1      -2.941   3.354   2.071  0.00  0.00    -0.043 NA
ATOM     15  N   UNL     1      -1.623   3.268   1.588  0.00  0.00    -0.222 N 
BRANCH  15  16
ATOM     16  C   UNL     1      -0.621   4.335   1.540  0.00  0.00    +0.111 C 
ATOM     17  C   UNL     1      -1.002   5.689   2.143  0.00  0.00    +0.029 C 
ATOM     18  C   UNL     1      -0.903   5.529   0.625  0.00  0.00    +0.029 C 
ENDBRANCH  15  16
ENDBRANCH   7  11
ENDBRANCH   1   9
BRANCH   2  19
ATOM     19  C   UNL     1       0.290  -4.248  -0.044  0.00  0.00    +0.295 C 
ATOM     20  C   UNL     1       1.119  -4.807  -1.226  0.00  0.00    +0.116 C 
ATOM     21  C   UNL     1       0.428  -6.125  -1.519  0.00  0.00    +0.091 C 
ATOM     22  N   UNL     1      -0.722  -6.118  -0.932  0.00  0.00    -0.088 NA
ATOM     23  O   UNL     1      -0.973  -4.918  -0.228  0.00  0.00    -0.380 OA
BRANCH  21  24
ATOM     24  C   UNL     1       0.977  -7.227  -2.334  0.00  0.00    +0.002 A 
ATOM     25  C   UNL     1       2.242  -7.108  -2.912  0.00  0.00    +0.010 A 
ATOM     26  C   UNL     1       2.750  -8.140  -3.673  0.00  0.00    +0.003 A 
ATOM     27  C   UNL     1       2.009  -9.292  -3.866  0.00  0.00    +0.038 A 
ATOM     28  C   UNL     1       0.751  -9.417  -3.297  0.00  0.00    +0.124 A 
ATOM     29  C   UNL     1       0.234  -8.393  -2.527  0.00  0.00    +0.048 A 
ATOM     30  F   UNL     1       0.033 -10.545  -3.490  0.00  0.00    -0.205 F 
ENDBRANCH  21  24
ENDBRANCH   2  19
TORSDOF 5
