REMARK  Name = ZINC19421368
REMARK  11 active torsions:
REMARK  status: ('A' for Active; 'I' for Inactive)
REMARK    1  A    between atoms: C_1  and  C_2
REMARK    2  A    between atoms: C_9  and  C_11
REMARK    3  A    between atoms: C_11  and  C_13
REMARK    4  A    between atoms: C_11  and  N_16
REMARK    5  A    between atoms: C_13  and  C_14
REMARK    6  A    between atoms: C_13  and  C_15
REMARK    7  A    between atoms: C_17  and  O_19
REMARK    8  A    between atoms: O_19  and  C_20
REMARK    9  A    between atoms: C_20  and  C_21
REMARK   10  A    between atoms: C_20  and  C_22
REMARK   11  A    between atoms: C_20  and  C_23
REMARK                            x       y       z     vdW  Elec       q    Type
REMARK                         _______ _______ _______ _____ _____    ______ ____
ROOT
ATOM      1  C   UNL     1      -0.065   0.971   2.510  0.00  0.00    +0.165 C 
ENDROOT
BRANCH   1   9
ATOM      2  C   UNL     1       2.269  -4.655   1.440  0.00  0.00    +0.009 C 
ATOM      3  C   UNL     1       2.127  -3.133   1.380  0.00  0.00    +0.003 C 
ATOM      4  C   UNL     1       3.492  -2.483   1.614  0.00  0.00    +0.006 C 
ATOM      5  C   UNL     1       3.357  -0.961   1.520  0.00  0.00    +0.019 C 
ATOM      6  C   UNL     1       2.395  -0.470   2.607  0.00  0.00    +0.108 C 
ATOM      7  N   UNL     1       1.125  -1.198   2.478  0.00  0.00    -0.300 N 
ATOM      8  C   UNL     1       1.150  -2.667   2.470  0.00  0.00    +0.111 C 
ATOM      9  C   UNL     1      -0.041  -0.530   2.374  0.00  0.00    +0.236 C 
ATOM     10  O   UNL     1      -1.071  -1.137   2.173  0.00  0.00    -0.274 OA
ENDBRANCH   1   9
BRANCH   1  11
ATOM     11  N   UNL     1      -1.273   1.377   3.231  0.00  0.00    -0.270 N 
ATOM     12  C   UNL     1      -1.295   2.543   3.907  0.00  0.00    +0.401 C 
ATOM     13  O   UNL     1      -0.312   3.257   3.918  0.00  0.00    -0.226 OA
ATOM     14  H   UNL     1      -2.163   0.731   3.221  0.00  0.00    +0.153 HD
BRANCH  12  15
ATOM     15  O   UNL     1      -2.405   2.916   4.570  0.00  0.00    -0.445 OA
BRANCH  15  16
ATOM     16  C   UNL     1      -2.357   4.184   5.276  0.00  0.00    +0.107 C 
ATOM     17  C   UNL     1      -2.074   5.311   4.281  0.00  0.00    +0.055 C 
ATOM     18  C   UNL     1      -3.700   4.436   5.964  0.00  0.00    +0.055 C 
ATOM     19  C   UNL     1      -1.246   4.140   6.327  0.00  0.00    +0.055 C 
ENDBRANCH  15  16
ENDBRANCH  12  15
ENDBRANCH   1  11
BRANCH   1  20
ATOM     20  C   UNL     1      -0.063   1.608   1.119  0.00  0.00    +0.012 C 
ATOM     21  C   UNL     1       1.145   1.102   0.327  0.00  0.00    +0.009 C 
ATOM     22  C   UNL     1       0.019   3.130   1.255  0.00  0.00    +0.009 C 
ENDBRANCH   1  20
TORSDOF 5
