REMARK  Name = ZINC13143841
REMARK  9 active torsions:
REMARK  status: ('A' for Active; 'I' for Inactive)
REMARK    1  A    between atoms: C_1  and  O_2
REMARK    2  A    between atoms: O_2  and  C_3
REMARK    3  A    between atoms: C_6  and  C_9
REMARK    4  A    between atoms: C_9  and  C_11
REMARK    5  A    between atoms: C_13  and  C_25
REMARK    6  A    between atoms: C_19  and  C_20
REMARK    7  A    between atoms: C_19  and  O_24
REMARK    8  A    between atoms: C_28  and  C_30
REMARK    9  A    between atoms: C_35  and  N_36
REMARK                            x       y       z     vdW  Elec       q    Type
REMARK                         _______ _______ _______ _____ _____    ______ ____
ROOT
ATOM      1  C   UNL     1      -2.428   3.937   0.097  0.00  0.00    +0.147 C 
ATOM      2  C   UNL     1      -0.953   4.233  -0.196  0.00  0.00    +0.156 C 
ATOM      3  N   UNL     1      -0.200   2.978  -0.183  0.00  0.00    -0.289 N 
ATOM      4  C   UNL     1      -0.777   1.814  -0.515  0.00  0.00    +0.302 C 
ATOM      5  O   UNL     1      -0.104   0.802  -0.498  0.00  0.00    -0.253 OA
ATOM      6  N   UNL     1      -2.069   1.722  -0.867  0.00  0.00    -0.264 N 
ATOM      7  C   UNL     1      -2.928   2.906  -0.924  0.00  0.00    +0.243 C 
ATOM      8  H   UNL     1       0.736   2.988   0.072  0.00  0.00    +0.151 HD
ATOM      9  H   UNL     1      -2.440   0.854  -1.091  0.00  0.00    +0.153 HD
ENDROOT
BRANCH   2  10
ATOM     10  C   UNL     1      -0.406   5.160   0.859  0.00  0.00    +0.127 A 
ATOM     11  C   UNL     1       0.136   4.781   2.033  0.00  0.00    +0.047 A 
ATOM     12  C   UNL     1       0.515   5.956   2.711  0.00  0.00    +0.050 A 
ATOM     13  C   UNL     1       0.180   6.999   1.905  0.00  0.00    +0.137 A 
ATOM     14  O   UNL     1      -0.373   6.500   0.783  0.00  0.00    -0.458 OA
BRANCH  13  15
ATOM     15  C   UNL     1       0.392   8.430   2.205  0.00  0.00    +0.047 A 
ATOM     16  C   UNL     1      -0.134   8.987   3.372  0.00  0.00    +0.014 A 
ATOM     17  C   UNL     1       0.071  10.323   3.649  0.00  0.00    +0.001 A 
ATOM     18  C   UNL     1       0.788  11.113   2.767  0.00  0.00    +0.002 A 
ATOM     19  C   UNL     1       1.308  10.568   1.607  0.00  0.00    +0.033 A 
ATOM     20  C   UNL     1       1.115   9.232   1.321  0.00  0.00    +0.137 A 
BRANCH  20  21
ATOM     21  N   UNL     1       1.672   8.651   0.079  0.00  0.00    +0.057 N 
ATOM     22  O   UNL     1       2.204   9.373  -0.746  0.00  0.00    -0.126 OA
ATOM     23  O   UNL     1       1.599   7.452  -0.119  0.00  0.00    -0.126 OA
ENDBRANCH  20  21
ENDBRANCH  13  15
ENDBRANCH   2  10
BRANCH   7  24
ATOM     24  C   UNL     1      -4.367   2.510  -0.587  0.00  0.00    +0.436 C 
ATOM     25  F   UNL     1      -4.411   1.965   0.700  0.00  0.00    -0.166 F 
ATOM     26  F   UNL     1      -5.187   3.642  -0.643  0.00  0.00    -0.166 F 
ATOM     27  F   UNL     1      -4.819   1.562  -1.511  0.00  0.00    -0.166 F 
ENDBRANCH   7  24
BRANCH   1  28
ATOM     28  C   UNL     1      -2.566   3.383   1.491  0.00  0.00    +0.173 C 
ATOM     29  O   UNL     1      -2.316   2.216   1.708  0.00  0.00    -0.292 OA
BRANCH  28  33
ATOM     30  C   UNL     1      -3.827   5.900   4.655  0.00  0.00    +0.120 A 
ATOM     31  C   UNL     1      -3.490   4.576   4.915  0.00  0.00    +0.046 A 
ATOM     32  C   UNL     1      -3.081   3.757   3.894  0.00  0.00    +0.015 A 
ATOM     33  C   UNL     1      -3.003   4.256   2.588  0.00  0.00    +0.018 A 
ATOM     34  C   UNL     1      -3.339   5.591   2.333  0.00  0.00    +0.015 A 
ATOM     35  C   UNL     1      -3.752   6.401   3.359  0.00  0.00    +0.046 A 
BRANCH  30  37
ATOM     36  C   UNL     1      -4.563   8.055   5.332  0.00  0.00    +0.277 C 
ATOM     37  O   UNL     1      -4.232   6.707   5.668  0.00  0.00    -0.495 OA
ENDBRANCH  30  37
ENDBRANCH  28  33
ENDBRANCH   1  28
BRANCH   7  38
ATOM     38  O   UNL     1      -2.881   3.466  -2.238  0.00  0.00    -0.364 OA
ATOM     39  H   UNL     1      -3.179   2.864  -2.934  0.00  0.00    +0.212 HD
ENDBRANCH   7  38
TORSDOF 8
