REMARK  Name = ZINC09355135
REMARK  7 active torsions:
REMARK  status: ('A' for Active; 'I' for Inactive)
REMARK    1  A    between atoms: C_4  and  O_7
REMARK    2  A    between atoms: O_7  and  C_8
REMARK    3  A    between atoms: C_8  and  C_9
REMARK    4  A    between atoms: N_11  and  C_12
REMARK    5  A    between atoms: C_12  and  N_14
REMARK    6  A    between atoms: N_17  and  C_20
REMARK    7  A    between atoms: C_21  and  N_27
REMARK                            x       y       z     vdW  Elec       q    Type
REMARK                         _______ _______ _______ _____ _____    ______ ____
ROOT
ATOM      1  N   UNL     1       5.344   4.278   0.011  0.00  0.00    -0.309 N 
ATOM      2  C   UNL     1       5.069   3.611  -1.271  0.00  0.00    +0.125 C 
ATOM      3  C   UNL     1       3.667   2.994  -1.207  0.00  0.00    +0.124 C 
ATOM      4  N   UNL     1       3.569   2.131  -0.023  0.00  0.00    -0.324 N 
ATOM      5  C   UNL     1       3.731   2.904   1.216  0.00  0.00    +0.124 C 
ATOM      6  C   UNL     1       5.135   3.517   1.251  0.00  0.00    +0.125 C 
ENDROOT
BRANCH   4   7
ATOM      7  C   UNL     1       2.364   1.423  -0.018  0.00  0.00    +0.079 A 
ATOM      8  C   UNL     1       2.372   0.035  -0.025  0.00  0.00    +0.149 A 
ATOM      9  C   UNL     1       1.179  -0.662  -0.019  0.00  0.00    +0.035 A 
ATOM     10  C   UNL     1      -0.023   0.022  -0.007  0.00  0.00    +0.004 A 
ATOM     11  C   UNL     1      -0.036   1.405   0.000  0.00  0.00    +0.022 A 
ATOM     12  C   UNL     1       1.154   2.108  -0.005  0.00  0.00    +0.064 A 
ATOM     13 CL   UNL     1       1.138   3.844   0.003  0.00  0.00    -0.082 Cl
BRANCH   8  14
ATOM     14  N   UNL     1       3.657  -0.699  -0.038  0.00  0.00    +0.058 N 
ATOM     15  O   UNL     1       3.664  -1.917  -0.044  0.00  0.00    -0.126 OA
ATOM     16  O   UNL     1       4.709  -0.084  -0.043  0.00  0.00    -0.126 OA
ENDBRANCH   8  14
ENDBRANCH   4   7
BRANCH   1  17
ATOM     17  C   UNL     1       5.776   5.554   0.047  0.00  0.00    +0.139 C 
ATOM     18  S   UNL     1       6.135   6.379  -1.410  0.00  0.00    -0.018 S 
BRANCH  17  21
ATOM     19  C   UNL     1       6.255   7.488   1.264  0.00  0.00    +0.256 C 
ATOM     20  O   UNL     1       6.415   8.100   0.229  0.00  0.00    -0.272 OA
ATOM     21  N   UNL     1       5.926   6.182   1.231  0.00  0.00    -0.265 N 
ATOM     22  H   UNL     1       5.797   5.693   2.058  0.00  0.00    +0.157 HD
BRANCH  19  23
ATOM     23  C   UNL     1       6.422   8.190   2.587  0.00  0.00    +0.324 C 
BRANCH  23  24
ATOM     24  O   UNL     1       6.768   9.558   2.361  0.00  0.00    -0.483 OA
BRANCH  24  28
ATOM     25  C   UNL     1       7.340  11.921   5.694  0.00  0.00    +0.000 A 
ATOM     26  C   UNL     1       7.485  12.463   4.430  0.00  0.00    +0.004 A 
ATOM     27  C   UNL     1       7.294  11.674   3.312  0.00  0.00    +0.045 A 
ATOM     28  C   UNL     1       6.956  10.336   3.459  0.00  0.00    +0.121 A 
ATOM     29  C   UNL     1       6.806   9.796   4.728  0.00  0.00    +0.045 A 
ATOM     30  C   UNL     1       7.004  10.588   5.842  0.00  0.00    +0.004 A 
ENDBRANCH  24  28
ENDBRANCH  23  24
ENDBRANCH  19  23
ENDBRANCH  17  21
ENDBRANCH   1  17
TORSDOF 7
