REMARK  Name = ZINC39722456
REMARK  7 active torsions:
REMARK  status: ('A' for Active; 'I' for Inactive)
REMARK    1  A    between atoms: C_2  and  C_3
REMARK    2  A    between atoms: C_3  and  N_4
REMARK    3  A    between atoms: C_5  and  C_28
REMARK    4  A    between atoms: C_9  and  S_11
REMARK    5  A    between atoms: S_11  and  C_12
REMARK    6  A    between atoms: C_12  and  C_13
REMARK    7  A    between atoms: C_21  and  C_25
REMARK                            x       y       z     vdW  Elec       q    Type
REMARK                         _______ _______ _______ _____ _____    ______ ____
ROOT
ATOM      1  N   UNL     1      -1.482  -1.790  -0.976  0.00  0.00    -0.241 NA
ATOM      2  C   UNL     1      -2.787  -2.497  -0.988  0.00  0.00    +0.244 C 
ATOM      3  N   UNL     1      -2.531  -3.767  -0.296  0.00  0.00    -0.167 NA
ATOM      4  N   UNL     1      -1.320  -3.997  -0.218  0.00  0.00    -0.160 NA
ATOM      5  C   UNL     1      -0.534  -2.925  -0.844  0.00  0.00    +0.259 C 
ENDROOT
BRANCH   2   6
ATOM      6  C   UNL     1      -3.241  -2.753  -2.426  0.00  0.00    +0.252 C 
ATOM      7  C   UNL     1      -4.640  -3.385  -2.422  0.00  0.00    +0.277 C 
ATOM      8  O   UNL     1      -5.028  -3.624  -3.779  0.00  0.00    -0.485 OA
ATOM      9  C   UNL     1      -4.100  -4.208  -4.586  0.00  0.00    +0.162 A 
ATOM     10  C   UNL     1      -4.505  -4.793  -5.777  0.00  0.00    +0.049 A 
ATOM     11  C   UNL     1      -3.575  -5.387  -6.608  0.00  0.00    +0.004 A 
ATOM     12  C   UNL     1      -2.238  -5.400  -6.256  0.00  0.00    +0.004 A 
ATOM     13  C   UNL     1      -1.828  -4.821  -5.070  0.00  0.00    +0.049 A 
ATOM     14  C   UNL     1      -2.757  -4.225  -4.230  0.00  0.00    +0.163 A 
ATOM     15  O   UNL     1      -2.339  -3.665  -3.062  0.00  0.00    -0.478 OA
ENDBRANCH   2   6
BRANCH   1  16
ATOM     16  C   UNL     1      -1.383  -0.884   0.177  0.00  0.00    +0.116 C 
BRANCH  16  18
ATOM     17  C   UNL     1      -3.182   0.622   0.852  0.00  0.00    +0.005 C 
ATOM     18  C   UNL     1      -2.278   0.308  -0.043  0.00  0.00    -0.019 C 
ENDBRANCH  16  18
ENDBRANCH   1  16
BRANCH   5  19
ATOM     19  S   UNL     1       0.862  -2.463   0.219  0.00  0.00    -0.109 S 
BRANCH  19  20
ATOM     20  C   UNL     1       2.096  -3.755  -0.091  0.00  0.00    +0.146 C 
BRANCH  20  21
ATOM     21  C   UNL     1       3.368  -3.422   0.645  0.00  0.00    +0.120 A 
ATOM     22  N   UNL     1       4.420  -4.274   0.532  0.00  0.00    -0.310 N 
ATOM     23  H   UNL     1       4.336  -5.071  -0.014  0.00  0.00    +0.170 HD
ATOM     24  C   UNL     1       5.585  -4.020   1.173  0.00  0.00    +0.259 A 
ATOM     25  O   UNL     1       6.535  -4.774   1.081  0.00  0.00    -0.267 OA
ATOM     26  C   UNL     1       5.657  -2.794   1.988  0.00  0.00    +0.065 A 
ATOM     27  C   UNL     1       6.811  -2.444   2.686  0.00  0.00    +0.016 A 
ATOM     28  C   UNL     1       6.835  -1.298   3.429  0.00  0.00    +0.016 A 
ATOM     29  C   UNL     1       5.707  -0.469   3.497  0.00  0.00    +0.065 A 
ATOM     30  C   UNL     1       4.546  -0.801   2.808  0.00  0.00    +0.043 A 
ATOM     31  C   UNL     1       4.511  -1.970   2.045  0.00  0.00    +0.079 A 
ATOM     32  N   UNL     1       3.404  -2.333   1.351  0.00  0.00    -0.233 NA
BRANCH  29  33
ATOM     33  C   UNL     1       5.753   0.767   4.307  0.00  0.00    +0.387 C 
ATOM     34  O   UNL     1       6.771   1.062   4.915  0.00  0.00    -0.241 OA
ATOM     35  O   UNL     1       4.771   1.493   4.369  0.00  0.00    -0.241 OA
ENDBRANCH  29  33
ENDBRANCH  20  21
ENDBRANCH  19  20
ENDBRANCH   5  19
TORSDOF 7
