REMARK  Name = ZINC03408464
REMARK  13 active torsions:
REMARK  status: ('A' for Active; 'I' for Inactive)
REMARK    1  A    between atoms: C_1  and  O_2
REMARK    2  A    between atoms: O_2  and  C_3
REMARK    3  A    between atoms: C_6  and  C_9
REMARK    4  A    between atoms: C_12  and  S_14
REMARK    5  A    between atoms: S_14  and  C_15
REMARK    6  A    between atoms: C_15  and  C_16
REMARK    7  A    between atoms: C_17  and  C_26
REMARK    8  A    between atoms: C_18  and  N_25
REMARK    9  A    between atoms: C_20  and  C_21
REMARK   10  A    between atoms: C_21  and  O_23
REMARK   11  A    between atoms: O_23  and  C_24
REMARK   12  A    between atoms: C_26  and  O_28
REMARK   13  A    between atoms: O_28  and  C_29
REMARK                            x       y       z     vdW  Elec       q    Type
REMARK                         _______ _______ _______ _____ _____    ______ ____
ROOT
ATOM      1  C   UNL     1      -1.056  -0.873   0.013  0.00  0.00    -0.000 A 
ATOM      2  C   UNL     1      -0.774  -2.231  -0.003  0.00  0.00    +0.092 A 
ATOM      3  C   UNL     1       0.573  -2.616  -0.017  0.00  0.00    +0.078 A 
ATOM      4  S   UNL     1       1.410  -1.098  -0.017  0.00  0.00    -0.066 S 
ATOM      5  C   UNL     1       0.002  -0.004   0.002  0.00  0.00    +0.103 A 
ENDROOT
BRANCH   3   6
ATOM      6  N   UNL     1       1.101  -3.885  -0.029  0.00  0.00    -0.352 N 
ATOM      7  H   UNL     1       2.063  -4.010  -0.039  0.00  0.00    +0.143 HD
ATOM      8  H   UNL     1       0.512  -4.656  -0.028  0.00  0.00    +0.143 HD
ENDBRANCH   3   6
BRANCH   5   9
ATOM      9  C   UNL     1      -0.018   1.457   0.010  0.00  0.00    +0.346 C 
ATOM     10  O   UNL     1      -1.080   2.051   0.018  0.00  0.00    -0.244 OA
BRANCH   9  11
ATOM     11  O   UNL     1       1.142   2.148   0.003  0.00  0.00    -0.464 OA
ATOM     12  C   UNL     1       1.047   3.574   0.011  0.00  0.00    +0.280 C 
ENDBRANCH   9  11
ENDBRANCH   5   9
BRANCH   2  13
ATOM     13  C   UNL     1      -1.849  -3.228   0.002  0.00  0.00    +0.342 C 
ATOM     14  O   UNL     1      -2.284  -3.648   1.057  0.00  0.00    -0.245 OA
BRANCH  13  15
ATOM     15  O   UNL     1      -2.354  -3.681  -1.164  0.00  0.00    -0.464 OA
ATOM     16  C   UNL     1      -3.415  -4.668  -1.083  0.00  0.00    +0.280 C 
ENDBRANCH  13  15
ENDBRANCH   2  13
BRANCH   1  17
ATOM     17  C   UNL     1      -2.477  -0.372   0.037  0.00  0.00    +0.116 C 
BRANCH  17  18
ATOM     18  S   UNL     1      -3.071  -0.162  -1.659  0.00  0.00    -0.061 S 
BRANCH  18  22
ATOM     19  C   UNL     1      -6.729   1.128  -1.583  0.00  0.00    +0.249 A 
ATOM     20  N   UNL     1      -6.452   1.030  -0.306  0.00  0.00    -0.106 NA
ATOM     21  N   UNL     1      -5.248   0.600  -0.161  0.00  0.00    -0.101 NA
ATOM     22  C   UNL     1      -4.706   0.414  -1.342  0.00  0.00    +0.278 A 
ATOM     23  O   UNL     1      -5.630   0.740  -2.266  0.00  0.00    -0.411 OA
BRANCH  19  27
ATOM     24  C   UNL     1     -10.408   2.426  -3.265  0.00  0.00    +0.120 A 
ATOM     25  C   UNL     1     -10.258   2.372  -1.886  0.00  0.00    +0.046 A 
ATOM     26  C   UNL     1      -9.066   1.952  -1.336  0.00  0.00    +0.017 A 
ATOM     27  C   UNL     1      -8.009   1.579  -2.168  0.00  0.00    +0.039 A 
ATOM     28  C   UNL     1      -8.161   1.640  -3.555  0.00  0.00    +0.017 A 
ATOM     29  C   UNL     1      -9.358   2.056  -4.097  0.00  0.00    +0.046 A 
BRANCH  24  31
ATOM     30  C   UNL     1     -11.670   2.873  -5.230  0.00  0.00    +0.277 C 
ATOM     31  O   UNL     1     -11.584   2.841  -3.804  0.00  0.00    -0.495 OA
ENDBRANCH  24  31
ENDBRANCH  19  27
ENDBRANCH  18  22
ENDBRANCH  17  18
ENDBRANCH   1  17
TORSDOF 10
