REMARK  Name = ZINC14542541
REMARK  11 active torsions:
REMARK  status: ('A' for Active; 'I' for Inactive)
REMARK    1  A    between atoms: C_1  and  C_2
REMARK    2  A    between atoms: C_2  and  N_3
REMARK    3  A    between atoms: N_6  and  C_25
REMARK    4  A    between atoms: C_14  and  C_16
REMARK    5  A    between atoms: C_14  and  C_17
REMARK    6  A    between atoms: C_14  and  N_61
REMARK    7  A    between atoms: C_17  and  C_18
REMARK    8  A    between atoms: C_25  and  C_26
REMARK    9  A    between atoms: C_26  and  N_63
REMARK   10  A    between atoms: C_27  and  N_63
REMARK   11  A    between atoms: C_28  and  N_63
REMARK                            x       y       z     vdW  Elec       q    Type
REMARK                         _______ _______ _______ _____ _____    ______ ____
ROOT
ATOM      1  N   UNL     1       0.361   1.160   5.028  0.00  0.00    -0.271 N 
ATOM      2  C   UNL     1      -0.157   0.394   6.008  0.00  0.00    +0.312 C 
ATOM      3  O   UNL     1       0.498  -0.379   6.680  0.00  0.00    -0.252 OA
ATOM      4  N   UNL     1      -1.474   0.581   6.158  0.00  0.00    -0.226 N 
ATOM      5  C   UNL     1      -1.950   1.493   5.286  0.00  0.00    +0.247 C 
ATOM      6  O   UNL     1      -3.095   1.876   5.175  0.00  0.00    -0.273 OA
ATOM      7  C   UNL     1      -0.754   1.938   4.476  0.00  0.00    +0.112 C 
ATOM      8  C   UNL     1      -0.509   3.432   4.661  0.00  0.00    +0.017 C 
ATOM      9  C   UNL     1       0.689   3.858   3.809  0.00  0.00    -0.076 C 
ATOM     10  C   UNL     1       0.256   2.095   2.201  0.00  0.00    -0.076 C 
ATOM     11  C   UNL     1      -0.957   1.609   3.000  0.00  0.00    +0.017 C 
ATOM     12  N   UNL     1       0.400   3.555   2.391  0.00  0.00    +0.382 N 
ATOM     13  H   UNL     1      -0.480   4.013   2.126  0.00  0.00    -0.081 HD
ENDROOT
BRANCH   1  15
ATOM     14  C   UNL     1       2.619   1.795   5.721  0.00  0.00    +0.024 C 
ATOM     15  C   UNL     1       1.761   1.206   4.599  0.00  0.00    +0.107 C 
ENDBRANCH   1  15
BRANCH  12  16
ATOM     16  C   UNL     1       1.486   4.070   1.532  0.00  0.00    -0.067 C 
ATOM     17  C   UNL     1       1.548   5.592   1.674  0.00  0.00    -0.013 C 
BRANCH  16  18
ATOM     18  C   UNL     1       1.185   3.705   0.077  0.00  0.00    +0.022 C 
BRANCH  18  19
ATOM     19  C   UNL     1       2.306   4.191  -0.804  0.00  0.00    -0.014 A 
ATOM     20  C   UNL     1       3.370   3.357  -1.094  0.00  0.00    +0.006 A 
ATOM     21  C   UNL     1       4.398   3.803  -1.903  0.00  0.00    +0.000 A 
ATOM     22  C   UNL     1       4.365   5.084  -2.423  0.00  0.00    +0.003 A 
ATOM     23  C   UNL     1       3.303   5.920  -2.135  0.00  0.00    +0.038 A 
ATOM     24  C   UNL     1       2.272   5.474  -1.325  0.00  0.00    +0.126 A 
ATOM     25  F   UNL     1       1.232   6.290  -1.043  0.00  0.00    -0.205 F 
ENDBRANCH  18  19
ENDBRANCH  16  18
ENDBRANCH  12  16
BRANCH   4  26
ATOM     26  C   UNL     1      -2.296  -0.119   7.149  0.00  0.00    +0.099 C 
BRANCH  26  27
ATOM     27  C   UNL     1      -2.325   0.687   8.449  0.00  0.00    -0.060 C 
BRANCH  27  30
ATOM     28  C   UNL     1      -3.011   0.599  10.769  0.00  0.00    -0.097 C 
ATOM     29  C   UNL     1      -4.557  -0.053   9.024  0.00  0.00    -0.097 C 
ATOM     30  N   UNL     1      -3.140  -0.042   9.444  0.00  0.00    +0.377 N 
ATOM     31  H   UNL     1      -2.803  -1.009   9.507  0.00  0.00    -0.083 HD
ENDBRANCH  27  30
ENDBRANCH  26  27
ENDBRANCH   4  26
TORSDOF 7
