REMARK  Name = ZINC11855619
REMARK  9 active torsions:
REMARK  status: ('A' for Active; 'I' for Inactive)
REMARK    1  A    between atoms: C_1  and  C_2
REMARK    2  A    between atoms: C_5  and  O_8
REMARK    3  A    between atoms: O_8  and  C_9
REMARK    4  A    between atoms: C_9  and  C_10
REMARK    5  A    between atoms: N_12  and  C_13
REMARK    6  A    between atoms: C_15  and  C_29
REMARK    7  A    between atoms: C_24  and  C_26
REMARK    8  A    between atoms: C_26  and  C_27
REMARK    9  A    between atoms: C_26  and  C_28
REMARK                            x       y       z     vdW  Elec       q    Type
REMARK                         _______ _______ _______ _____ _____    ______ ____
ROOT
ATOM      1  C   UNL     1       0.002  -0.004   0.006  0.00  0.00    +0.132 A 
ATOM      2  C   UNL     1       1.103  -0.789  -0.112  0.00  0.00    +0.074 A 
ATOM      3  C   UNL     1       0.679  -2.135  -0.075  0.00  0.00    +0.102 A 
ATOM      4  N   UNL     1      -0.632  -2.150   0.051  0.00  0.00    -0.162 NA
ATOM      5  N   UNL     1      -1.085  -0.826   0.104  0.00  0.00    -0.185 N 
ATOM      6  C   UNL     1      -2.399  -0.421   0.233  0.00  0.00    +0.234 A 
ATOM      7  N   UNL     1      -3.369  -1.355   0.422  0.00  0.00    -0.291 N 
ATOM      8  H   UNL     1      -3.137  -2.296   0.465  0.00  0.00    +0.172 HD
ATOM      9  C   UNL     1      -4.656  -0.968   0.553  0.00  0.00    +0.253 A 
ATOM     10  O   UNL     1      -5.539  -1.792   0.727  0.00  0.00    -0.268 OA
ATOM     11  C   UNL     1      -4.959   0.405   0.481  0.00  0.00    +0.093 A 
ATOM     12  C   UNL     1      -3.944   1.294   0.286  0.00  0.00    +0.053 A 
ATOM     13  N   UNL     1      -2.690   0.860   0.167  0.00  0.00    -0.217 NA
ENDROOT
BRANCH   3  14
ATOM     14  C   UNL     1       1.555  -3.322  -0.168  0.00  0.00    +0.039 A 
ATOM     15  C   UNL     1       1.216  -4.648  -0.145  0.00  0.00    +0.018 A 
ATOM     16  C   UNL     1       2.216  -5.590  -0.248  0.00  0.00    +0.008 A 
ATOM     17  C   UNL     1       3.504  -5.176  -0.370  0.00  0.00    +0.046 A 
ATOM     18  S   UNL     1       3.330  -3.400  -0.348  0.00  0.00    -0.095 S 
ENDBRANCH   3  14
BRANCH   1  21
ATOM     19  C   UNL     1       1.142   2.078   0.035  0.00  0.00    +0.256 C 
ATOM     20  O   UNL     1       2.200   1.486   0.040  0.00  0.00    -0.272 OA
ATOM     21  N   UNL     1      -0.016   1.389   0.018  0.00  0.00    -0.267 N 
ATOM     22  H   UNL     1      -0.862   1.863   0.009  0.00  0.00    +0.156 HD
BRANCH  19  23
ATOM     23  C   UNL     1       1.122   3.585   0.048  0.00  0.00    +0.324 C 
BRANCH  23  24
ATOM     24  O   UNL     1       2.463   4.079   0.066  0.00  0.00    -0.483 OA
BRANCH  24  29
ATOM     25  C   UNL     1       3.127   9.672   0.121  0.00  0.00    +0.044 C 
ATOM     26  C   UNL     1       2.949   8.175   0.106  0.00  0.00    -0.050 A 
ATOM     27  C   UNL     1       4.057   7.349   0.110  0.00  0.00    +0.007 A 
ATOM     28  C   UNL     1       3.897   5.977   0.097  0.00  0.00    +0.046 A 
ATOM     29  C   UNL     1       2.623   5.428   0.079  0.00  0.00    +0.121 A 
ATOM     30  C   UNL     1       1.513   6.260   0.070  0.00  0.00    +0.046 A 
ATOM     31  C   UNL     1       1.678   7.631   0.089  0.00  0.00    +0.007 A 
ENDBRANCH  24  29
ENDBRANCH  23  24
ENDBRANCH  19  23
ENDBRANCH   1  21
BRANCH  12  32
ATOM     32  C   UNL     1      -4.240   2.769   0.204  0.00  0.00    +0.032 C 
ATOM     33  C   UNL     1      -3.487   3.503   1.316  0.00  0.00    +0.014 C 
ATOM     34  C   UNL     1      -3.790   3.305  -1.157  0.00  0.00    +0.014 C 
ENDBRANCH  12  32
TORSDOF 6
