REMARK  Name = ZINC12546570
REMARK  4 active torsions:
REMARK  status: ('A' for Active; 'I' for Inactive)
REMARK    1  A    between atoms: C_3  and  C_20
REMARK    2  A    between atoms: C_6  and  C_7
REMARK    3  A    between atoms: C_10  and  C_18
REMARK    4  A    between atoms: C_11  and  C_16
REMARK                            x       y       z     vdW  Elec       q    Type
REMARK                         _______ _______ _______ _____ _____    ______ ____
ROOT
ATOM      1  C   UNL     1       2.421   3.937  -0.000  0.00  0.00    +0.066 A 
ATOM      2  C   UNL     1       2.539   5.277   0.006  0.00  0.00    +0.121 A 
ATOM      3  N   UNL     1       3.881   5.593  -0.005  0.00  0.00    -0.274 N 
ATOM      4  C   UNL     1       4.786   6.636  -0.008  0.00  0.00    +0.163 A 
ATOM      5  C   UNL     1       6.053   6.051  -0.023  0.00  0.00    +0.178 A 
ATOM      6  N   UNL     1       5.883   4.721  -0.028  0.00  0.00    -0.200 NA
ATOM      7  C   UNL     1       4.595   4.436  -0.018  0.00  0.00    +0.215 A 
ATOM      8  N   UNL     1       3.699   3.395  -0.010  0.00  0.00    -0.324 N 
ATOM      9  H   UNL     1       3.833   2.303  -0.010  0.00  0.00    +0.169 HD
ENDROOT
BRANCH   1  15
ATOM     10  C   UNL     1       1.174   1.780   0.000  0.00  0.00    +0.010 A 
ATOM     11  C   UNL     1      -0.013   1.076   0.008  0.00  0.00    +0.004 A 
ATOM     12  C   UNL     1      -1.221   1.750   0.017  0.00  0.00    -0.044 A 
ATOM     13  C   UNL     1      -1.248   3.133   0.031  0.00  0.00    +0.004 A 
ATOM     14  C   UNL     1      -0.069   3.849   0.023  0.00  0.00    +0.010 A 
ATOM     15  C   UNL     1       1.153   3.175   0.008  0.00  0.00    -0.000 A 
BRANCH  12  16
ATOM     16  C   UNL     1      -2.513   0.974   0.019  0.00  0.00    +0.019 C 
ATOM     17  C   UNL     1      -3.327   1.336  -1.224  0.00  0.00    +0.008 C 
ATOM     18  C   UNL     1      -4.639   0.549  -1.222  0.00  0.00    +0.001 C 
ATOM     19  C   UNL     1      -5.441   0.897   0.033  0.00  0.00    +0.000 C 
ATOM     20  C   UNL     1      -4.627   0.535   1.276  0.00  0.00    +0.001 C 
ATOM     21  C   UNL     1      -3.315   1.323   1.274  0.00  0.00    +0.008 C 
ENDBRANCH  12  16
ENDBRANCH   1  15
BRANCH   5  22
ATOM     22  C   UNL     1       7.305   6.745  -0.031  0.00  0.00    +0.122 C 
ATOM     23  N   UNL     1       8.299   7.295  -0.037  0.00  0.00    -0.189 NA
ENDBRANCH   5  22
BRANCH   4  24
ATOM     24  C   UNL     1       4.486   8.036   0.003  0.00  0.00    +0.121 C 
ATOM     25  N   UNL     1       4.247   9.147   0.011  0.00  0.00    -0.189 NA
ENDBRANCH   4  24
TORSDOF 4
