REMARK  Name = ZINC05598884
REMARK  7 active torsions:
REMARK  status: ('A' for Active; 'I' for Inactive)
REMARK    1  A    between atoms: C_4  and  C_7
REMARK    2  A    between atoms: C_7  and  S_8
REMARK    3  A    between atoms: S_8  and  N_11
REMARK    4  A    between atoms: N_11  and  C_12
REMARK    5  A    between atoms: C_17  and  N_18
REMARK    6  A    between atoms: C_19  and  C_20
REMARK    7  A    between atoms: C_22  and  N_26
REMARK                            x       y       z     vdW  Elec       q    Type
REMARK                         _______ _______ _______ _____ _____    ______ ____
ROOT
ATOM      1  C   UNL     1       2.424   1.927  -1.072  0.00  0.00    +0.073 A 
ATOM      2  C   UNL     1       1.946   1.931  -2.373  0.00  0.00    +0.026 A 
ATOM      3  C   UNL     1       2.745   1.481  -3.407  0.00  0.00    +0.002 A 
ATOM      4  C   UNL     1       4.023   1.013  -3.151  0.00  0.00    +0.002 A 
ATOM      5  C   UNL     1       4.513   0.997  -1.862  0.00  0.00    +0.029 A 
ATOM      6  C   UNL     1       3.719   1.454  -0.809  0.00  0.00    +0.086 A 
ENDROOT
BRANCH   1   7
ATOM      7  N   UNL     1       1.620   2.385  -0.028  0.00  0.00    -0.218 N 
ATOM      8  H   UNL     1       2.018   2.862   0.717  0.00  0.00    +0.173 HD
BRANCH   7   9
ATOM      9  S   UNL     1      -0.013   2.116  -0.061  0.00  0.00    +0.047 S 
ATOM     10  O   UNL     1      -0.448   2.676  -1.292  0.00  0.00    -0.155 OA
ATOM     11  O   UNL     1      -0.490   2.626   1.176  0.00  0.00    -0.155 OA
BRANCH   9  12
ATOM     12  C   UNL     1      -0.187   0.310  -0.101  0.00  0.00    +0.223 C 
BRANCH  12  16
ATOM     13  C   UNL     1      -4.331  -0.720  -0.192  0.00  0.00    +0.000 A 
ATOM     14  C   UNL     1      -3.640  -0.529  -1.374  0.00  0.00    +0.000 A 
ATOM     15  C   UNL     1      -2.299  -0.195  -1.344  0.00  0.00    +0.005 A 
ATOM     16  C   UNL     1      -1.649  -0.053  -0.133  0.00  0.00    -0.025 A 
ATOM     17  C   UNL     1      -2.338  -0.250   1.049  0.00  0.00    +0.005 A 
ATOM     18  C   UNL     1      -3.681  -0.578   1.020  0.00  0.00    +0.000 A 
ENDBRANCH  12  16
ENDBRANCH   9  12
ENDBRANCH   7   9
ENDBRANCH   1   7
BRANCH   6  19
ATOM     19  N   UNL     1       4.199   1.440   0.472  0.00  0.00    -0.253 NA
ATOM     20  C   UNL     1       5.383   1.921   0.729  0.00  0.00    +0.123 C 
BRANCH  20  21
ATOM     21  C   UNL     1       5.858   2.000   2.119  0.00  0.00    +0.042 A 
ATOM     22  C   UNL     1       7.130   2.510   2.399  0.00  0.00    +0.046 A 
ATOM     23  C   UNL     1       7.567   2.584   3.704  0.00  0.00    +0.127 A 
ATOM     24  C   UNL     1       6.757   2.147   4.739  0.00  0.00    +0.036 A 
ATOM     25  C   UNL     1       5.501   1.636   4.476  0.00  0.00    +0.054 A 
ATOM     26  C   UNL     1       5.042   1.557   3.170  0.00  0.00    +0.188 A 
ATOM     27  O   UNL     1       3.808   1.055   2.910  0.00  0.00    -0.287 OA
BRANCH  23  28
ATOM     28  N   UNL     1       8.911   3.129   4.000  0.00  0.00    +0.056 N 
ATOM     29  O   UNL     1       9.302   3.192   5.152  0.00  0.00    -0.126 OA
ATOM     30  O   UNL     1       9.626   3.515   3.093  0.00  0.00    -0.126 OA
ENDBRANCH  23  28
ENDBRANCH  20  21
ENDBRANCH   6  19
TORSDOF 7
