REMARK  Name = ZINC37178412
REMARK  6 active torsions:
REMARK  status: ('A' for Active; 'I' for Inactive)
REMARK    1  A    between atoms: C_1  and  C_2
REMARK    2  A    between atoms: C_2  and  C_4
REMARK    3  A    between atoms: C_2  and  N_11
REMARK    4  A    between atoms: C_8  and  N_10
REMARK    5  A    between atoms: N_11  and  S_12
REMARK    6  A    between atoms: S_12  and  C_15
REMARK                            x       y       z     vdW  Elec       q    Type
REMARK                         _______ _______ _______ _____ _____    ______ ____
ROOT
ATOM      1  N   UNL     1       0.736  -0.475   1.348  0.00  0.00    -0.183 NA
ATOM      2  H   UNL     1       0.323  -0.629   2.212  0.00  0.00    +0.149 HD
ENDROOT
BRANCH   1   3
ATOM      3  S   UNL     1       2.288  -0.978   1.069  0.00  0.00    +0.060 S 
ATOM      4  O   UNL     1       2.754  -1.549   2.284  0.00  0.00    -0.153 OA
ATOM      5  O   UNL     1       2.268  -1.702  -0.154  0.00  0.00    -0.153 OA
BRANCH   3   6
ATOM      6  C   UNL     1       3.260   0.464   0.785  0.00  0.00    +0.120 A 
ATOM      7  C   UNL     1       3.854   0.665  -0.447  0.00  0.00    +0.045 A 
ATOM      8  C   UNL     1       4.617   1.797  -0.671  0.00  0.00    +0.020 A 
ATOM      9  C   UNL     1       4.786   2.727   0.339  0.00  0.00    +0.016 A 
ATOM     10  C   UNL     1       4.192   2.527   1.570  0.00  0.00    +0.018 A 
ATOM     11  C   UNL     1       3.424   1.397   1.792  0.00  0.00    +0.044 A 
ATOM     12 BR   UNL     1       2.605   1.126   3.475  0.00  0.00    -0.048 Br
ATOM     13 BR   UNL     1       5.430   2.071  -2.356  0.00  0.00    -0.050 Br
ENDBRANCH   3   6
ENDBRANCH   1   3
BRANCH   1  15
ATOM     14  C   UNL     1      -0.532   1.547   0.810  0.00  0.00    +0.031 C 
ATOM     15  C   UNL     1      -0.015   0.204   0.289  0.00  0.00    +0.103 C 
BRANCH  15  16
ATOM     16  C   UNL     1      -1.181  -0.654  -0.130  0.00  0.00    -0.027 A 
ATOM     17  C   UNL     1      -1.913  -1.339   0.824  0.00  0.00    +0.005 A 
ATOM     18  C   UNL     1      -2.983  -2.127   0.444  0.00  0.00    +0.002 A 
ATOM     19  C   UNL     1      -3.325  -2.234  -0.890  0.00  0.00    +0.023 A 
ATOM     20  C   UNL     1      -2.593  -1.548  -1.850  0.00  0.00    +0.025 A 
ATOM     21  C   UNL     1      -1.522  -0.752  -1.464  0.00  0.00    +0.028 A 
BRANCH  20  22
ATOM     22  N   UNL     1      -2.937  -1.653  -3.200  0.00  0.00    -0.358 N 
ATOM     23  H   UNL     1      -3.687  -2.206  -3.467  0.00  0.00    +0.142 HD
ATOM     24  H   UNL     1      -2.425  -1.173  -3.869  0.00  0.00    +0.142 HD
ENDBRANCH  20  22
ENDBRANCH  15  16
ENDBRANCH   1  15
TORSDOF 5
