REMARK  Name = ZINC09362817
REMARK  11 active torsions:
REMARK  status: ('A' for Active; 'I' for Inactive)
REMARK    1  A    between atoms: C_1  and  C_2
REMARK    2  A    between atoms: C_2  and  C_4
REMARK    3  A    between atoms: C_2  and  N_14
REMARK    4  A    between atoms: C_7  and  C_10
REMARK    5  A    between atoms: C_10  and  C_11
REMARK    6  A    between atoms: C_11  and  C_12
REMARK    7  A    between atoms: C_11  and  C_13
REMARK    8  A    between atoms: C_15  and  C_17
REMARK    9  A    between atoms: C_17  and  N_18
REMARK   10  A    between atoms: C_21  and  C_25
REMARK   11  A    between atoms: C_21  and  C_26
REMARK                            x       y       z     vdW  Elec       q    Type
REMARK                         _______ _______ _______ _____ _____    ______ ____
ROOT
ATOM      1  N   UNL     1      -3.929  -1.240   2.572  0.00  0.00    -0.215 N 
ATOM      2  C   UNL     1      -3.791  -2.314   3.375  0.00  0.00    +0.251 C 
ATOM      3  O   UNL     1      -3.260  -3.369   3.102  0.00  0.00    -0.272 OA
ATOM      4  C   UNL     1      -4.436  -1.927   4.691  0.00  0.00    +0.135 C 
ATOM      5  N   UNL     1      -4.907  -0.551   4.455  0.00  0.00    -0.281 N 
ATOM      6  C   UNL     1      -4.561  -0.238   3.193  0.00  0.00    +0.310 C 
ATOM      7  O   UNL     1      -4.799   0.835   2.674  0.00  0.00    -0.252 OA
ATOM      8  C   UNL     1      -5.612  -2.852   5.006  0.00  0.00    +0.047 C 
ATOM      9  H   UNL     1      -5.373   0.018   5.086  0.00  0.00    +0.152 HD
ENDROOT
BRANCH   4  10
ATOM     10  C   UNL     1      -3.423  -1.956   5.806  0.00  0.00    -0.012 A 
ATOM     11  C   UNL     1      -2.354  -2.831   5.745  0.00  0.00    +0.010 A 
ATOM     12  C   UNL     1      -1.422  -2.861   6.765  0.00  0.00    +0.050 A 
ATOM     13  C   UNL     1      -1.557  -2.014   7.853  0.00  0.00    +0.166 A 
ATOM     14  C   UNL     1      -2.634  -1.133   7.915  0.00  0.00    +0.167 A 
ATOM     15  C   UNL     1      -3.561  -1.104   6.886  0.00  0.00    +0.055 A 
ATOM     16  O   UNL     1      -2.544  -0.414   9.073  0.00  0.00    -0.453 OA
ATOM     17  C   UNL     1      -1.631  -1.148   9.910  0.00  0.00    +0.466 C 
ATOM     18  O   UNL     1      -0.793  -1.848   8.972  0.00  0.00    -0.453 OA
ENDBRANCH   4  10
BRANCH   1  19
ATOM     19  C   UNL     1      -3.442  -1.177   1.191  0.00  0.00    +0.213 C 
BRANCH  19  21
ATOM     20  N   UNL     1      -1.372  -0.511   0.012  0.00  0.00    -0.307 N 
ATOM     21  C   UNL     1      -2.029  -0.655   1.181  0.00  0.00    +0.231 C 
ATOM     22  O   UNL     1      -1.481  -0.365   2.224  0.00  0.00    -0.274 OA
ATOM     23  H   UNL     1      -1.810  -0.743  -0.822  0.00  0.00    +0.149 HD
BRANCH  20  25
ATOM     24  C   UNL     1      -0.019   1.526   0.010  0.00  0.00    +0.033 C 
ATOM     25  C   UNL     1       0.002  -0.004   0.002  0.00  0.00    +0.100 C 
BRANCH  25  26
ATOM     26  C   UNL     1       0.707  -0.490  -1.238  0.00  0.00    -0.027 A 
ATOM     27  C   UNL     1       0.038  -0.522  -2.447  0.00  0.00    +0.006 A 
ATOM     28  C   UNL     1       0.685  -0.967  -3.584  0.00  0.00    +0.004 A 
ATOM     29  C   UNL     1       2.002  -1.381  -3.513  0.00  0.00    -0.047 A 
ATOM     30  C   UNL     1       2.672  -1.349  -2.304  0.00  0.00    +0.004 A 
ATOM     31  C   UNL     1       2.026  -0.899  -1.167  0.00  0.00    +0.006 A 
BRANCH  29  32
ATOM     32  C   UNL     1       2.707  -1.868  -4.752  0.00  0.00    +0.038 C 
BRANCH  32  33
ATOM     33  C   UNL     1       3.383  -0.687  -5.451  0.00  0.00    -0.013 C 
ATOM     34  C   UNL     1       4.487  -0.126  -4.552  0.00  0.00    +0.007 C 
ATOM     35  C   UNL     1       3.993  -1.158  -6.773  0.00  0.00    +0.007 C 
ENDBRANCH  32  33
ENDBRANCH  29  32
ENDBRANCH  25  26
ENDBRANCH  20  25
ENDBRANCH  19  21
ENDBRANCH   1  19
TORSDOF 7
