REMARK  Name = ZINC34851933
REMARK  7 active torsions:
REMARK  status: ('A' for Active; 'I' for Inactive)
REMARK    1  A    between atoms: C_4  and  C_7
REMARK    2  A    between atoms: C_7  and  C_8
REMARK    3  A    between atoms: C_7  and  N_14
REMARK    4  A    between atoms: C_15  and  C_17
REMARK    5  A    between atoms: C_17  and  N_18
REMARK    6  A    between atoms: N_21  and  C_24
REMARK    7  A    between atoms: C_27  and  N_30
REMARK                            x       y       z     vdW  Elec       q    Type
REMARK                         _______ _______ _______ _____ _____    ______ ____
ROOT
ATOM      1  N   UNL     1       3.632  -1.839  -0.924  0.00  0.00    -0.303 N 
ATOM      2  C   UNL     1       4.738  -2.354  -1.498  0.00  0.00    +0.228 C 
ATOM      3  O   UNL     1       5.823  -1.864  -1.271  0.00  0.00    -0.274 OA
ATOM      4  H   UNL     1       2.764  -2.231  -1.106  0.00  0.00    +0.150 HD
ENDROOT
BRANCH   1   5
ATOM      5  C   UNL     1       3.742  -0.688  -0.025  0.00  0.00    +0.134 C 
BRANCH   5   9
ATOM      6  C   UNL     1       0.037   1.437   0.027  0.00  0.00    +0.000 A 
ATOM      7  C   UNL     1       1.232   2.131   0.026  0.00  0.00    +0.000 A 
ATOM      8  C   UNL     1       2.431   1.444   0.009  0.00  0.00    +0.006 A 
ATOM      9  C   UNL     1       2.435   0.061  -0.006  0.00  0.00    -0.023 A 
ATOM     10  C   UNL     1       1.240  -0.633  -0.004  0.00  0.00    +0.006 A 
ATOM     11  C   UNL     1       0.041   0.054   0.011  0.00  0.00    +0.000 A 
ENDBRANCH   5   9
BRANCH   5  12
ATOM     12  C   UNL     1       4.067  -1.167   1.367  0.00  0.00    -0.023 A 
ATOM     13  C   UNL     1       3.466  -2.308   1.863  0.00  0.00    +0.006 A 
ATOM     14  C   UNL     1       3.763  -2.748   3.139  0.00  0.00    +0.000 A 
ATOM     15  C   UNL     1       4.663  -2.046   3.920  0.00  0.00    +0.000 A 
ATOM     16  C   UNL     1       5.265  -0.905   3.423  0.00  0.00    +0.000 A 
ATOM     17  C   UNL     1       4.971  -0.468   2.145  0.00  0.00    +0.006 A 
ENDBRANCH   5  12
ENDBRANCH   1   5
BRANCH   2  18
ATOM     18  C   UNL     1       4.624  -3.538  -2.424  0.00  0.00    +0.180 C 
BRANCH  18  19
ATOM     19  N   UNL     1       5.959  -3.905  -2.915  0.00  0.00    -0.291 NA
ATOM     20  C   UNL     1       6.519  -2.843  -3.762  0.00  0.00    +0.104 C 
ATOM     21  C   UNL     1       7.974  -3.180  -4.104  0.00  0.00    +0.120 C 
ATOM     22  N   UNL     1       8.016  -4.529  -4.689  0.00  0.00    -0.327 N 
ATOM     23  C   UNL     1       7.354  -5.624  -3.962  0.00  0.00    +0.120 C 
ATOM     24  C   UNL     1       5.924  -5.190  -3.626  0.00  0.00    +0.104 C 
BRANCH  22  25
ATOM     25  C   UNL     1       8.666  -4.764  -5.902  0.00  0.00    +0.030 A 
ATOM     26  C   UNL     1       9.187  -3.702  -6.630  0.00  0.00    +0.025 A 
ATOM     27  C   UNL     1       9.829  -3.938  -7.830  0.00  0.00    +0.034 A 
ATOM     28  C   UNL     1       9.954  -5.230  -8.306  0.00  0.00    +0.126 A 
ATOM     29  C   UNL     1       9.437  -6.290  -7.584  0.00  0.00    +0.034 A 
ATOM     30  C   UNL     1       8.798  -6.061  -6.381  0.00  0.00    +0.025 A 
BRANCH  28  31
ATOM     31  N   UNL     1      10.643  -5.479  -9.592  0.00  0.00    +0.056 N 
ATOM     32  O   UNL     1      11.095  -4.554 -10.225  0.00  0.00    -0.126 OA
ATOM     33  O   UNL     1      10.753  -6.609 -10.010  0.00  0.00    -0.126 OA
ENDBRANCH  28  31
ENDBRANCH  22  25
ENDBRANCH  18  19
ENDBRANCH   2  18
TORSDOF 7
