REMARK  Name = ZINC39699883
REMARK  8 active torsions:
REMARK  status: ('A' for Active; 'I' for Inactive)
REMARK    1  A    between atoms: C_1  and  C_2
REMARK    2  A    between atoms: C_4  and  S_9
REMARK    3  A    between atoms: C_5  and  C_8
REMARK    4  A    between atoms: S_9  and  C_10
REMARK    5  A    between atoms: C_15  and  N_16
REMARK    6  A    between atoms: C_17  and  C_18
REMARK    7  A    between atoms: C_20  and  N_28
REMARK    8  A    between atoms: C_22  and  N_25
REMARK                            x       y       z     vdW  Elec       q    Type
REMARK                         _______ _______ _______ _____ _____    ______ ____
ROOT
ATOM      1  N   UNL     1      -5.391  -1.002  -2.374  0.00  0.00    -0.254 NA
ATOM      2  C   UNL     1      -5.870  -1.674  -3.383  0.00  0.00    +0.123 C 
ENDROOT
BRANCH   2   3
ATOM      3  C   UNL     1      -5.951  -1.049  -4.711  0.00  0.00    +0.044 A 
ATOM      4  C   UNL     1      -6.470  -1.764  -5.795  0.00  0.00    +0.046 A 
ATOM      5  C   UNL     1      -6.543  -1.171  -7.037  0.00  0.00    +0.129 A 
ATOM      6  C   UNL     1      -6.104   0.130  -7.218  0.00  0.00    +0.069 A 
ATOM      7  C   UNL     1      -5.588   0.848  -6.156  0.00  0.00    +0.175 A 
ATOM      8  C   UNL     1      -5.513   0.271  -4.898  0.00  0.00    +0.218 A 
ATOM      9  O   UNL     1      -5.012   0.978  -3.853  0.00  0.00    -0.285 OA
BRANCH   7  10
ATOM     10  N   UNL     1      -5.122   2.238  -6.360  0.00  0.00    +0.060 N 
ATOM     11  O   UNL     1      -5.192   2.744  -7.456  0.00  0.00    -0.126 OA
ATOM     12  O   UNL     1      -4.671   2.867  -5.432  0.00  0.00    -0.126 OA
ENDBRANCH   7  10
BRANCH   5  13
ATOM     13  N   UNL     1      -7.092  -1.929  -8.184  0.00  0.00    +0.057 N 
ATOM     14  O   UNL     1      -7.476  -3.065  -8.030  0.00  0.00    -0.126 OA
ATOM     15  O   UNL     1      -7.157  -1.412  -9.275  0.00  0.00    -0.126 OA
ENDBRANCH   5  13
ENDBRANCH   2   3
BRANCH   1  21
ATOM     16  C   UNL     1      -4.018  -1.487  -0.464  0.00  0.00    +0.038 A 
ATOM     17  C   UNL     1      -3.868  -2.105   0.769  0.00  0.00    +0.017 A 
ATOM     18  C   UNL     1      -4.905  -2.845   1.304  0.00  0.00    +0.001 A 
ATOM     19  C   UNL     1      -6.100  -2.974   0.616  0.00  0.00    +0.002 A 
ATOM     20  C   UNL     1      -6.267  -2.366  -0.611  0.00  0.00    +0.029 A 
ATOM     21  C   UNL     1      -5.229  -1.611  -1.161  0.00  0.00    +0.078 A 
BRANCH  16  22
ATOM     22  S   UNL     1      -2.696  -0.543  -1.147  0.00  0.00    -0.088 S 
BRANCH  22  25
ATOM     23  C   UNL     1       0.083  -2.609  -1.010  0.00  0.00    +0.040 C 
ATOM     24  C   UNL     1      -0.612  -2.098   0.254  0.00  0.00    +0.163 C 
ATOM     25  C   UNL     1      -1.361  -0.806  -0.029  0.00  0.00    +0.039 C 
ATOM     26  C   UNL     1      -0.757   0.094   0.784  0.00  0.00    +0.072 C 
ATOM     27  N   UNL     1       0.219  -0.485   1.485  0.00  0.00    -0.158 NA
ATOM     28  N   UNL     1       0.377  -1.692   1.266  0.00  0.00    -0.179 NA
ATOM     29  C   UNL     1      -1.136   1.550   0.881  0.00  0.00    +0.068 C 
ENDBRANCH  22  25
ENDBRANCH  16  22
ENDBRANCH   1  21
TORSDOF 6
