REMARK  Name = ZINC40650323
REMARK  9 active torsions:
REMARK  status: ('A' for Active; 'I' for Inactive)
REMARK    1  A    between atoms: C_1  and  C_2
REMARK    2  A    between atoms: C_5  and  S_8
REMARK    3  A    between atoms: S_8  and  C_9
REMARK    4  A    between atoms: C_10  and  N_27
REMARK    5  A    between atoms: C_11  and  N_15
REMARK    6  A    between atoms: N_15  and  N_16
REMARK    7  A    between atoms: N_16  and  S_17
REMARK    8  A    between atoms: S_17  and  C_20
REMARK    9  A    between atoms: C_23  and  C_26
REMARK                            x       y       z     vdW  Elec       q    Type
REMARK                         _______ _______ _______ _____ _____    ______ ____
ROOT
ATOM      1  C   UNL     1       0.227  -4.966   1.677  0.00  0.00    +0.137 A 
ATOM      2  C   UNL     1       0.391  -6.296   2.054  0.00  0.00    +0.199 A 
ATOM      3  C   UNL     1       0.516  -6.586   3.409  0.00  0.00    +0.168 A 
ATOM      4  N   UNL     1       0.475  -5.588   4.290  0.00  0.00    -0.217 NA
ATOM      5  C   UNL     1       0.318  -4.341   3.894  0.00  0.00    +0.224 A 
ATOM      6  N   UNL     1       0.201  -4.025   2.620  0.00  0.00    -0.226 NA
ENDROOT
BRANCH   2   7
ATOM      7  N   UNL     1       0.431  -7.374   1.040  0.00  0.00    +0.063 N 
ATOM      8  O   UNL     1       1.486  -7.707   0.553  0.00  0.00    -0.126 OA
ATOM      9  O   UNL     1      -0.592  -7.921   0.699  0.00  0.00    -0.126 OA
ENDBRANCH   2   7
BRANCH   3  10
ATOM     10  N   UNL     1       0.681  -7.895   3.836  0.00  0.00    -0.244 N 
ATOM     11  H   UNL     1       0.710  -8.616   3.188  0.00  0.00    +0.169 HD
BRANCH  10  12
ATOM     12  N   UNL     1       0.806  -8.175   5.203  0.00  0.00    -0.109 NA
ATOM     13  H   UNL     1       1.491  -7.732   5.728  0.00  0.00    +0.172 HD
BRANCH  12  14
ATOM     14  S   UNL     1      -0.215  -9.263   5.922  0.00  0.00    +0.074 S 
ATOM     15  O   UNL     1       0.249  -9.437   7.254  0.00  0.00    -0.152 OA
ATOM     16  O   UNL     1      -1.537  -8.835   5.626  0.00  0.00    -0.152 OA
BRANCH  14  17
ATOM     17  C   UNL     1       0.010 -10.807   5.104  0.00  0.00    +0.107 A 
ATOM     18  C   UNL     1      -0.757 -11.122   3.998  0.00  0.00    +0.029 A 
ATOM     19  C   UNL     1      -0.581 -12.334   3.357  0.00  0.00    +0.005 A 
ATOM     20  C   UNL     1       0.362 -13.231   3.821  0.00  0.00    -0.050 A 
ATOM     21  C   UNL     1       1.130 -12.916   4.927  0.00  0.00    +0.005 A 
ATOM     22  C   UNL     1       0.957 -11.702   5.566  0.00  0.00    +0.029 A 
ATOM     23  C   UNL     1       0.554 -14.552   3.123  0.00  0.00    +0.044 C 
ENDBRANCH  14  17
ENDBRANCH  12  14
ENDBRANCH  10  12
ENDBRANCH   3  10
BRANCH   1  24
ATOM     24  S   UNL     1       0.063  -4.533  -0.023  0.00  0.00    -0.068 S 
BRANCH  24  29
ATOM     25  C   UNL     1      -0.036   1.502   0.010  0.00  0.00    +0.044 C 
ATOM     26  C   UNL     1      -0.011  -0.004   0.002  0.00  0.00    -0.050 A 
ATOM     27  C   UNL     1       1.199  -0.674  -0.007  0.00  0.00    +0.004 A 
ATOM     28  C   UNL     1       1.225  -2.055  -0.015  0.00  0.00    +0.015 A 
ATOM     29  C   UNL     1       0.035  -2.771  -0.013  0.00  0.00    +0.014 A 
ATOM     30  C   UNL     1      -1.179  -2.095  -0.003  0.00  0.00    +0.015 A 
ATOM     31  C   UNL     1      -1.198  -0.714   0.009  0.00  0.00    +0.004 A 
ENDBRANCH  24  29
ENDBRANCH   1  24
TORSDOF 7
