REMARK  Name = ZINC05118523
REMARK  5 active torsions:
REMARK  status: ('A' for Active; 'I' for Inactive)
REMARK    1  A    between atoms: C_6  and  N_7
REMARK    2  A    between atoms: C_8  and  C_10
REMARK    3  A    between atoms: C_10  and  O_11
REMARK    4  A    between atoms: O_11  and  C_12
REMARK    5  A    between atoms: C_15  and  N_19
REMARK                            x       y       z     vdW  Elec       q    Type
REMARK                         _______ _______ _______ _____ _____    ______ ____
ROOT
ATOM      1  N   UNL     1       3.621  -0.663  -0.045  0.00  0.00    -0.283 N 
ATOM      2  C   UNL     1       3.639  -2.008   0.048  0.00  0.00    +0.255 C 
ATOM      3  O   UNL     1       2.597  -2.629   0.058  0.00  0.00    -0.272 OA
ATOM      4  H   UNL     1       4.454  -0.172  -0.130  0.00  0.00    +0.155 HD
ENDROOT
BRANCH   1  10
ATOM      5  C   UNL     1       1.346  -0.460   0.740  0.00  0.00    +0.027 A 
ATOM      6  C   UNL     1       0.142   0.217   0.764  0.00  0.00    +0.051 A 
ATOM      7  C   UNL     1      -0.016   1.383   0.030  0.00  0.00    +0.162 A 
ATOM      8  C   UNL     1       1.040   1.873  -0.731  0.00  0.00    +0.164 A 
ATOM      9  C   UNL     1       2.247   1.192  -0.756  0.00  0.00    +0.072 A 
ATOM     10  C   UNL     1       2.401   0.025  -0.021  0.00  0.00    +0.037 A 
ATOM     11  O   UNL     1       0.907   3.020  -1.451  0.00  0.00    -0.485 OA
ATOM     12  C   UNL     1      -0.429   3.473  -1.700  0.00  0.00    +0.270 C 
ATOM     13  C   UNL     1      -1.215   3.395  -0.384  0.00  0.00    +0.270 C 
ATOM     14  O   UNL     1      -1.213   2.033   0.059  0.00  0.00    -0.485 OA
ENDBRANCH   1  10
BRANCH   2  15
ATOM     15  C   UNL     1       4.953  -2.740   0.141  0.00  0.00    +0.325 C 
BRANCH  15  16
ATOM     16  O   UNL     1       4.710  -4.145   0.231  0.00  0.00    -0.481 OA
BRANCH  16  17
ATOM     17  C   UNL     1       5.798  -4.955   0.322  0.00  0.00    +0.140 A 
ATOM     18  C   UNL     1       7.073  -4.408   0.325  0.00  0.00    +0.049 A 
ATOM     19  C   UNL     1       8.177  -5.232   0.418  0.00  0.00    +0.036 A 
ATOM     20  C   UNL     1       8.013  -6.602   0.508  0.00  0.00    +0.128 A 
ATOM     21  C   UNL     1       6.744  -7.151   0.505  0.00  0.00    +0.056 A 
ATOM     22  C   UNL     1       5.636  -6.330   0.418  0.00  0.00    +0.085 A 
ATOM     23 CL   UNL     1       4.042  -7.018   0.421  0.00  0.00    -0.080 Cl
BRANCH  20  24
ATOM     24  N   UNL     1       9.199  -7.483   0.608  0.00  0.00    +0.056 N 
ATOM     25  O   UNL     1      10.317  -7.001   0.611  0.00  0.00    -0.126 OA
ATOM     26  O   UNL     1       9.056  -8.690   0.688  0.00  0.00    -0.126 OA
ENDBRANCH  20  24
ENDBRANCH  16  17
ENDBRANCH  15  16
ENDBRANCH   2  15
TORSDOF 5
