REMARK  Name = ZINC04038456
REMARK  7 active torsions:
REMARK  status: ('A' for Active; 'I' for Inactive)
REMARK    1  A    between atoms: C_1  and  C_2
REMARK    2  A    between atoms: C_2  and  N_3
REMARK    3  A    between atoms: N_3  and  C_4
REMARK    4  A    between atoms: N_3  and  C_6
REMARK    5  A    between atoms: C_4  and  C_5
REMARK    6  A    between atoms: C_9  and  C_12
REMARK    7  A    between atoms: C_15  and  C_20
REMARK                            x       y       z     vdW  Elec       q    Type
REMARK                         _______ _______ _______ _____ _____    ______ ____
ROOT
ATOM      1  C   UNL     1       6.285  -1.353   0.992  0.00  0.00    +0.132 A 
ATOM      2  N   UNL     1       7.084  -1.787   1.933  0.00  0.00    -0.155 NA
ATOM      3  N   UNL     1       8.445  -1.941   1.706  0.00  0.00    -0.184 N 
ATOM      4  C   UNL     1       9.593  -2.347   2.376  0.00  0.00    +0.204 A 
ATOM      5  N   UNL     1      10.601  -2.246   1.538  0.00  0.00    -0.125 NA
ATOM      6  N   UNL     1      10.184  -1.812   0.400  0.00  0.00    -0.120 NA
ATOM      7  C   UNL     1       8.899  -1.615   0.452  0.00  0.00    +0.219 A 
ATOM      8  S   UNL     1       7.411  -1.111  -0.374  0.00  0.00    -0.026 S 
ENDROOT
BRANCH   4   9
ATOM      9  C   UNL     1       9.666  -2.807   3.773  0.00  0.00    +0.108 A 
ATOM     10  C   UNL     1      10.803  -3.206   4.446  0.00  0.00    +0.004 A 
ATOM     11  C   UNL     1      10.428  -3.561   5.741  0.00  0.00    +0.067 A 
ATOM     12  N   UNL     1       9.132  -3.391   5.861  0.00  0.00    -0.178 NA
ATOM     13  N   UNL     1       8.624  -2.913   4.647  0.00  0.00    -0.273 N 
ATOM     14  H   UNL     1       7.697  -2.698   4.461  0.00  0.00    +0.189 HD
ATOM     15  C   UNL     1      11.649  -4.006   6.518  0.00  0.00    +0.058 C 
ATOM     16  C   UNL     1      12.722  -4.304   5.449  0.00  0.00    +0.011 C 
ATOM     17  C   UNL     1      12.295  -3.393   4.279  0.00  0.00    +0.039 C 
ENDBRANCH   4   9
BRANCH   1  21
ATOM     18  C   UNL     1       2.088  -0.703   1.140  0.00  0.00    +0.030 A 
ATOM     19  C   UNL     1       2.788  -0.449  -0.034  0.00  0.00    +0.024 A 
ATOM     20  C   UNL     1       4.149  -0.659  -0.085  0.00  0.00    +0.012 A 
ATOM     21  C   UNL     1       4.825  -1.126   1.043  0.00  0.00    +0.009 A 
ATOM     22  C   UNL     1       4.119  -1.380   2.221  0.00  0.00    +0.012 A 
ATOM     23  C   UNL     1       2.759  -1.164   2.268  0.00  0.00    +0.024 A 
BRANCH  18  24
ATOM     24  N   UNL     1       0.711  -0.489   1.189  0.00  0.00    -0.330 N 
BRANCH  24  26
ATOM     25  C   UNL     1      -0.019   1.526   0.010  0.00  0.00    +0.024 C 
ATOM     26  C   UNL     1       0.002  -0.004   0.002  0.00  0.00    +0.102 C 
ENDBRANCH  24  26
BRANCH  24  27
ATOM     27  C   UNL     1      -0.028  -0.750   2.427  0.00  0.00    +0.102 C 
ATOM     28  C   UNL     1      -0.511  -2.202   2.437  0.00  0.00    +0.024 C 
ENDBRANCH  24  27
ENDBRANCH  18  24
ENDBRANCH   1  21
TORSDOF 5
