REMARK  Name = ZINC07805177
REMARK  10 active torsions:
REMARK  status: ('A' for Active; 'I' for Inactive)
REMARK    1  A    between atoms: C_1  and  C_2
REMARK    2  A    between atoms: C_2  and  O_3
REMARK    3  A    between atoms: O_3  and  C_4
REMARK    4  A    between atoms: C_4  and  C_6
REMARK    5  A    between atoms: C_7  and  C_19
REMARK    6  A    between atoms: C_12  and  C_14
REMARK    7  A    between atoms: C_19  and  N_53
REMARK    8  A    between atoms: C_20  and  N_53
REMARK    9  A    between atoms: C_21  and  C_22
REMARK   10  A    between atoms: C_21  and  N_53
REMARK                            x       y       z     vdW  Elec       q    Type
REMARK                         _______ _______ _______ _____ _____    ______ ____
ROOT
ATOM      1  C   UNL     1       1.953  -2.219  -1.493  0.00  0.00    +0.079 C 
ATOM      2  C   UNL     1       3.195  -2.658  -1.792  0.00  0.00    +0.008 C 
ATOM      3  N   UNL     1       4.176  -2.700  -0.842  0.00  0.00    -0.274 N 
ATOM      4  C   UNL     1       3.995  -2.320   0.429  0.00  0.00    +0.304 C 
ATOM      5  O   UNL     1       4.929  -2.394   1.203  0.00  0.00    -0.252 OA
ATOM      6  N   UNL     1       2.811  -1.860   0.879  0.00  0.00    -0.285 N 
ATOM      7  C   UNL     1       1.686  -1.775  -0.069  0.00  0.00    +0.179 C 
ATOM      8  H   UNL     1       5.052  -3.023  -1.103  0.00  0.00    +0.156 HD
ATOM      9  H   UNL     1       2.702  -1.591   1.804  0.00  0.00    +0.151 HD
ENDROOT
BRANCH   7  10
ATOM     10  C   UNL     1       1.219  -0.343  -0.108  0.00  0.00    +0.130 A 
ATOM     11  C   UNL     1      -0.062   0.065  -0.165  0.00  0.00    +0.047 A 
ATOM     12  C   UNL     1      -0.041   1.479  -0.184  0.00  0.00    +0.041 A 
ATOM     13  C   UNL     1       1.252   1.850  -0.138  0.00  0.00    +0.195 A 
ATOM     14  O   UNL     1       2.010   0.742  -0.092  0.00  0.00    -0.466 OA
ENDBRANCH   7  10
BRANCH   1  15
ATOM     15  C   UNL     1       0.937  -2.174  -2.475  0.00  0.00    +0.339 C 
ATOM     16  O   UNL     1       1.203  -2.419  -3.637  0.00  0.00    -0.245 OA
BRANCH  15  17
ATOM     17  O   UNL     1      -0.328  -1.861  -2.124  0.00  0.00    -0.462 OA
BRANCH  17  19
ATOM     18  C   UNL     1      -2.667  -1.462  -2.582  0.00  0.00    +0.048 C 
ATOM     19  C   UNL     1      -1.303  -1.835  -3.168  0.00  0.00    +0.229 C 
ENDBRANCH  17  19
ENDBRANCH  15  17
ENDBRANCH   1  15
BRANCH   2  20
ATOM     20  C   UNL     1       3.503  -3.110  -3.196  0.00  0.00    -0.026 C 
BRANCH  20  22
ATOM     21  C   UNL     1       5.216  -1.458  -3.639  0.00  0.00    -0.095 C 
ATOM     22  N   UNL     1       3.864  -1.928  -4.006  0.00  0.00    +0.384 N 
ATOM     23  H   UNL     1       3.188  -1.178  -3.822  0.00  0.00    -0.081 HD
BRANCH  22  24
ATOM     24  C   UNL     1       3.821  -2.269  -5.444  0.00  0.00    -0.043 C 
BRANCH  24  25
ATOM     25  C   UNL     1       3.975  -1.004  -6.249  0.00  0.00    -0.060 A 
ATOM     26  C   UNL     1       2.857  -0.274  -6.605  0.00  0.00    +0.005 A 
ATOM     27  C   UNL     1       2.993   0.890  -7.338  0.00  0.00    +0.050 A 
ATOM     28  C   UNL     1       4.250   1.321  -7.728  0.00  0.00    +0.166 A 
ATOM     29  C   UNL     1       5.377   0.582  -7.373  0.00  0.00    +0.166 A 
ATOM     30  C   UNL     1       5.233  -0.580  -6.633  0.00  0.00    +0.051 A 
ATOM     31  O   UNL     1       6.483   1.208  -7.870  0.00  0.00    -0.453 OA
ATOM     32  C   UNL     1       5.994   2.113  -8.877  0.00  0.00    +0.466 C 
ATOM     33  O   UNL     1       4.652   2.410  -8.447  0.00  0.00    -0.453 OA
ENDBRANCH  24  25
ENDBRANCH  22  24
ENDBRANCH  20  22
ENDBRANCH   2  20
TORSDOF 8
