REMARK  Name = ZINC03518043
REMARK  8 active torsions:
REMARK  status: ('A' for Active; 'I' for Inactive)
REMARK    1  A    between atoms: C_2  and  C_3
REMARK    2  A    between atoms: C_3  and  N_4
REMARK    3  A    between atoms: C_8  and  C_10
REMARK    4  A    between atoms: C_10  and  S_11
REMARK    5  A    between atoms: S_11  and  C_12
REMARK    6  A    between atoms: C_15  and  C_27
REMARK    7  A    between atoms: N_16  and  C_17
REMARK    8  A    between atoms: C_17  and  C_18
REMARK                            x       y       z     vdW  Elec       q    Type
REMARK                         _______ _______ _______ _____ _____    ______ ____
ROOT
ATOM      1  C   UNL     1      -1.937   1.141   1.736  0.00  0.00    +0.193 A 
ATOM      2  N   UNL     1      -1.867   1.536   2.988  0.00  0.00    -0.122 NA
ATOM      3  N   UNL     1      -0.966   2.443   3.115  0.00  0.00    -0.128 NA
ATOM      4  C   UNL     1      -0.401   2.679   1.954  0.00  0.00    +0.165 A 
ATOM      5  N   UNL     1      -1.010   1.857   1.034  0.00  0.00    -0.298 N 
ENDROOT
BRANCH   4   6
ATOM      6  C   UNL     1       0.683   3.648   1.684  0.00  0.00    +0.019 A 
ATOM      7  C   UNL     1       1.655   3.363   0.724  0.00  0.00    +0.011 A 
ATOM      8  C   UNL     1       2.661   4.274   0.474  0.00  0.00    +0.001 A 
ATOM      9  C   UNL     1       2.713   5.462   1.180  0.00  0.00    +0.000 A 
ATOM     10  C   UNL     1       1.756   5.748   2.137  0.00  0.00    +0.001 A 
ATOM     11  C   UNL     1       0.742   4.849   2.393  0.00  0.00    +0.011 A 
ENDBRANCH   4   6
BRANCH   1  12
ATOM     12  S   UNL     1      -3.024  -0.083   1.086  0.00  0.00    -0.077 S 
BRANCH  12  13
ATOM     13  C   UNL     1      -3.911  -0.549   2.594  0.00  0.00    +0.173 C 
BRANCH  13  18
ATOM     14  N   UNL     1      -7.395  -3.579   3.933  0.00  0.00    -0.296 N 
ATOM     15  C   UNL     1      -6.613  -3.075   2.958  0.00  0.00    +0.306 C 
ATOM     16  O   UNL     1      -6.725  -3.482   1.818  0.00  0.00    -0.252 OA
ATOM     17  N   UNL     1      -5.706  -2.120   3.246  0.00  0.00    -0.239 N 
ATOM     18  C   UNL     1      -4.924  -1.617   2.271  0.00  0.00    +0.231 C 
ATOM     19  O   UNL     1      -5.036  -2.022   1.134  0.00  0.00    -0.274 OA
ATOM     20  H   UNL     1      -7.306  -3.254   4.843  0.00  0.00    +0.151 HD
ATOM     21  H   UNL     1      -5.617  -1.796   4.156  0.00  0.00    +0.159 HD
BRANCH  14  22
ATOM     22  C   UNL     1      -8.380  -4.617   3.619  0.00  0.00    +0.132 C 
BRANCH  22  24
ATOM     23  C   UNL     1     -10.427  -4.947   4.909  0.00  0.00    +0.005 C 
ATOM     24  C   UNL     1      -9.118  -5.004   4.875  0.00  0.00    -0.016 C 
ENDBRANCH  22  24
ENDBRANCH  14  22
ENDBRANCH  13  18
ENDBRANCH  12  13
ENDBRANCH   1  12
BRANCH   5  25
ATOM     25  C   UNL     1      -0.720   1.764  -0.399  0.00  0.00    +0.161 C 
BRANCH  25  26
ATOM     26  C   UNL     1      -1.495   2.824  -1.138  0.00  0.00    -0.024 A 
ATOM     27  C   UNL     1      -0.936   4.072  -1.341  0.00  0.00    +0.009 A 
ATOM     28  C   UNL     1      -1.643   5.048  -2.019  0.00  0.00    +0.050 A 
ATOM     29  C   UNL     1      -2.915   4.776  -2.497  0.00  0.00    +0.166 A 
ATOM     30  C   UNL     1      -3.478   3.519  -2.292  0.00  0.00    +0.167 A 
ATOM     31  C   UNL     1      -2.762   2.545  -1.617  0.00  0.00    +0.055 A 
ATOM     32  O   UNL     1      -4.724   3.503  -2.851  0.00  0.00    -0.453 OA
ATOM     33  C   UNL     1      -4.755   4.625  -3.753  0.00  0.00    +0.466 C 
ATOM     34  O   UNL     1      -3.807   5.548  -3.184  0.00  0.00    -0.453 OA
ENDBRANCH  25  26
ENDBRANCH   5  25
TORSDOF 8
