REMARK  Name = ZINC21112995
REMARK  9 active torsions:
REMARK  status: ('A' for Active; 'I' for Inactive)
REMARK    1  A    between atoms: C_1  and  C_2
REMARK    2  A    between atoms: C_5  and  N_11
REMARK    3  A    between atoms: C_7  and  N_8
REMARK    4  A    between atoms: C_12  and  C_14
REMARK    5  A    between atoms: C_14  and  S_15
REMARK    6  A    between atoms: S_15  and  C_16
REMARK    7  A    between atoms: C_19  and  C_22
REMARK    8  A    between atoms: C_22  and  O_23
REMARK    9  A    between atoms: O_23  and  C_24
REMARK                            x       y       z     vdW  Elec       q    Type
REMARK                         _______ _______ _______ _____ _____    ______ ____
ROOT
ATOM      1  S   UNL     1      -6.108   4.765   0.217  0.00  0.00    -0.077 S 
ENDROOT
BRANCH   1   2
ATOM      2  C   UNL     1      -4.454   5.287  -0.092  0.00  0.00    +0.185 A 
ATOM      3  N   UNL     1      -3.324   4.536   0.059  0.00  0.00    -0.202 NA
ATOM      4  H   UNL     1      -4.673   7.361  -0.759  0.00  0.00    +0.191 HD
ATOM      5  C   UNL     1      -2.286   5.352  -0.296  0.00  0.00    +0.189 A 
ATOM      6  N   UNL     1      -2.795   6.506  -0.625  0.00  0.00    -0.153 NA
ATOM      7  N   UNL     1      -4.075   6.471  -0.512  0.00  0.00    -0.253 N 
BRANCH   5   8
ATOM      8  C   UNL     1      -0.824   4.986  -0.304  0.00  0.00    +0.306 C 
BRANCH   8   9
ATOM      9  O   UNL     1      -0.669   3.633   0.129  0.00  0.00    -0.484 OA
BRANCH   9  10
ATOM     10  C   UNL     1       0.597   3.142   0.179  0.00  0.00    +0.121 A 
ATOM     11  C   UNL     1       1.668   3.944  -0.188  0.00  0.00    +0.047 A 
ATOM     12  C   UNL     1       2.954   3.442  -0.141  0.00  0.00    +0.023 A 
ATOM     13  C   UNL     1       3.174   2.139   0.269  0.00  0.00    +0.041 A 
ATOM     14  C   UNL     1       2.108   1.337   0.635  0.00  0.00    +0.023 A 
ATOM     15  C   UNL     1       0.820   1.836   0.590  0.00  0.00    +0.047 A 
ATOM     16 CL   UNL     1       4.791   1.510   0.327  0.00  0.00    -0.084 Cl
ENDBRANCH   9  10
ENDBRANCH   8   9
ENDBRANCH   5   8
ENDBRANCH   1   2
BRANCH   1  17
ATOM     17  C   UNL     1      -7.000   6.282  -0.206  0.00  0.00    +0.173 C 
BRANCH  17  19
ATOM     18  N   UNL     1      -9.346   7.065  -0.267  0.00  0.00    -0.285 N 
ATOM     19  C   UNL     1      -8.479   6.065  -0.011  0.00  0.00    +0.227 C 
ATOM     20  O   UNL     1      -8.889   4.991   0.375  0.00  0.00    -0.275 OA
ATOM     21  H   UNL     1      -8.970   8.064  -0.535  0.00  0.00    +0.155 HD
BRANCH  18  26
ATOM     22  C   UNL     1     -14.932   6.125   0.041  0.00  0.00    +0.046 C 
ATOM     23  C   UNL     1     -13.448   6.375  -0.041  0.00  0.00    -0.020 A 
ATOM     24  C   UNL     1     -12.602   5.370  -0.473  0.00  0.00    +0.007 A 
ATOM     25  C   UNL     1     -11.242   5.598  -0.555  0.00  0.00    +0.024 A 
ATOM     26  C   UNL     1     -10.724   6.833  -0.191  0.00  0.00    +0.036 A 
ATOM     27  C   UNL     1     -11.576   7.840   0.243  0.00  0.00    +0.056 A 
ATOM     28  C   UNL     1     -12.935   7.608   0.317  0.00  0.00    +0.131 A 
BRANCH  28  29
ATOM     29  N   UNL     1     -13.845   8.681   0.780  0.00  0.00    +0.057 N 
ATOM     30  O   UNL     1     -13.386   9.722   1.214  0.00  0.00    -0.126 OA
ATOM     31  O   UNL     1     -15.051   8.521   0.727  0.00  0.00    -0.126 OA
ENDBRANCH  28  29
ENDBRANCH  18  26
ENDBRANCH  17  19
ENDBRANCH   1  17
TORSDOF 8
