REMARK  Name = ZINC24309026
REMARK  8 active torsions:
REMARK  status: ('A' for Active; 'I' for Inactive)
REMARK    1  A    between atoms: C_1  and  C_2
REMARK    2  A    between atoms: C_9  and  C_11
REMARK    3  A    between atoms: N_13  and  N_14
REMARK    4  A    between atoms: C_15  and  C_17
REMARK    5  A    between atoms: C_19  and  C_26
REMARK    6  A    between atoms: C_21  and  N_23
REMARK    7  A    between atoms: C_26  and  O_28
REMARK    8  A    between atoms: O_28  and  C_29
REMARK                            x       y       z     vdW  Elec       q    Type
REMARK                         _______ _______ _______ _____ _____    ______ ____
ROOT
ATOM      1  N   UNL     1      -4.933   1.606   0.033  0.00  0.00    -0.230 N 
ATOM      2  C   UNL     1      -5.977   2.458   0.042  0.00  0.00    +0.260 C 
ATOM      3  O   UNL     1      -5.782   3.658   0.048  0.00  0.00    -0.269 OA
ATOM      4  H   UNL     1      -5.109   0.520   0.027  0.00  0.00    +0.173 HD
ENDROOT
BRANCH   2   5
ATOM      5  C   UNL     1      -7.359   1.934   0.045  0.00  0.00    +0.041 A 
ATOM      6  C   UNL     1      -8.440   2.813   0.061  0.00  0.00    +0.028 A 
ATOM      7  C   UNL     1      -9.739   2.311   0.058  0.00  0.00    +0.062 A 
ATOM      8  C   UNL     1      -9.951   0.929   0.051  0.00  0.00    +0.047 A 
ATOM      9  C   UNL     1      -8.876   0.064   0.041  0.00  0.00    +0.128 A 
ATOM     10  C   UNL     1      -7.585   0.555   0.038  0.00  0.00    +0.045 A 
BRANCH   9  11
ATOM     11  N   UNL     1      -9.107  -1.398   0.033  0.00  0.00    +0.056 N 
ATOM     12  O   UNL     1      -8.161  -2.165   0.024  0.00  0.00    -0.126 OA
ATOM     13  O   UNL     1     -10.244  -1.835   0.035  0.00  0.00    -0.126 OA
ENDBRANCH   9  11
BRANCH   7  14
ATOM     14  C   UNL     1     -10.891   3.236   0.069  0.00  0.00    +0.339 C 
ATOM     15  O   UNL     1     -10.705   4.437   0.074  0.00  0.00    -0.245 OA
BRANCH  14  16
ATOM     16  O   UNL     1     -12.147   2.749   0.072  0.00  0.00    -0.464 OA
ATOM     17  C   UNL     1     -13.229   3.716   0.083  0.00  0.00    +0.280 C 
ENDBRANCH  14  16
ENDBRANCH   7  14
ENDBRANCH   2   5
BRANCH   1  20
ATOM     18  C   UNL     1      -2.579   1.250   0.020  0.00  0.00    +0.267 C 
ATOM     19  O   UNL     1      -2.774   0.049   0.014  0.00  0.00    -0.268 OA
ATOM     20  N   UNL     1      -3.623   2.102   0.030  0.00  0.00    -0.230 N 
ATOM     21  H   UNL     1      -3.446   3.188   0.035  0.00  0.00    +0.173 HD
BRANCH  18  29
ATOM     22  C   UNL     1       4.985   1.579   0.267  0.00  0.00    +0.008 C 
ATOM     23  C   UNL     1       3.584   2.167   0.443  0.00  0.00    -0.009 C 
ATOM     24  C   UNL     1       3.460   3.446  -0.389  0.00  0.00    +0.009 C 
ATOM     25  C   UNL     1       2.162   4.167   0.003  0.00  0.00    +0.043 C 
ATOM     26  C   UNL     1       1.049   3.164   0.009  0.00  0.00    -0.006 A 
ATOM     27  C   UNL     1       1.166   1.804   0.001  0.00  0.00    -0.036 A 
ATOM     28  C   UNL     1      -0.013   1.076   0.008  0.00  0.00    +0.024 A 
ATOM     29  C   UNL     1      -1.208   1.770   0.017  0.00  0.00    +0.076 A 
ATOM     30  S   UNL     1      -0.647   3.464   0.027  0.00  0.00    -0.088 S 
ATOM     31  C   UNL     1       2.543   1.145  -0.015  0.00  0.00    +0.039 C 
ENDBRANCH  18  29
ENDBRANCH   1  20
TORSDOF 6
