REMARK  Name = ZINC20115187
REMARK  10 active torsions:
REMARK  status: ('A' for Active; 'I' for Inactive)
REMARK    1  A    between atoms: C_1  and  N_2
REMARK    2  A    between atoms: N_5  and  C_8
REMARK    3  A    between atoms: C_8  and  C_9
REMARK    4  A    between atoms: C_9  and  N_10
REMARK    5  A    between atoms: C_11  and  C_26
REMARK    6  A    between atoms: N_15  and  C_18
REMARK    7  A    between atoms: C_21  and  O_24
REMARK    8  A    between atoms: O_24  and  C_25
REMARK    9  A    between atoms: C_26  and  C_27
REMARK   10  A    between atoms: N_29  and  C_30
REMARK                            x       y       z     vdW  Elec       q    Type
REMARK                         _______ _______ _______ _____ _____    ______ ____
ROOT
ATOM      1  N   UNL     1       0.073  -0.233  -0.023  0.00  0.00    -0.299 N 
ATOM      2  C   UNL     1       1.544  -0.316  -0.014  0.00  0.00    +0.171 C 
ATOM      3  C   UNL     1       1.983   1.133  -0.090  0.00  0.00    +0.246 C 
ATOM      4  O   UNL     1       3.120   1.553  -0.109  0.00  0.00    -0.273 OA
ATOM      5  N   UNL     1       0.847   1.857  -0.133  0.00  0.00    -0.220 N 
ATOM      6  C   UNL     1      -0.238   1.074  -0.094  0.00  0.00    +0.147 C 
ATOM      7  S   UNL     1      -1.842   1.670  -0.137  0.00  0.00    -0.018 S 
ENDROOT
BRANCH   5   8
ATOM      8  C   UNL     1       0.807   3.257  -0.209  0.00  0.00    +0.043 A 
ATOM      9  C   UNL     1       1.434   4.024   0.764  0.00  0.00    +0.027 A 
ATOM     10  C   UNL     1       1.398   5.402   0.686  0.00  0.00    +0.047 A 
ATOM     11  C   UNL     1       0.727   6.020  -0.358  0.00  0.00    +0.120 A 
ATOM     12  C   UNL     1       0.096   5.255  -1.328  0.00  0.00    +0.047 A 
ATOM     13  C   UNL     1       0.135   3.877  -1.254  0.00  0.00    +0.027 A 
BRANCH  11  14
ATOM     14  O   UNL     1       0.688   7.377  -0.432  0.00  0.00    -0.495 OA
ATOM     15  C   UNL     1       1.359   8.103   0.600  0.00  0.00    +0.277 C 
ENDBRANCH  11  14
ENDBRANCH   5   8
BRANCH   1  16
ATOM     16  C   UNL     1      -0.867  -1.354   0.035  0.00  0.00    +0.123 C 
BRANCH  16  17
ATOM     17  C   UNL     1      -1.284  -1.744  -1.385  0.00  0.00    +0.103 C 
BRANCH  17  22
ATOM     18  C   UNL     1      -4.152  -6.577  -1.952  0.00  0.00    -0.096 C 
ATOM     19  N   UNL     1      -3.209  -5.452  -2.010  0.00  0.00    +0.379 N 
ATOM     20  C   UNL     1      -3.864  -4.241  -2.523  0.00  0.00    -0.064 C 
ATOM     21  C   UNL     1      -2.832  -3.117  -2.643  0.00  0.00    +0.066 C 
ATOM     22  N   UNL     1      -2.228  -2.868  -1.327  0.00  0.00    -0.304 NA
ATOM     23  C   UNL     1      -1.572  -4.079  -0.814  0.00  0.00    +0.066 C 
ATOM     24  C   UNL     1      -2.604  -5.203  -0.694  0.00  0.00    -0.064 C 
ATOM     25  H   UNL     1      -2.403  -5.724  -2.708  0.00  0.00    -0.082 HD
ENDBRANCH  17  22
ENDBRANCH  16  17
ENDBRANCH   1  16
BRANCH   2  26
ATOM     26  C   UNL     1       2.039  -0.961   1.282  0.00  0.00    +0.128 C 
BRANCH  26  27
ATOM     27  C   UNL     1       3.526  -1.185   1.196  0.00  0.00    +0.219 C 
ATOM     28  O   UNL     1       4.140  -0.813   0.218  0.00  0.00    -0.275 OA
ATOM     29  N   UNL     1       4.175  -1.800   2.205  0.00  0.00    -0.285 N 
ATOM     30  H   UNL     1       3.634  -2.066   3.125  0.00  0.00    +0.155 HD
BRANCH  29  31
ATOM     31  C   UNL     1       5.537  -2.100   2.081  0.00  0.00    +0.033 A 
ATOM     32  C   UNL     1       6.048  -3.259   2.650  0.00  0.00    +0.025 A 
ATOM     33  C   UNL     1       7.391  -3.555   2.523  0.00  0.00    +0.022 A 
ATOM     34  C   UNL     1       8.229  -2.692   1.839  0.00  0.00    +0.041 A 
ATOM     35  C   UNL     1       7.723  -1.534   1.275  0.00  0.00    +0.022 A 
ATOM     36  C   UNL     1       6.380  -1.236   1.395  0.00  0.00    +0.025 A 
ATOM     37 CL   UNL     1       9.918  -3.064   1.686  0.00  0.00    -0.084 Cl
ENDBRANCH  29  31
ENDBRANCH  26  27
ENDBRANCH   2  26
TORSDOF 8
