REMARK  Name = ZINC13428114
REMARK  6 active torsions:
REMARK  status: ('A' for Active; 'I' for Inactive)
REMARK    1  A    between atoms: C_6  and  O_7
REMARK    2  A    between atoms: O_7  and  C_8
REMARK    3  A    between atoms: C_8  and  C_9
REMARK    4  A    between atoms: C_12  and  C_14
REMARK    5  A    between atoms: N_16  and  C_17
REMARK    6  A    between atoms: C_22  and  C_23
REMARK                            x       y       z     vdW  Elec       q    Type
REMARK                         _______ _______ _______ _____ _____    ______ ____
ROOT
ATOM      1  C   UNL     1       2.477   1.500  -0.028  0.00  0.00    +0.284 C 
ATOM      2  O   UNL     1       2.756   0.315  -0.021  0.00  0.00    -0.266 OA
ATOM      3  N   UNL     1       3.460   2.422  -0.031  0.00  0.00    -0.278 N 
ATOM      4  H   UNL     1       3.240   3.365  -0.102  0.00  0.00    +0.155 HD
ENDROOT
BRANCH   3   5
ATOM      5  C   UNL     1       4.790   2.023   0.068  0.00  0.00    +0.052 A 
ATOM      6  C   UNL     1       5.209   0.844  -0.532  0.00  0.00    +0.073 A 
ATOM      7  C   UNL     1       6.534   0.454  -0.435  0.00  0.00    +0.164 A 
ATOM      8  C   UNL     1       7.449   1.232   0.271  0.00  0.00    +0.163 A 
ATOM      9  C   UNL     1       7.047   2.403   0.876  0.00  0.00    +0.066 A 
ATOM     10  C   UNL     1       5.710   2.811   0.779  0.00  0.00    +0.088 A 
ATOM     11  O   UNL     1       8.750   0.827   0.360  0.00  0.00    -0.488 OA
ATOM     12  C   UNL     1       9.500   0.859  -0.855  0.00  0.00    +0.232 C 
ATOM     13  C   UNL     1       9.277  -0.411  -1.661  0.00  0.00    +0.082 C 
ATOM     14  C   UNL     1       7.840  -0.550  -2.136  0.00  0.00    +0.232 C 
ATOM     15  O   UNL     1       6.951  -0.701  -1.028  0.00  0.00    -0.488 OA
BRANCH  10  16
ATOM     16  C   UNL     1       5.271   4.059   1.422  0.00  0.00    +0.388 C 
ATOM     17  O   UNL     1       4.094   4.361   1.422  0.00  0.00    -0.241 OA
ATOM     18  O   UNL     1       6.174   4.868   2.011  0.00  0.00    -0.241 OA
ENDBRANCH  10  16
ENDBRANCH   3   5
BRANCH   1  22
ATOM     19  C   UNL     1      -0.709   3.201  -0.045  0.00  0.00    +0.143 A 
ATOM     20  C   UNL     1      -1.148   1.923  -0.045  0.00  0.00    +0.049 A 
ATOM     21  C   UNL     1      -0.014   1.097  -0.033  0.00  0.00    +0.055 A 
ATOM     22  C   UNL     1       1.074   1.923  -0.035  0.00  0.00    +0.190 A 
ATOM     23  O   UNL     1       0.630   3.197  -0.042  0.00  0.00    -0.452 OA
BRANCH  19  24
ATOM     24  C   UNL     1      -1.583   4.429  -0.053  0.00  0.00    +0.303 C 
BRANCH  24  25
ATOM     25  O   UNL     1      -1.862   4.824   1.291  0.00  0.00    -0.484 OA
BRANCH  25  31
ATOM     26  C   UNL     1      -3.127   6.609   0.358  0.00  0.00    +0.048 A 
ATOM     27  C   UNL     1      -3.926   7.723   0.532  0.00  0.00    +0.042 A 
ATOM     28  C   UNL     1      -4.235   8.161   1.809  0.00  0.00    +0.124 A 
ATOM     29  C   UNL     1      -3.748   7.480   2.912  0.00  0.00    +0.042 A 
ATOM     30  C   UNL     1      -2.954   6.362   2.740  0.00  0.00    +0.048 A 
ATOM     31  C   UNL     1      -2.644   5.923   1.462  0.00  0.00    +0.121 A 
ATOM     32  F   UNL     1      -5.012   9.252   1.979  0.00  0.00    -0.205 F 
ENDBRANCH  25  31
ENDBRANCH  24  25
ENDBRANCH  19  24
ENDBRANCH   1  22
TORSDOF 6
