REMARK  Name = ZINC38596302
REMARK  9 active torsions:
REMARK  status: ('A' for Active; 'I' for Inactive)
REMARK    1  A    between atoms: C_1  and  C_2
REMARK    2  A    between atoms: C_2  and  O_3
REMARK    3  A    between atoms: O_3  and  C_4
REMARK    4  A    between atoms: C_4  and  C_6
REMARK    5  A    between atoms: C_8  and  N_17
REMARK    6  A    between atoms: C_18  and  C_20
REMARK    7  A    between atoms: C_20  and  N_21
REMARK    8  A    between atoms: C_25  and  C_27
REMARK    9  A    between atoms: C_25  and  C_28
REMARK                            x       y       z     vdW  Elec       q    Type
REMARK                         _______ _______ _______ _____ _____    ______ ____
ROOT
ATOM      1  C   UNL     1       3.478  -3.788   2.442  0.00  0.00    +0.234 C 
ATOM      2  C   UNL     1       2.922  -2.384   2.368  0.00  0.00    +0.053 C 
ATOM      3  C   UNL     1       1.550  -2.516   2.488  0.00  0.00    +0.020 A 
ATOM      4  C   UNL     1       0.496  -1.569   2.493  0.00  0.00    +0.050 A 
ATOM      5  C   UNL     1      -0.786  -1.992   2.631  0.00  0.00    +0.124 A 
ATOM      6  C   UNL     1      -1.099  -3.349   2.771  0.00  0.00    +0.040 A 
ATOM      7  C   UNL     1      -0.142  -4.308   2.775  0.00  0.00    +0.029 A 
ATOM      8  C   UNL     1       1.223  -3.944   2.635  0.00  0.00    +0.045 A 
ATOM      9  N   UNL     1       2.321  -4.674   2.609  0.00  0.00    -0.367 N 
ATOM     10  F   UNL     1      -1.784  -1.081   2.634  0.00  0.00    -0.205 F 
ATOM     11  H   UNL     1       2.359  -5.640   2.686  0.00  0.00    +0.161 HD
ENDROOT
BRANCH   2  12
ATOM     12  N   UNL     1       3.627  -1.227   2.214  0.00  0.00    -0.288 N 
ATOM     13  C   UNL     1       4.946  -1.273   1.938  0.00  0.00    +0.200 C 
ATOM     14  O   UNL     1       5.483  -2.338   1.722  0.00  0.00    -0.278 OA
ATOM     15  H   UNL     1       3.180  -0.371   2.303  0.00  0.00    +0.155 HD
BRANCH  13  16
ATOM     16  C   UNL     1       5.752  -0.001   1.897  0.00  0.00    +0.019 C 
BRANCH  16  17
ATOM     17  N   UNL     1       7.150  -0.317   1.578  0.00  0.00    +0.386 N 
ATOM     18  C   UNL     1       7.227  -0.878   0.224  0.00  0.00    -0.078 C 
ATOM     19  C   UNL     1       8.669  -1.284  -0.084  0.00  0.00    -0.018 C 
ATOM     20  C   UNL     1       9.572  -0.051   0.011  0.00  0.00    +0.003 C 
ATOM     21  C   UNL     1       9.428   0.569   1.404  0.00  0.00    -0.050 C 
ATOM     22  C   UNL     1       7.957   0.907   1.656  0.00  0.00    -0.072 C 
ATOM     23  C   UNL     1      10.267   1.847   1.483  0.00  0.00    +0.009 C 
ATOM     24  C   UNL     1       9.912  -0.427   2.459  0.00  0.00    +0.009 C 
ATOM     25  H   UNL     1       7.501  -0.993   2.240  0.00  0.00    -0.081 HD
ENDBRANCH  16  17
ENDBRANCH  13  16
ENDBRANCH   2  12
BRANCH   1  26
ATOM     26  C   UNL     1       4.405  -3.918   3.623  0.00  0.00    +0.336 C 
ATOM     27  O   UNL     1       3.980  -4.305   4.686  0.00  0.00    -0.248 OA
BRANCH  26  28
ATOM     28  O   UNL     1       5.704  -3.602   3.495  0.00  0.00    -0.463 OA
BRANCH  28  30
ATOM     29  C   UNL     1       7.961  -3.345   4.318  0.00  0.00    +0.048 C 
ATOM     30  C   UNL     1       6.525  -3.749   4.656  0.00  0.00    +0.229 C 
ENDBRANCH  28  30
ENDBRANCH  26  28
ENDBRANCH   1  26
TORSDOF 6
