REMARK  Name = ZINC15586743
REMARK  7 active torsions:
REMARK  status: ('A' for Active; 'I' for Inactive)
REMARK    1  A    between atoms: C_4  and  C_7
REMARK    2  A    between atoms: C_7  and  N_8
REMARK    3  A    between atoms: C_9  and  N_37
REMARK    4  A    between atoms: C_10  and  N_17
REMARK    5  A    between atoms: N_17  and  C_18
REMARK    6  A    between atoms: C_18  and  C_19
REMARK    7  A    between atoms: C_25  and  C_27
REMARK                            x       y       z     vdW  Elec       q    Type
REMARK                         _______ _______ _______ _____ _____    ______ ____
ROOT
ATOM      1  N   UNL     1       3.451  -1.447   2.990  0.00  0.00    -0.276 N 
ATOM      2  C   UNL     1       4.191  -0.526   3.693  0.00  0.00    +0.128 A 
ATOM      3  C   UNL     1       5.451  -0.189   3.242  0.00  0.00    +0.140 A 
ATOM      4  C   UNL     1       5.940  -0.800   2.072  0.00  0.00    +0.277 A 
ATOM      5  O   UNL     1       7.050  -0.521   1.652  0.00  0.00    -0.266 OA
ATOM      6  N   UNL     1       5.174  -1.697   1.421  0.00  0.00    -0.273 N 
ATOM      7  H   UNL     1       5.510  -2.119   0.615  0.00  0.00    +0.173 HD
ATOM      8  C   UNL     1       3.951  -2.017   1.879  0.00  0.00    +0.331 A 
ATOM      9  O   UNL     1       3.282  -2.834   1.274  0.00  0.00    -0.246 OA
ENDROOT
BRANCH   3  10
ATOM     10  N   UNL     1       6.235   0.754   3.941  0.00  0.00    -0.257 N 
ATOM     11  C   UNL     1       6.472   1.967   3.400  0.00  0.00    +0.261 C 
ATOM     12  O   UNL     1       7.072   2.808   4.037  0.00  0.00    -0.271 OA
BRANCH  11  13
ATOM     13  C   UNL     1       5.993   2.278   2.006  0.00  0.00    +0.263 C 
ATOM     14  C   UNL     1       4.460   2.487   1.988  0.00  0.00    +0.093 C 
ATOM     15  C   UNL     1       4.347   3.990   2.162  0.00  0.00    -0.002 A 
ATOM     16  C   UNL     1       3.289   4.804   2.501  0.00  0.00    +0.007 A 
ATOM     17  C   UNL     1       3.473   6.172   2.596  0.00  0.00    +0.000 A 
ATOM     18  C   UNL     1       4.720   6.716   2.350  0.00  0.00    +0.004 A 
ATOM     19  C   UNL     1       5.780   5.903   2.007  0.00  0.00    +0.046 A 
ATOM     20  C   UNL     1       5.603   4.525   1.905  0.00  0.00    +0.125 A 
ATOM     21  O   UNL     1       6.497   3.550   1.566  0.00  0.00    -0.479 OA
ENDBRANCH  11  13
BRANCH  10  22
ATOM     22  C   UNL     1       6.792   0.414   5.253  0.00  0.00    +0.149 C 
BRANCH  22  23
ATOM     23  C   UNL     1       8.197  -0.105   5.083  0.00  0.00    -0.030 A 
ATOM     24  C   UNL     1       8.410  -1.438   4.787  0.00  0.00    +0.005 A 
ATOM     25  C   UNL     1       9.698  -1.914   4.631  0.00  0.00    +0.000 A 
ATOM     26  C   UNL     1      10.773  -1.057   4.772  0.00  0.00    +0.000 A 
ATOM     27  C   UNL     1      10.560   0.277   5.068  0.00  0.00    +0.000 A 
ATOM     28  C   UNL     1       9.272   0.754   5.219  0.00  0.00    +0.005 A 
ENDBRANCH  22  23
ENDBRANCH  10  22
ENDBRANCH   3  10
BRANCH   2  29
ATOM     29  N   UNL     1       3.683   0.053   4.831  0.00  0.00    -0.343 N 
ATOM     30  H   UNL     1       2.769  -0.130   5.101  0.00  0.00    +0.144 HD
ATOM     31  H   UNL     1       4.237   0.643   5.364  0.00  0.00    +0.144 HD
ENDBRANCH   2  29
BRANCH   1  32
ATOM     32  C   UNL     1       2.112  -1.815   3.458  0.00  0.00    +0.163 C 
BRANCH  32  36
ATOM     33  C   UNL     1       2.397  -5.125   6.142  0.00  0.00    +0.000 A 
ATOM     34  C   UNL     1       2.466  -3.833   6.628  0.00  0.00    +0.000 A 
ATOM     35  C   UNL     1       2.374  -2.762   5.760  0.00  0.00    +0.005 A 
ATOM     36  C   UNL     1       2.213  -2.983   4.404  0.00  0.00    -0.028 A 
ATOM     37  C   UNL     1       2.146  -4.275   3.918  0.00  0.00    +0.005 A 
ATOM     38  C   UNL     1       2.236  -5.346   4.787  0.00  0.00    +0.000 A 
ENDBRANCH  32  36
ENDBRANCH   1  32
TORSDOF 7
