REMARK  Name = ZINC67027802
REMARK  13 active torsions:
REMARK  status: ('A' for Active; 'I' for Inactive)
REMARK    1  A    between atoms: C_1  and  C_2
REMARK    2  A    between atoms: C_2  and  C_3
REMARK    3  A    between atoms: C_3  and  C_4
REMARK    4  A    between atoms: C_4  and  N_5
REMARK    5  A    between atoms: C_6  and  C_30
REMARK    6  A    between atoms: C_7  and  C_26
REMARK    7  A    between atoms: C_8  and  C_13
REMARK    8  A    between atoms: C_17  and  O_19
REMARK    9  A    between atoms: O_19  and  C_20
REMARK   10  A    between atoms: C_20  and  C_22
REMARK   11  A    between atoms: C_20  and  C_23
REMARK   12  A    between atoms: C_26  and  O_28
REMARK   13  A    between atoms: O_28  and  C_29
REMARK                            x       y       z     vdW  Elec       q    Type
REMARK                         _______ _______ _______ _____ _____    ______ ____
ROOT
ATOM      1  N   UNL     1       1.349  -2.425  -2.858  0.00  0.00    -0.259 N 
ATOM      2  C   UNL     1       1.081  -2.874  -4.120  0.00  0.00    +0.024 C 
ATOM      3  C   UNL     1       2.065  -3.351  -4.913  0.00  0.00    +0.078 C 
ATOM      4  C   UNL     1       3.474  -3.370  -4.356  0.00  0.00    +0.144 C 
ATOM      5  N   UNL     1       3.656  -2.864  -2.985  0.00  0.00    -0.288 N 
ATOM      6  C   UNL     1       2.574  -2.415  -2.318  0.00  0.00    +0.307 C 
ATOM      7  O   UNL     1       2.715  -1.991  -1.188  0.00  0.00    -0.252 OA
ATOM      8  C   UNL     1      -0.334  -2.837  -4.635  0.00  0.00    +0.061 C 
ATOM      9  H   UNL     1       4.534  -2.850  -2.573  0.00  0.00    +0.151 HD
ENDROOT
BRANCH   4  10
ATOM     10  C   UNL     1       3.969  -4.793  -4.394  0.00  0.00    -0.019 A 
ATOM     11  C   UNL     1       3.579  -5.687  -3.413  0.00  0.00    +0.006 A 
ATOM     12  C   UNL     1       4.032  -6.993  -3.445  0.00  0.00    +0.004 A 
ATOM     13  C   UNL     1       4.876  -7.408  -4.458  0.00  0.00    +0.046 A 
ATOM     14  C   UNL     1       5.268  -6.513  -5.443  0.00  0.00    +0.122 A 
ATOM     15  C   UNL     1       4.807  -5.205  -5.412  0.00  0.00    +0.051 A 
BRANCH  14  16
ATOM     16  O   UNL     1       6.098  -6.920  -6.440  0.00  0.00    -0.478 OA
BRANCH  16  17
ATOM     17  C   UNL     1       6.621  -8.246  -6.348  0.00  0.00    +0.282 C 
ATOM     18  C   UNL     1       5.604  -9.236  -6.918  0.00  0.00    +0.064 C 
BRANCH  17  19
ATOM     19  C   UNL     1       7.904  -8.335  -7.133  0.00  0.00    +0.395 C 
ATOM     20  O   UNL     1       8.331  -7.353  -7.718  0.00  0.00    -0.242 OA
ATOM     21  O   UNL     1       8.516  -9.388  -7.185  0.00  0.00    -0.242 OA
ENDBRANCH  17  19
ENDBRANCH  16  17
ENDBRANCH  14  16
ENDBRANCH   4  10
BRANCH   3  22
ATOM     22  C   UNL     1       1.789  -3.818  -6.220  0.00  0.00    +0.339 C 
ATOM     23  O   UNL     1       0.649  -3.793  -6.646  0.00  0.00    -0.245 OA
BRANCH  22  24
ATOM     24  O   UNL     1       2.789  -4.290  -6.993  0.00  0.00    -0.465 OA
ATOM     25  C   UNL     1       2.438  -4.744  -8.301  0.00  0.00    +0.280 C 
ENDBRANCH  22  24
ENDBRANCH   3  22
BRANCH   1  26
ATOM     26  C   UNL     1       0.234  -1.921  -2.053  0.00  0.00    +0.115 C 
BRANCH  26  27
ATOM     27  C   UNL     1      -0.461  -3.092  -1.355  0.00  0.00    +0.019 C 
BRANCH  27  29
ATOM     28  C   UNL     1      -2.321  -3.736   0.184  0.00  0.00    +0.004 C 
ATOM     29  C   UNL     1      -1.625  -2.565  -0.514  0.00  0.00    -0.002 C 
ENDBRANCH  27  29
ENDBRANCH  26  27
ENDBRANCH   1  26
TORSDOF 9
