REMARK  Name = ZINC12637257
REMARK  12 active torsions:
REMARK  status: ('A' for Active; 'I' for Inactive)
REMARK    1  A    between atoms: C_1  and  C_2
REMARK    2  A    between atoms: C_5  and  C_7
REMARK    3  A    between atoms: C_7  and  C_9
REMARK    4  A    between atoms: C_7  and  N_16
REMARK    5  A    between atoms: N_11  and  C_12
REMARK    6  A    between atoms: C_12  and  C_13
REMARK    7  A    between atoms: C_12  and  C_14
REMARK    8  A    between atoms: C_12  and  C_15
REMARK    9  A    between atoms: N_16  and  C_17
REMARK   10  A    between atoms: C_19  and  C_24
REMARK   11  A    between atoms: C_21  and  C_23
REMARK   12  A    between atoms: C_25  and  C_27
REMARK                            x       y       z     vdW  Elec       q    Type
REMARK                         _______ _______ _______ _____ _____    ______ ____
ROOT
ATOM      1  N   UNL     1       1.520   2.505   0.330  0.00  0.00    -0.247 N 
ATOM      2  C   UNL     1       2.663   1.801   0.206  0.00  0.00    +0.273 C 
ATOM      3  O   UNL     1       2.886   0.868   0.953  0.00  0.00    -0.268 OA
ENDROOT
BRANCH   1   4
ATOM      4  C   UNL     1       0.566   2.128   1.282  0.00  0.00    +0.038 A 
ATOM      5  C   UNL     1       0.712   2.521   2.606  0.00  0.00    +0.027 A 
ATOM      6  C   UNL     1      -0.234   2.152   3.542  0.00  0.00    -0.048 A 
ATOM      7  C   UNL     1      -1.319   1.383   3.165  0.00  0.00    +0.006 A 
ATOM      8  C   UNL     1      -1.464   0.985   1.848  0.00  0.00    -0.048 A 
ATOM      9  C   UNL     1      -0.525   1.355   0.906  0.00  0.00    +0.027 A 
ATOM     10  C   UNL     1      -2.648   0.146   1.441  0.00  0.00    +0.044 C 
ATOM     11  C   UNL     1      -0.080   2.583   4.978  0.00  0.00    +0.044 C 
ENDBRANCH   1   4
BRANCH   2  12
ATOM     12  C   UNL     1       3.644   2.167  -0.831  0.00  0.00    +0.157 A 
ATOM     13  C   UNL     1       4.847   1.499  -1.013  0.00  0.00    +0.101 A 
ATOM     14  S   UNL     1       5.518   2.385  -2.342  0.00  0.00    +0.029 S 
ATOM     15  N   UNL     1       4.362   3.436  -2.563  0.00  0.00    -0.110 NA
ATOM     16  N   UNL     1       3.465   3.166  -1.687  0.00  0.00    -0.136 NA
ENDBRANCH   2  12
BRANCH   1  17
ATOM     17  C   UNL     1       1.276   3.664  -0.531  0.00  0.00    +0.233 C 
BRANCH  17  22
ATOM     18  C   UNL     1      -2.712   5.380   2.037  0.00  0.00    +0.086 C 
ATOM     19  C   UNL     1      -1.415   5.352   1.269  0.00  0.00    +0.102 A 
ATOM     20  C   UNL     1      -0.660   6.422   0.962  0.00  0.00    +0.045 A 
ATOM     21  C   UNL     1       0.460   5.940   0.246  0.00  0.00    +0.047 A 
ATOM     22  C   UNL     1       0.319   4.606   0.152  0.00  0.00    +0.135 A 
ATOM     23  O   UNL     1      -0.818   4.255   0.776  0.00  0.00    -0.462 OA
ENDBRANCH  17  22
BRANCH  17  24
ATOM     24  C   UNL     1       0.680   3.203  -1.837  0.00  0.00    +0.242 C 
ATOM     25  O   UNL     1       0.479   2.022  -2.028  0.00  0.00    -0.273 OA
ATOM     26  N   UNL     1       0.371   4.103  -2.792  0.00  0.00    -0.309 N 
ATOM     27  H   UNL     1       0.532   5.047  -2.638  0.00  0.00    +0.149 HD
BRANCH  26  28
ATOM     28  C   UNL     1      -0.208   3.655  -4.060  0.00  0.00    +0.026 C 
ATOM     29  C   UNL     1      -1.529   2.932  -3.791  0.00  0.00    +0.031 C 
ATOM     30  C   UNL     1      -0.463   4.865  -4.961  0.00  0.00    +0.031 C 
ATOM     31  C   UNL     1       0.764   2.698  -4.755  0.00  0.00    +0.031 C 
ENDBRANCH  26  28
ENDBRANCH  17  24
ENDBRANCH   1  17
TORSDOF 6
