REMARK  Name = ZINC22579165
REMARK  7 active torsions:
REMARK  status: ('A' for Active; 'I' for Inactive)
REMARK    1  A    between atoms: C_1  and  C_2
REMARK    2  A    between atoms: C_2  and  C_3
REMARK    3  A    between atoms: C_2  and  C_4
REMARK    4  A    between atoms: C_7  and  C_10
REMARK    5  A    between atoms: C_28  and  C_30
REMARK    6  A    between atoms: C_31  and  C_35
REMARK    7  A    between atoms: C_32  and  N_34
REMARK                            x       y       z     vdW  Elec       q    Type
REMARK                         _______ _______ _______ _____ _____    ______ ____
ROOT
ATOM      1  C   UNL     1       4.669  -0.063  -3.432  0.00  0.00    +0.034 C 
ATOM      2  C   UNL     1       5.190   0.999  -2.463  0.00  0.00    +0.083 C 
ATOM      3  C   UNL     1       4.344   1.007  -1.212  0.00  0.00    +0.116 C 
ATOM      4  C   UNL     1       3.038   0.682  -1.265  0.00  0.00    +0.058 C 
ATOM      5  C   UNL     1       2.423   0.319  -2.478  0.00  0.00    +0.165 C 
ATOM      6  O   UNL     1       1.238   0.051  -2.489  0.00  0.00    -0.292 OA
ATOM      7  C   UNL     1       3.207   0.255  -3.761  0.00  0.00    +0.088 C 
ATOM      8  C   UNL     1       2.198   0.697  -0.014  0.00  0.00    +0.145 C 
ATOM      9  C   UNL     1       1.289   1.886  -0.000  0.00  0.00    -0.001 A 
ATOM     10  C   UNL     1       1.555   3.239   0.004  0.00  0.00    +0.007 A 
ATOM     11  C   UNL     1       0.461   4.096   0.018  0.00  0.00    +0.000 A 
ATOM     12  C   UNL     1      -0.832   3.612   0.028  0.00  0.00    +0.002 A 
ATOM     13  C   UNL     1      -1.107   2.253   0.019  0.00  0.00    +0.024 A 
ATOM     14  C   UNL     1      -0.017   1.382   0.010  0.00  0.00    +0.049 A 
ATOM     15  N   UNL     1       0.002  -0.004   0.002  0.00  0.00    -0.209 N 
ATOM     16  C   UNL     1       1.260  -0.492  -0.013  0.00  0.00    +0.247 C 
ATOM     17  O   UNL     1       1.579  -1.661  -0.023  0.00  0.00    -0.273 OA
ATOM     18  C   UNL     1      -1.105  -0.773   0.008  0.00  0.00    +0.223 C 
ATOM     19  O   UNL     1      -2.201  -0.257   0.021  0.00  0.00    -0.275 OA
ATOM     20  C   UNL     1      -0.979  -2.275  -0.001  0.00  0.00    +0.110 C 
ATOM     21  C   UNL     1       3.068   0.668   1.209  0.00  0.00    +0.110 C 
ATOM     22  C   UNL     1       4.382   0.993   1.117  0.00  0.00    +0.199 C 
ATOM     23  O   UNL     1       4.933   1.353  -0.052  0.00  0.00    -0.445 OA
ENDROOT
BRANCH   1  27
ATOM     24  C   UNL     1       6.994  -0.005  -7.015  0.00  0.00    -0.045 A 
ATOM     25  C   UNL     1       6.919  -1.159  -6.258  0.00  0.00    +0.004 A 
ATOM     26  C   UNL     1       6.167  -1.178  -5.099  0.00  0.00    +0.004 A 
ATOM     27  C   UNL     1       5.489  -0.043  -4.696  0.00  0.00    -0.043 A 
ATOM     28  C   UNL     1       5.559   1.110  -5.455  0.00  0.00    +0.004 A 
ATOM     29  C   UNL     1       6.315   1.131  -6.612  0.00  0.00    +0.004 A 
BRANCH  24  31
ATOM     30  C   UNL     1       6.911   0.348  -9.468  0.00  0.00    +0.012 C 
ATOM     31  C   UNL     1       7.814   0.016  -8.279  0.00  0.00    +0.013 C 
ATOM     32  C   UNL     1       8.909   1.078  -8.158  0.00  0.00    +0.012 C 
ENDBRANCH  24  31
ENDBRANCH   1  27
BRANCH  22  33
ATOM     33  N   UNL     1       5.164   0.953   2.245  0.00  0.00    -0.328 N 
ATOM     34  H   UNL     1       6.231   1.214   2.183  0.00  0.00    +0.145 HD
ATOM     35  H   UNL     1       4.724   0.660   3.209  0.00  0.00    +0.145 HD
ENDBRANCH  22  33
BRANCH  21  36
ATOM     36  C   UNL     1       2.510   0.297   2.474  0.00  0.00    +0.102 C 
ATOM     37  N   UNL     1       2.067   0.002   3.478  0.00  0.00    -0.191 NA
ENDBRANCH  21  36
TORSDOF 4
