REMARK  Name = ZINC40744437
REMARK  13 active torsions:
REMARK  status: ('A' for Active; 'I' for Inactive)
REMARK    1  A    between atoms: C_1  and  C_2
REMARK    2  A    between atoms: C_2  and  C_3
REMARK    3  A    between atoms: C_3  and  O_4
REMARK    4  A    between atoms: O_4  and  C_5
REMARK    5  A    between atoms: C_6  and  O_25
REMARK    6  A    between atoms: C_8  and  C_12
REMARK    7  A    between atoms: C_12  and  N_13
REMARK    8  A    between atoms: N_13  and  C_14
REMARK    9  A    between atoms: C_14  and  C_15
REMARK   10  A    between atoms: C_15  and  N_16
REMARK   11  A    between atoms: C_17  and  C_19
REMARK   12  A    between atoms: O_25  and  C_26
REMARK   13  A    between atoms: C_26  and  C_27
REMARK                            x       y       z     vdW  Elec       q    Type
REMARK                         _______ _______ _______ _____ _____    ______ ____
ROOT
ATOM      1  N   UNL     1      -7.480  -3.593   0.043  0.00  0.00    +0.383 N 
ATOM      2  H   UNL     1      -7.400  -3.017   0.867  0.00  0.00    -0.085 HD
ATOM      3  H   UNL     1      -7.409  -3.014  -0.780  0.00  0.00    -0.085 HD
ENDROOT
BRANCH   1   4
ATOM      4  C   UNL     1      -6.401  -4.590   0.035  0.00  0.00    -0.047 C 
BRANCH   4   8
ATOM      5  C   UNL     1      -2.617  -2.596   0.013  0.00  0.00    +0.176 A 
ATOM      6  C   UNL     1      -3.225  -2.923   1.222  0.00  0.00    +0.163 A 
ATOM      7  C   UNL     1      -4.451  -3.569   1.225  0.00  0.00    +0.051 A 
ATOM      8  C   UNL     1      -5.068  -3.888   0.029  0.00  0.00    -0.060 A 
ATOM      9  C   UNL     1      -4.464  -3.564  -1.172  0.00  0.00    +0.021 A 
ATOM     10  C   UNL     1      -3.243  -2.914  -1.182  0.00  0.00    +0.063 A 
ATOM     11 BR   UNL     1      -2.425  -2.465  -2.827  0.00  0.00    -0.046 Br
BRANCH   5  12
ATOM     12  O   UNL     1      -1.414  -1.962   0.005  0.00  0.00    -0.487 OA
BRANCH  12  13
ATOM     13  C   UNL     1      -1.433  -0.534   0.013  0.00  0.00    +0.229 C 
BRANCH  13  15
ATOM     14  C   UNL     1      -0.019   1.526   0.010  0.00  0.00    +0.007 C 
ATOM     15  C   UNL     1       0.002  -0.004   0.002  0.00  0.00    +0.038 C 
ENDBRANCH  13  15
ENDBRANCH  12  13
ENDBRANCH   5  12
BRANCH   6  16
ATOM     16  O   UNL     1      -2.618  -2.609   2.397  0.00  0.00    -0.489 OA
BRANCH  16  17
ATOM     17  C   UNL     1      -3.300  -2.974   3.598  0.00  0.00    +0.226 C 
ATOM     18  C   UNL     1      -2.469  -2.543   4.808  0.00  0.00    +0.048 C 
ENDBRANCH  16  17
ENDBRANCH   6  16
ENDBRANCH   4   8
ENDBRANCH   1   4
BRANCH   1  19
ATOM     19  C   UNL     1      -8.780  -4.278   0.048  0.00  0.00    -0.063 C 
BRANCH  19  20
ATOM     20  C   UNL     1      -9.903  -3.239   0.057  0.00  0.00    +0.085 C 
BRANCH  20  21
ATOM     21  N   UNL     1     -11.199  -3.922   0.062  0.00  0.00    -0.312 N 
ATOM     22  C   UNL     1     -12.340  -3.203   0.070  0.00  0.00    +0.269 C 
ATOM     23  O   UNL     1     -12.293  -1.989   0.072  0.00  0.00    -0.268 OA
ATOM     24  H   UNL     1     -11.237  -4.891   0.060  0.00  0.00    +0.149 HD
BRANCH  22  25
ATOM     25  C   UNL     1     -13.650  -3.894   0.076  0.00  0.00    +0.209 A 
ATOM     26  C   UNL     1     -14.965  -3.243   0.078  0.00  0.00    +0.192 A 
ATOM     27  N   UNL     1     -15.882  -4.171   0.083  0.00  0.00    -0.033 NA
ATOM     28  O   UNL     1     -15.230  -5.428   0.084  0.00  0.00    -0.240 OA
ATOM     29  N   UNL     1     -13.834  -5.188   0.073  0.00  0.00    -0.042 NA
ATOM     30  N   UNL     1     -15.194  -1.873   0.076  0.00  0.00    -0.339 N 
ATOM     31  H   UNL     1     -14.445  -1.256   0.072  0.00  0.00    +0.144 HD
ATOM     32  H   UNL     1     -16.102  -1.534   0.078  0.00  0.00    +0.144 HD
ENDBRANCH  22  25
ENDBRANCH  20  21
ENDBRANCH  19  20
ENDBRANCH   1  19
TORSDOF 11
