REMARK  Name = ZINC05068831
REMARK  7 active torsions:
REMARK  status: ('A' for Active; 'I' for Inactive)
REMARK    1  A    between atoms: C_1  and  C_2
REMARK    2  A    between atoms: C_2  and  O_3
REMARK    3  A    between atoms: O_3  and  C_4
REMARK    4  A    between atoms: N_9  and  C_12
REMARK    5  A    between atoms: C_13  and  N_18
REMARK    6  A    between atoms: C_20  and  C_27
REMARK    7  A    between atoms: C_23  and  C_26
REMARK                            x       y       z     vdW  Elec       q    Type
REMARK                         _______ _______ _______ _____ _____    ______ ____
ROOT
ATOM      1  C   UNL     1       0.072   3.123   0.534  0.00  0.00    +0.099 C 
ATOM      2  C   UNL     1      -0.952   2.164   0.449  0.00  0.00    +0.090 C 
ATOM      3  C   UNL     1      -0.183   1.371  -0.527  0.00  0.00    +0.243 C 
ATOM      4  O   UNL     1      -0.359   0.335  -1.141  0.00  0.00    -0.282 OA
ATOM      5  C   UNL     1       0.896   2.389  -0.442  0.00  0.00    +0.189 C 
ATOM      6  O   UNL     1       1.988   2.547  -0.955  0.00  0.00    -0.502 OA
ATOM      7  H   UNL     1       2.596   3.426  -0.696  0.00  0.00    +0.292 HD
ENDROOT
BRANCH   2   8
ATOM      8  N   UNL     1      -2.182   2.021   1.041  0.00  0.00    -0.389 NA
ATOM      9  C   UNL     1      -3.238   2.610   0.208  0.00  0.00    +0.088 C 
ATOM     10  C   UNL     1      -4.569   2.563   0.962  0.00  0.00    +0.002 C 
ATOM     11  C   UNL     1      -4.909   1.109   1.298  0.00  0.00    +0.009 C 
ATOM     12  C   UNL     1      -3.771   0.505   2.125  0.00  0.00    +0.002 C 
ATOM     13  C   UNL     1      -2.463   0.611   1.338  0.00  0.00    +0.088 C 
ATOM     14  C   UNL     1      -4.074  -0.967   2.416  0.00  0.00    +0.009 C 
ATOM     15  C   UNL     1      -5.674   3.157   0.086  0.00  0.00    +0.009 C 
ATOM     16  H   UNL     1      -2.091   2.587   1.981  0.00  0.00    +0.127 HD
ENDBRANCH   2   8
BRANCH   1  22
ATOM     17  C   UNL     1       1.522   6.441   4.452  0.00  0.00    +0.403 C 
ATOM     18  O   UNL     1       0.838   6.468   5.456  0.00  0.00    -0.226 OA
ATOM     19  N   UNL     1       0.992   6.024   3.285  0.00  0.00    -0.264 N 
ATOM     20  C   UNL     1      -0.414   5.599   3.205  0.00  0.00    +0.130 C 
ATOM     21  C   UNL     1      -0.469   4.225   2.529  0.00  0.00    +0.124 C 
ATOM     22  N   UNL     1       0.236   4.287   1.242  0.00  0.00    -0.323 N 
ATOM     23  C   UNL     1       1.661   4.593   1.429  0.00  0.00    +0.124 C 
ATOM     24  C   UNL     1       1.803   5.983   2.059  0.00  0.00    +0.130 C 
BRANCH  17  25
ATOM     25  O   UNL     1       2.811   6.826   4.506  0.00  0.00    -0.451 OA
BRANCH  25  27
ATOM     26  C   UNL     1       4.788   7.658   5.660  0.00  0.00    +0.048 C 
ATOM     27  C   UNL     1       3.316   7.262   5.796  0.00  0.00    +0.230 C 
ENDBRANCH  25  27
ENDBRANCH  17  25
ENDBRANCH   1  22
TORSDOF 4
