REMARK  Name = ZINC55242783
REMARK  9 active torsions:
REMARK  status: ('A' for Active; 'I' for Inactive)
REMARK    1  A    between atoms: C_1  and  C_2
REMARK    2  A    between atoms: C_2  and  C_4
REMARK    3  A    between atoms: C_2  and  N_15
REMARK    4  A    between atoms: C_9  and  N_10
REMARK    5  A    between atoms: N_15  and  C_16
REMARK    6  A    between atoms: C_16  and  C_17
REMARK    7  A    between atoms: N_19  and  C_26
REMARK    8  A    between atoms: C_26  and  C_27
REMARK    9  A    between atoms: C_27  and  C_28
REMARK                            x       y       z     vdW  Elec       q    Type
REMARK                         _______ _______ _______ _____ _____    ______ ____
ROOT
ATOM      1  C   UNL     1      -2.031  -0.118   1.266  0.00  0.00    -0.044 C 
ENDROOT
BRANCH   1   2
ATOM      2  C   UNL     1      -3.449  -0.628   1.272  0.00  0.00    -0.039 A 
ATOM      3  C   UNL     1      -4.555   0.083   0.999  0.00  0.00    +0.088 A 
ATOM      4  N   UNL     1      -5.661  -0.715   1.103  0.00  0.00    -0.346 N 
ATOM      5  C   UNL     1      -5.285  -1.992   1.454  0.00  0.00    +0.049 A 
ATOM      6  C   UNL     1      -3.883  -1.995   1.569  0.00  0.00    +0.001 A 
ATOM      7  C   UNL     1      -3.214  -3.172   1.913  0.00  0.00    +0.010 A 
ATOM      8  C   UNL     1      -3.927  -4.317   2.134  0.00  0.00    +0.001 A 
ATOM      9  C   UNL     1      -5.310  -4.320   2.017  0.00  0.00    +0.002 A 
ATOM     10  C   UNL     1      -5.990  -3.168   1.688  0.00  0.00    +0.026 A 
BRANCH   4  11
ATOM     11  C   UNL     1      -7.040  -0.277   0.874  0.00  0.00    +0.131 C 
BRANCH  11  12
ATOM     12  C   UNL     1      -7.681   0.107   2.209  0.00  0.00    +0.117 C 
BRANCH  12  13
ATOM     13  C   UNL     1      -9.099   0.558   1.974  0.00  0.00    +0.212 C 
ATOM     14  O   UNL     1      -9.553   0.571   0.850  0.00  0.00    -0.276 OA
ATOM     15  N   UNL     1      -9.864   0.948   3.014  0.00  0.00    -0.329 N 
ATOM     16  H   UNL     1      -9.501   0.937   3.914  0.00  0.00    +0.145 HD
ATOM     17  H   UNL     1     -10.777   1.238   2.863  0.00  0.00    +0.145 HD
ENDBRANCH  12  13
ENDBRANCH  11  12
ENDBRANCH   4  11
ENDBRANCH   1   2
BRANCH   1  18
ATOM     18  N   UNL     1      -1.380  -0.494   0.004  0.00  0.00    +0.386 N 
ATOM     19  H   UNL     1      -1.886  -0.089  -0.769  0.00  0.00    -0.085 HD
ATOM     20  H   UNL     1      -1.377  -1.499  -0.086  0.00  0.00    -0.085 HD
BRANCH  18  22
ATOM     21  C   UNL     1      -0.006   1.533   0.010  0.00  0.00    -0.009 C 
ATOM     22  C   UNL     1       0.002   0.003  -0.001  0.00  0.00    -0.042 C 
BRANCH  22  23
ATOM     23  C   UNL     1       0.707  -0.487  -1.239  0.00  0.00    -0.036 A 
ATOM     24  C   UNL     1      -0.026  -0.917  -2.328  0.00  0.00    +0.004 A 
ATOM     25  C   UNL     1       0.621  -1.366  -3.465  0.00  0.00    +0.000 A 
ATOM     26  C   UNL     1       2.003  -1.387  -3.515  0.00  0.00    +0.002 A 
ATOM     27  C   UNL     1       2.741  -0.958  -2.430  0.00  0.00    +0.028 A 
ATOM     28  C   UNL     1       2.095  -0.500  -1.289  0.00  0.00    +0.067 A 
BRANCH  28  29
ATOM     29  N   UNL     1       2.841  -0.059  -0.188  0.00  0.00    -0.240 N 
ATOM     30  C   UNL     1       4.186   0.077  -0.141  0.00  0.00    +0.114 A 
ATOM     31  C   UNL     1       4.512   0.527   1.093  0.00  0.00    +0.041 A 
ATOM     32  C   UNL     1       3.328   0.670   1.825  0.00  0.00    +0.135 A 
ATOM     33  N   UNL     1       2.326   0.325   1.057  0.00  0.00    -0.175 NA
ENDBRANCH  28  29
ENDBRANCH  22  23
ENDBRANCH  18  22
ENDBRANCH   1  18
TORSDOF 8
