REMARK  Name = ZINC63575379
REMARK  5 active torsions:
REMARK  status: ('A' for Active; 'I' for Inactive)
REMARK    1  A    between atoms: C_9  and  C_11
REMARK    2  A    between atoms: C_17  and  C_19
REMARK    3  A    between atoms: C_19  and  O_20
REMARK    4  A    between atoms: O_20  and  C_21
REMARK    5  A    between atoms: C_24  and  N_28
REMARK                            x       y       z     vdW  Elec       q    Type
REMARK                         _______ _______ _______ _____ _____    ______ ____
ROOT
ATOM      1  C   UNL     1       3.757  -3.322  -0.052  0.00  0.00    +0.058 C 
ATOM      2  C   UNL     1       3.050  -4.396   0.778  0.00  0.00    +0.030 C 
ATOM      3  C   UNL     1       3.901  -5.669   0.790  0.00  0.00    +0.108 C 
ATOM      4  N   UNL     1       4.179  -6.065  -0.597  0.00  0.00    -0.299 N 
ATOM      5  C   UNL     1       4.775  -5.078  -1.508  0.00  0.00    +0.108 C 
ATOM      6  C   UNL     1       3.914  -3.811  -1.494  0.00  0.00    +0.030 C 
ATOM      7  C   UNL     1       3.892  -7.310  -1.026  0.00  0.00    +0.253 C 
ATOM      8  O   UNL     1       3.401  -8.116  -0.265  0.00  0.00    -0.272 OA
ENDROOT
BRANCH   1  17
ATOM      9  C   UNL     1      -0.017   1.374   0.010  0.00  0.00    +0.002 A 
ATOM     10  C   UNL     1       1.170   2.094   0.002  0.00  0.00    +0.002 A 
ATOM     11  C   UNL     1       2.375   1.450  -0.013  0.00  0.00    +0.030 A 
ATOM     12  C   UNL     1       2.418   0.054  -0.021  0.00  0.00    +0.089 A 
ATOM     13  C   UNL     1       1.217  -0.675  -0.013  0.00  0.00    +0.066 A 
ATOM     14  C   UNL     1       0.002  -0.004   0.002  0.00  0.00    +0.028 A 
ATOM     15  N   UNL     1       1.580  -2.007  -0.024  0.00  0.00    -0.342 N 
ATOM     16  H   UNL     1       0.977  -2.767  -0.022  0.00  0.00    +0.167 HD
ATOM     17  C   UNL     1       2.939  -2.056  -0.038  0.00  0.00    +0.111 A 
ATOM     18  N   UNL     1       3.430  -0.852  -0.036  0.00  0.00    -0.232 NA
ENDBRANCH   1  17
BRANCH   7  19
ATOM     19  C   UNL     1       4.183  -7.701  -2.452  0.00  0.00    +0.324 C 
BRANCH  19  20
ATOM     20  O   UNL     1       3.794  -9.060  -2.662  0.00  0.00    -0.483 OA
BRANCH  20  21
ATOM     21  C   UNL     1       3.990  -9.573  -3.905  0.00  0.00    +0.124 A 
ATOM     22  C   UNL     1       4.551  -8.786  -4.901  0.00  0.00    +0.048 A 
ATOM     23  C   UNL     1       4.750  -9.309  -6.164  0.00  0.00    +0.039 A 
ATOM     24  C   UNL     1       4.391 -10.615  -6.438  0.00  0.00    +0.161 A 
ATOM     25  C   UNL     1       3.831 -11.404  -5.447  0.00  0.00    +0.157 A 
ATOM     26  C   UNL     1       3.635 -10.886  -4.179  0.00  0.00    +0.086 A 
ATOM     27  F   UNL     1       3.481 -12.680  -5.717  0.00  0.00    -0.203 F 
BRANCH  24  28
ATOM     28  N   UNL     1       4.605 -11.172  -7.793  0.00  0.00    +0.059 N 
ATOM     29  O   UNL     1       5.093 -10.484  -8.659  0.00  0.00    -0.126 OA
ATOM     30  O   UNL     1       4.291 -12.315  -8.033  0.00  0.00    -0.126 OA
ENDBRANCH  24  28
ENDBRANCH  20  21
ENDBRANCH  19  20
ENDBRANCH   7  19
TORSDOF 5
