REMARK  Name = ZINC58909127
REMARK  8 active torsions:
REMARK  status: ('A' for Active; 'I' for Inactive)
REMARK    1  A    between atoms: C_1  and  C_2
REMARK    2  A    between atoms: C_6  and  C_18
REMARK    3  A    between atoms: N_8  and  C_9
REMARK    4  A    between atoms: C_14  and  N_15
REMARK    5  A    between atoms: N_20  and  C_21
REMARK    6  A    between atoms: C_26  and  N_27
REMARK    7  A    between atoms: N_27  and  C_28
REMARK    8  A    between atoms: N_27  and  C_29
REMARK                            x       y       z     vdW  Elec       q    Type
REMARK                         _______ _______ _______ _____ _____    ______ ____
ROOT
ATOM      1  C   UNL     1      -0.315   1.476  -0.185  0.00  0.00    +0.066 C 
ATOM      2  C   UNL     1      -0.164  -0.021  -0.093  0.00  0.00    +0.044 A 
ATOM      3  C   UNL     1      -0.262  -0.773  -1.215  0.00  0.00    +0.076 A 
ATOM      4  C   UNL     1      -0.113  -2.178  -1.085  0.00  0.00    +0.213 A 
ATOM      5  O   UNL     1      -0.189  -2.918  -2.054  0.00  0.00    -0.285 OA
ATOM      6  C   UNL     1       0.138  -2.706   0.265  0.00  0.00    +0.193 A 
ATOM      7  N   UNL     1       0.211  -1.861   1.272  0.00  0.00    -0.158 NA
ATOM      8  N   UNL     1       0.075  -0.596   1.111  0.00  0.00    -0.234 N 
ENDROOT
BRANCH   8   9
ATOM      9  C   UNL     1       0.173   0.231   2.235  0.00  0.00    +0.096 A 
ATOM     10  C   UNL     1       1.384   0.832   2.554  0.00  0.00    +0.030 A 
ATOM     11  C   UNL     1       1.477   1.648   3.664  0.00  0.00    +0.002 A 
ATOM     12  C   UNL     1       0.366   1.867   4.458  0.00  0.00    +0.002 A 
ATOM     13  C   UNL     1      -0.841   1.271   4.143  0.00  0.00    +0.035 A 
ATOM     14  C   UNL     1      -0.942   0.458   3.031  0.00  0.00    +0.151 A 
BRANCH  14  15
ATOM     15  N   UNL     1      -2.237  -0.175   2.692  0.00  0.00    +0.059 N 
ATOM     16  O   UNL     1      -3.207   0.023   3.385  0.00  0.00    -0.126 OA
ATOM     17  O   UNL     1      -2.323  -0.890   1.721  0.00  0.00    -0.126 OA
ENDBRANCH  14  15
ENDBRANCH   8   9
BRANCH   6  18
ATOM     18  C   UNL     1       0.305  -4.156   0.487  0.00  0.00    +0.272 C 
ATOM     19  O   UNL     1       0.235  -4.926  -0.451  0.00  0.00    -0.268 OA
ATOM     20  N   UNL     1       0.534  -4.626   1.729  0.00  0.00    -0.279 N 
ATOM     21  H   UNL     1       0.521  -4.020   2.487  0.00  0.00    +0.155 HD
BRANCH  20  22
ATOM     22  C   UNL     1       0.792  -5.988   1.926  0.00  0.00    +0.056 A 
ATOM     23  C   UNL     1       0.171  -6.936   1.126  0.00  0.00    +0.025 A 
ATOM     24  C   UNL     1       0.426  -8.280   1.322  0.00  0.00    +0.003 A 
ATOM     25  C   UNL     1       1.300  -8.685   2.314  0.00  0.00    +0.022 A 
ATOM     26  C   UNL     1       1.924  -7.747   3.117  0.00  0.00    +0.064 A 
ATOM     27  C   UNL     1       1.678  -6.395   2.923  0.00  0.00    +0.069 A 
ATOM     28 CL   UNL     1       3.020  -8.261   4.361  0.00  0.00    -0.082 Cl
BRANCH  27  29
ATOM     29  N   UNL     1       2.312  -5.443   3.729  0.00  0.00    -0.333 N 
ATOM     30  C   UNL     1       1.685  -5.007   4.979  0.00  0.00    +0.129 C 
ATOM     31  C   UNL     1       3.604  -4.884   3.324  0.00  0.00    +0.129 C 
ENDBRANCH  27  29
ENDBRANCH  20  22
ENDBRANCH   6  18
TORSDOF 5
