REMARK  Name = ZINC13019424
REMARK  6 active torsions:
REMARK  status: ('A' for Active; 'I' for Inactive)
REMARK    1  A    between atoms: C_3  and  C_17
REMARK    2  A    between atoms: C_5  and  S_7
REMARK    3  A    between atoms: S_7  and  N_10
REMARK    4  A    between atoms: N_19  and  N_20
REMARK    5  A    between atoms: C_21  and  C_23
REMARK    6  A    between atoms: C_23  and  C_24
REMARK                            x       y       z     vdW  Elec       q    Type
REMARK                         _______ _______ _______ _____ _____    ______ ____
ROOT
ATOM      1  C   UNL     1      -1.187   1.624   0.017  0.00  0.00    +0.260 C 
ATOM      2  O   UNL     1      -1.204   2.839   0.023  0.00  0.00    -0.269 OA
ATOM      3  N   UNL     1      -0.011   0.966   0.007  0.00  0.00    -0.230 N 
ATOM      4  H   UNL     1       0.002  -0.004   0.002  0.00  0.00    +0.173 HD
ENDROOT
BRANCH   1   7
ATOM      5  C   UNL     1      -3.631  -1.228   0.012  0.00  0.00    +0.003 A 
ATOM      6  C   UNL     1      -2.442  -0.528   0.005  0.00  0.00    +0.013 A 
ATOM      7  C   UNL     1      -2.458   0.867   0.018  0.00  0.00    +0.040 A 
ATOM      8  C   UNL     1      -3.678   1.546   0.028  0.00  0.00    +0.041 A 
ATOM      9  C   UNL     1      -4.859   0.834   0.029  0.00  0.00    +0.106 A 
ATOM     10  C   UNL     1      -4.837  -0.550   0.021  0.00  0.00    +0.028 A 
BRANCH   9  11
ATOM     11  S   UNL     1      -6.400   1.688   0.042  0.00  0.00    +0.061 S 
ATOM     12  O   UNL     1      -7.356   0.792   0.592  0.00  0.00    -0.153 OA
ATOM     13  O   UNL     1      -6.149   2.971   0.599  0.00  0.00    -0.153 OA
BRANCH  11  14
ATOM     14  N   UNL     1      -6.836   1.935  -1.537  0.00  0.00    -0.166 NA
ATOM     15  C   UNL     1      -6.433   3.152  -2.261  0.00  0.00    +0.128 C 
ATOM     16  C   UNL     1      -5.561   2.727  -3.451  0.00  0.00    +0.121 C 
ATOM     17  N   UNL     1      -6.177   1.622  -4.173  0.00  0.00    -0.313 N 
ATOM     18  C   UNL     1      -7.080   0.789  -3.654  0.00  0.00    +0.229 C 
ATOM     19  O   UNL     1      -7.462  -0.143  -4.330  0.00  0.00    -0.274 OA
ATOM     20  C   UNL     1      -7.646   0.951  -2.270  0.00  0.00    +0.205 C 
ATOM     21  H   UNL     1      -5.912   1.483  -5.096  0.00  0.00    +0.149 HD
ENDBRANCH  11  14
ENDBRANCH   9  11
ENDBRANCH   1   7
BRANCH   3  22
ATOM     22  N   UNL     1       1.193   1.683  -0.000  0.00  0.00    -0.234 N 
ATOM     23  C   UNL     1       2.369   1.025  -0.015  0.00  0.00    +0.230 C 
ATOM     24  O   UNL     1       2.385  -0.188  -0.022  0.00  0.00    -0.274 OA
ATOM     25  H   UNL     1       1.179   2.653   0.005  0.00  0.00    +0.173 HD
BRANCH  23  26
ATOM     26  C   UNL     1       3.663   1.796  -0.023  0.00  0.00    +0.104 C 
BRANCH  26  27
ATOM     27  C   UNL     1       4.840   0.818  -0.040  0.00  0.00    -0.020 C 
ATOM     28  C   UNL     1       4.782  -0.070   1.205  0.00  0.00    +0.011 C 
ATOM     29  C   UNL     1       5.959  -1.048   1.189  0.00  0.00    -0.010 C 
ATOM     30  C   UNL     1       7.273  -0.265   1.181  0.00  0.00    +0.007 C 
ATOM     31  C   UNL     1       7.330   0.622  -0.065  0.00  0.00    -0.010 C 
ATOM     32  C   UNL     1       6.154   1.601  -0.048  0.00  0.00    +0.011 C 
ATOM     33  C   UNL     1       7.249  -0.252  -1.318  0.00  0.00    +0.007 C 
ATOM     34  C   UNL     1       5.935  -1.034  -1.310  0.00  0.00    -0.010 C 
ATOM     35  C   UNL     1       5.878  -1.922  -0.064  0.00  0.00    +0.007 C 
ATOM     36  C   UNL     1       4.759  -0.056  -1.293  0.00  0.00    +0.011 C 
ENDBRANCH  26  27
ENDBRANCH  23  26
ENDBRANCH   3  22
TORSDOF 6
