REMARK  Name = ZINC17083267
REMARK  6 active torsions:
REMARK  status: ('A' for Active; 'I' for Inactive)
REMARK    1  A    between atoms: C_3  and  C_10
REMARK    2  A    between atoms: C_5  and  N_7
REMARK    3  A    between atoms: C_13  and  C_15
REMARK    4  A    between atoms: N_16  and  N_17
REMARK    5  A    between atoms: N_17  and  S_18
REMARK    6  A    between atoms: S_18  and  C_21
REMARK                            x       y       z     vdW  Elec       q    Type
REMARK                         _______ _______ _______ _____ _____    ______ ____
ROOT
ATOM      1  C   UNL     1       0.163   5.443  -1.303  0.00  0.00    +0.136 A 
ATOM      2  C   UNL     1      -1.031   6.199  -1.242  0.00  0.00    +0.050 A 
ATOM      3  C   UNL     1      -0.708   7.443  -0.805  0.00  0.00    +0.051 A 
ATOM      4  C   UNL     1       0.748   7.440  -0.592  0.00  0.00    +0.148 A 
ATOM      5  O   UNL     1       1.197   6.204  -0.907  0.00  0.00    -0.454 OA
ENDROOT
BRANCH   1   8
ATOM      6  C   UNL     1      -0.795   2.033  -2.516  0.00  0.00    +0.003 A 
ATOM      7  C   UNL     1      -0.899   3.346  -2.115  0.00  0.00    +0.012 A 
ATOM      8  C   UNL     1       0.257   4.047  -1.726  0.00  0.00    +0.019 A 
ATOM      9  C   UNL     1       1.504   3.396  -1.747  0.00  0.00    +0.044 A 
ATOM     10  C   UNL     1       1.583   2.091  -2.143  0.00  0.00    +0.127 A 
ATOM     11  C   UNL     1       0.441   1.403  -2.525  0.00  0.00    +0.033 A 
BRANCH  10  12
ATOM     12  N   UNL     1       2.895   1.407  -2.164  0.00  0.00    +0.056 N 
ATOM     13  O   UNL     1       2.976   0.148  -2.545  0.00  0.00    -0.126 OA
ATOM     14  O   UNL     1       3.982   2.056  -1.802  0.00  0.00    -0.126 OA
ENDBRANCH  10  12
ENDBRANCH   1   8
BRANCH   4  15
ATOM     15  C   UNL     1       1.515   8.502  -0.146  0.00  0.00    +0.177 C 
ATOM     16  N   UNL     1       2.807   8.324   0.125  0.00  0.00    -0.171 NA
BRANCH  16  17
ATOM     17  N   UNL     1       3.311   7.136   0.113  0.00  0.00    -0.137 N 
ATOM     18  H   UNL     1       2.737   6.367  -0.032  0.00  0.00    +0.197 HD
BRANCH  17  19
ATOM     19  S   UNL     1       4.936   6.924   0.346  0.00  0.00    +0.086 S 
ATOM     20  O   UNL     1       5.156   5.522   0.422  0.00  0.00    -0.149 OA
ATOM     21  O   UNL     1       5.594   7.747  -0.607  0.00  0.00    -0.149 OA
BRANCH  19  22
ATOM     22  C   UNL     1       5.326   7.582   1.934  0.00  0.00    +0.110 A 
ATOM     23  C   UNL     1       5.694   8.908   2.061  0.00  0.00    +0.030 A 
ATOM     24  C   UNL     1       5.994   9.426   3.307  0.00  0.00    +0.022 A 
ATOM     25  C   UNL     1       5.936   8.614   4.425  0.00  0.00    +0.041 A 
ATOM     26  C   UNL     1       5.573   7.285   4.297  0.00  0.00    +0.022 A 
ATOM     27  C   UNL     1       5.268   6.770   3.051  0.00  0.00    +0.030 A 
ATOM     28 CL   UNL     1       6.319   9.262   5.989  0.00  0.00    -0.084 Cl
ENDBRANCH  19  22
ENDBRANCH  17  19
ENDBRANCH  16  17
ENDBRANCH   4  15
TORSDOF 6
