REMARK  Name = ZINC13205292
REMARK  10 active torsions:
REMARK  status: ('A' for Active; 'I' for Inactive)
REMARK    1  A    between atoms: C_1  and  C_2
REMARK    2  A    between atoms: C_6  and  C_8
REMARK    3  A    between atoms: C_11  and  S_16
REMARK    4  A    between atoms: N_12  and  C_13
REMARK    5  A    between atoms: C_13  and  C_14
REMARK    6  A    between atoms: S_16  and  C_17
REMARK    7  A    between atoms: C_17  and  C_19
REMARK    8  A    between atoms: C_17  and  C_20
REMARK    9  A    between atoms: N_22  and  C_23
REMARK   10  A    between atoms: C_25  and  N_30
REMARK                            x       y       z     vdW  Elec       q    Type
REMARK                         _______ _______ _______ _____ _____    ______ ____
ROOT
ATOM      1  S   UNL     1      -3.674   2.126   0.699  0.00  0.00    -0.073 S 
ENDROOT
BRANCH   1   5
ATOM      2  C   UNL     1      -7.052   0.253   1.286  0.00  0.00    +0.165 A 
ATOM      3  N   UNL     1      -6.256  -0.710   0.884  0.00  0.00    -0.128 NA
ATOM      4  N   UNL     1      -5.084  -0.239   0.646  0.00  0.00    -0.122 NA
ATOM      5  C   UNL     1      -5.061   1.054   0.883  0.00  0.00    +0.193 A 
ATOM      6  N   UNL     1      -6.310   1.411   1.303  0.00  0.00    -0.291 N 
BRANCH   2  12
ATOM      7  C   UNL     1     -10.889  -2.601   2.712  0.00  0.00    +0.044 C 
ATOM      8  C   UNL     1     -10.327  -1.253   2.342  0.00  0.00    -0.050 A 
ATOM      9  C   UNL     1     -11.146  -0.138   2.349  0.00  0.00    +0.003 A 
ATOM     10  C   UNL     1     -10.638   1.103   2.010  0.00  0.00    +0.001 A 
ATOM     11  C   UNL     1      -9.309   1.237   1.664  0.00  0.00    +0.011 A 
ATOM     12  C   UNL     1      -8.477   0.117   1.657  0.00  0.00    +0.020 A 
ATOM     13  C   UNL     1      -8.998  -1.134   1.994  0.00  0.00    +0.015 A 
ENDBRANCH   2  12
BRANCH   6  14
ATOM     14  C   UNL     1      -6.765   2.749   1.690  0.00  0.00    +0.250 C 
BRANCH  14  15
ATOM     15  C   UNL     1      -7.191   3.509   0.460  0.00  0.00    +0.375 C 
ATOM     16  O   UNL     1      -7.122   2.987  -0.627  0.00  0.00    -0.244 OA
ATOM     17  O   UNL     1      -7.648   4.766   0.573  0.00  0.00    -0.244 OA
ENDBRANCH  14  15
ENDBRANCH   6  14
ENDBRANCH   1   5
BRANCH   1  18
ATOM     18  C   UNL     1      -2.432   0.938   0.130  0.00  0.00    +0.137 C 
ATOM     19  C   UNL     1      -2.841   0.390  -1.239  0.00  0.00    +0.029 C 
BRANCH  18  20
ATOM     20  C   UNL     1      -1.095   1.624   0.018  0.00  0.00    +0.230 C 
ATOM     21  O   UNL     1      -1.039   2.833  -0.065  0.00  0.00    -0.274 OA
ATOM     22  N   UNL     1       0.038   0.894   0.010  0.00  0.00    -0.283 N 
ATOM     23  H   UNL     1      -0.009  -0.074  -0.008  0.00  0.00    +0.155 HD
BRANCH  22  24
ATOM     24  C   UNL     1       1.283   1.534   0.021  0.00  0.00    +0.054 A 
ATOM     25  C   UNL     1       1.401   2.816   0.542  0.00  0.00    +0.057 A 
ATOM     26  C   UNL     1       2.631   3.445   0.552  0.00  0.00    +0.128 A 
ATOM     27  C   UNL     1       3.744   2.800   0.043  0.00  0.00    +0.034 A 
ATOM     28  C   UNL     1       3.630   1.525  -0.478  0.00  0.00    +0.024 A 
ATOM     29  C   UNL     1       2.403   0.887  -0.485  0.00  0.00    +0.062 A 
ATOM     30 CL   UNL     1       2.262  -0.718  -1.132  0.00  0.00    -0.082 Cl
BRANCH  26  31
ATOM     31  N   UNL     1       2.758   4.810   1.109  0.00  0.00    +0.056 N 
ATOM     32  O   UNL     1       1.779   5.379   1.558  0.00  0.00    -0.126 OA
ATOM     33  O   UNL     1       3.842   5.366   1.118  0.00  0.00    -0.126 OA
ENDBRANCH  26  31
ENDBRANCH  22  24
ENDBRANCH  18  20
ENDBRANCH   1  18
TORSDOF 8
