REMARK  Name = ZINC44392189
REMARK  7 active torsions:
REMARK  status: ('A' for Active; 'I' for Inactive)
REMARK    1  A    between atoms: C_1  and  C_2
REMARK    2  A    between atoms: C_4  and  N_28
REMARK    3  A    between atoms: C_7  and  N_8
REMARK    4  A    between atoms: C_9  and  C_11
REMARK    5  A    between atoms: C_11  and  C_13
REMARK    6  A    between atoms: C_11  and  N_14
REMARK    7  A    between atoms: C_19  and  C_21
REMARK                            x       y       z     vdW  Elec       q    Type
REMARK                         _______ _______ _______ _____ _____    ______ ____
ROOT
ATOM      1  C   UNL     1      -0.169   0.052   4.882  0.00  0.00    +0.194 C 
ATOM      2  C   UNL     1       1.058   0.948   5.064  0.00  0.00    +0.043 C 
ENDROOT
BRANCH   1   3
ATOM      3  N   UNL     1      -0.242  -0.905   5.988  0.00  0.00    -0.217 N 
ATOM      4  C   UNL     1      -1.329  -0.906   6.783  0.00  0.00    +0.268 A 
ATOM      5  O   UNL     1      -2.238  -0.117   6.581  0.00  0.00    -0.266 OA
ATOM      6  C   UNL     1      -1.409  -1.826   7.852  0.00  0.00    +0.074 A 
ATOM      7  C   UNL     1      -0.366  -2.685   8.034  0.00  0.00    +0.035 A 
ATOM      8  C   UNL     1       0.731  -2.605   7.144  0.00  0.00    +0.092 A 
ATOM      9  N   UNL     1       0.729  -1.725   6.171  0.00  0.00    -0.168 NA
BRANCH   8  10
ATOM     10  C   UNL     1       1.885  -3.522   7.309  0.00  0.00    +0.002 A 
ATOM     11  C   UNL     1       2.970  -3.444   6.438  0.00  0.00    +0.013 A 
ATOM     12  C   UNL     1       4.041  -4.299   6.595  0.00  0.00    +0.039 A 
ATOM     13  C   UNL     1       4.038  -5.236   7.615  0.00  0.00    +0.123 A 
ATOM     14  C   UNL     1       2.961  -5.318   8.483  0.00  0.00    +0.039 A 
ATOM     15  C   UNL     1       1.889  -4.462   8.338  0.00  0.00    +0.013 A 
ATOM     16  F   UNL     1       5.089  -6.072   7.765  0.00  0.00    -0.205 F 
ENDBRANCH   8  10
ENDBRANCH   1   3
BRANCH   1  18
ATOM     17  N   UNL     1       0.025  -0.015   2.417  0.00  0.00    -0.284 N 
ATOM     18  C   UNL     1      -0.057  -0.694   3.578  0.00  0.00    +0.242 C 
ATOM     19  O   UNL     1      -0.040  -1.907   3.573  0.00  0.00    -0.273 OA
ATOM     20  H   UNL     1       0.077   0.954   2.425  0.00  0.00    +0.155 HD
BRANCH  17  27
ATOM     21  C   UNL     1      -1.265   1.182   0.181  0.00  0.00    +0.046 C 
ATOM     22  C   UNL     1      -0.584  -0.158   0.084  0.00  0.00    -0.027 A 
ATOM     23  C   UNL     1      -0.569  -0.841  -1.117  0.00  0.00    +0.038 A 
ATOM     24  C   UNL     1       0.056  -2.071  -1.206  0.00  0.00    +0.127 A 
ATOM     25  C   UNL     1       0.667  -2.622  -0.095  0.00  0.00    +0.034 A 
ATOM     26  C   UNL     1       0.656  -1.944   1.109  0.00  0.00    +0.026 A 
ATOM     27  C   UNL     1       0.034  -0.706   1.201  0.00  0.00    +0.037 A 
BRANCH  24  28
ATOM     28  N   UNL     1       0.070  -2.800  -2.494  0.00  0.00    +0.056 N 
ATOM     29  O   UNL     1      -0.464  -2.320  -3.466  0.00  0.00    -0.126 OA
ATOM     30  O   UNL     1       0.616  -3.876  -2.574  0.00  0.00    -0.126 OA
ENDBRANCH  24  28
ENDBRANCH  17  27
ENDBRANCH   1  18
TORSDOF 5
