REMARK  Name = ZINC13204501
REMARK  10 active torsions:
REMARK  status: ('A' for Active; 'I' for Inactive)
REMARK    1  A    between atoms: C_1  and  C_2
REMARK    2  A    between atoms: C_5  and  N_29
REMARK    3  A    between atoms: C_6  and  N_9
REMARK    4  A    between atoms: C_7  and  C_8
REMARK    5  A    between atoms: C_10  and  C_12
REMARK    6  A    between atoms: C_12  and  S_13
REMARK    7  A    between atoms: S_13  and  C_14
REMARK    8  A    between atoms: C_17  and  C_22
REMARK    9  A    between atoms: N_18  and  C_19
REMARK   10  A    between atoms: C_19  and  C_20
REMARK                            x       y       z     vdW  Elec       q    Type
REMARK                         _______ _______ _______ _____ _____    ______ ____
ROOT
ATOM      1  S   UNL     1      -0.462   4.765   1.471  0.00  0.00    -0.077 S 
ENDROOT
BRANCH   1   2
ATOM      2  C   UNL     1      -1.699   3.610   1.962  0.00  0.00    +0.193 A 
ATOM      3  N   UNL     1      -2.079   3.352   3.193  0.00  0.00    -0.122 NA
ATOM      4  N   UNL     1      -2.998   2.453   3.191  0.00  0.00    -0.128 NA
ATOM      5  C   UNL     1      -3.265   2.087   1.959  0.00  0.00    +0.165 A 
ATOM      6  N   UNL     1      -2.443   2.820   1.134  0.00  0.00    -0.291 N 
BRANCH   5   7
ATOM      7  C   UNL     1      -4.260   1.078   1.538  0.00  0.00    +0.019 A 
ATOM      8  C   UNL     1      -4.706   1.043   0.216  0.00  0.00    +0.013 A 
ATOM      9  C   UNL     1      -5.631   0.096  -0.172  0.00  0.00    +0.021 A 
ATOM     10  C   UNL     1      -6.125  -0.812   0.750  0.00  0.00    +0.041 A 
ATOM     11  C   UNL     1      -5.690  -0.778   2.064  0.00  0.00    +0.021 A 
ATOM     12  C   UNL     1      -4.762   0.161   2.463  0.00  0.00    +0.013 A 
ATOM     13 CL   UNL     1      -7.293  -1.996   0.256  0.00  0.00    -0.084 Cl
ENDBRANCH   5   7
BRANCH   6  14
ATOM     14  C   UNL     1      -2.377   2.760  -0.329  0.00  0.00    +0.250 C 
BRANCH  14  15
ATOM     15  C   UNL     1      -3.371   3.727  -0.917  0.00  0.00    +0.375 C 
ATOM     16  O   UNL     1      -4.064   4.398  -0.190  0.00  0.00    -0.244 OA
ATOM     17  O   UNL     1      -3.487   3.843  -2.249  0.00  0.00    -0.244 OA
ENDBRANCH  14  15
ENDBRANCH   6  14
ENDBRANCH   1   2
BRANCH   1  18
ATOM     18  C   UNL     1       0.044   5.392   3.092  0.00  0.00    +0.173 C 
BRANCH  18  20
ATOM     19  N   UNL     1       1.661   7.032   3.993  0.00  0.00    -0.283 N 
ATOM     20  C   UNL     1       1.128   6.424   2.915  0.00  0.00    +0.228 C 
ATOM     21  O   UNL     1       1.519   6.708   1.803  0.00  0.00    -0.275 OA
ATOM     22  H   UNL     1       1.404   6.752   4.885  0.00  0.00    +0.155 HD
BRANCH  19  28
ATOM     23  C   UNL     1       5.924   8.640   2.146  0.00  0.00    +0.044 C 
ATOM     24  C   UNL     1       4.662   8.875   2.935  0.00  0.00    -0.046 A 
ATOM     25  C   UNL     1       4.418  10.116   3.494  0.00  0.00    +0.006 A 
ATOM     26  C   UNL     1       3.261  10.335   4.219  0.00  0.00    +0.035 A 
ATOM     27  C   UNL     1       2.342   9.317   4.381  0.00  0.00    +0.148 A 
ATOM     28  C   UNL     1       2.587   8.068   3.825  0.00  0.00    +0.067 A 
ATOM     29  C   UNL     1       3.750   7.851   3.098  0.00  0.00    -0.024 A 
ATOM     30  C   UNL     1       4.017   6.499   2.488  0.00  0.00    +0.046 C 
BRANCH  27  31
ATOM     31  N   UNL     1       1.101   9.554   5.152  0.00  0.00    +0.058 N 
ATOM     32  O   UNL     1       0.843  10.672   5.562  0.00  0.00    -0.126 OA
ATOM     33  O   UNL     1       0.337   8.632   5.375  0.00  0.00    -0.126 OA
ENDBRANCH  27  31
ENDBRANCH  19  28
ENDBRANCH  18  20
ENDBRANCH   1  18
TORSDOF 8
