REMARK  Name = ZINC39225610
REMARK  16 active torsions:
REMARK  status: ('A' for Active; 'I' for Inactive)
REMARK    1  A    between atoms: C_1  and  C_2
REMARK    2  A    between atoms: C_3  and  O_37
REMARK    3  A    between atoms: C_4  and  C_10
REMARK    4  A    between atoms: C_5  and  C_8
REMARK    5  A    between atoms: C_8  and  O_9
REMARK    6  A    between atoms: C_10  and  N_11
REMARK    7  A    between atoms: C_12  and  C_14
REMARK    8  A    between atoms: C_14  and  C_16
REMARK    9  A    between atoms: C_14  and  N_20
REMARK   10  A    between atoms: C_16  and  C_17
REMARK   11  A    between atoms: C_17  and  C_18
REMARK   12  A    between atoms: C_17  and  C_19
REMARK   13  A    between atoms: C_30  and  C_32
REMARK   14  A    between atoms: C_32  and  C_33
REMARK   15  A    between atoms: C_33  and  C_34
REMARK   16  A    between atoms: C_34  and  C_36
REMARK                            x       y       z     vdW  Elec       q    Type
REMARK                         _______ _______ _______ _____ _____    ______ ____
ROOT
ATOM      1  C   UNL     1      -6.069   5.744  -1.355  0.00  0.00    +0.162 C 
ENDROOT
BRANCH   1   2
ATOM      2  N   UNL     1      -7.514   5.978  -1.339  0.00  0.00    -0.288 N 
ATOM      3  C   UNL     1      -8.201   6.984  -2.160  0.00  0.00    +0.111 C 
ATOM      4  C   UNL     1      -9.694   6.583  -2.142  0.00  0.00    +0.054 C 
ATOM      5  C   UNL     1      -9.786   5.789  -0.827  0.00  0.00    +0.115 C 
ATOM      6  C   UNL     1      -8.387   5.295  -0.573  0.00  0.00    +0.240 C 
ATOM      7  O   UNL     1      -8.089   4.416   0.207  0.00  0.00    -0.273 OA
ATOM      8  C   UNL     1     -10.760   4.612  -0.981  0.00  0.00    +0.037 C 
ATOM      9  C   UNL     1     -11.453   4.557   0.408  0.00  0.00    +0.022 C 
ATOM     10  C   UNL     1     -11.522   6.060   0.783  0.00  0.00    +0.109 C 
ATOM     11  N   UNL     1     -10.267   6.638   0.262  0.00  0.00    -0.287 N 
ATOM     12  C   UNL     1      -9.667   7.756   0.715  0.00  0.00    +0.217 C 
ATOM     13  O   UNL     1      -8.633   8.137   0.207  0.00  0.00    -0.276 OA
BRANCH  12  14
ATOM     14  C   UNL     1     -10.280   8.534   1.851  0.00  0.00    +0.103 C 
BRANCH  14  15
ATOM     15  C   UNL     1      -9.407   9.750   2.166  0.00  0.00    +0.083 C 
BRANCH  15  16
ATOM     16  C   UNL     1     -10.021  10.528   3.302  0.00  0.00    +0.131 C 
ATOM     17  O   UNL     1     -11.050  10.148   3.807  0.00  0.00    -0.298 OA
ATOM     18  C   UNL     1      -9.350  11.779   3.808  0.00  0.00    +0.086 C 
ENDBRANCH  15  16
ENDBRANCH  14  15
ENDBRANCH  12  14
ENDBRANCH   1   2
BRANCH   1  20
ATOM     19  N   UNL     1      -4.525   3.879  -1.864  0.00  0.00    -0.310 N 
ATOM     20  C   UNL     1      -5.795   4.323  -1.777  0.00  0.00    +0.234 C 
ATOM     21  O   UNL     1      -6.717   3.580  -2.038  0.00  0.00    -0.274 OA
ATOM     22  H   UNL     1      -3.788   4.473  -1.655  0.00  0.00    +0.149 HD
BRANCH  19  23
ATOM     23  C   UNL     1      -4.259   2.498  -2.274  0.00  0.00    +0.143 C 
BRANCH  23  27
ATOM     24  C   UNL     1      -0.013   1.086   0.008  0.00  0.00    +0.067 C 
ATOM     25  C   UNL     1      -0.742   1.585  -1.213  0.00  0.00    +0.055 A 
ATOM     26  C   UNL     1      -2.111   1.795  -1.156  0.00  0.00    +0.141 A 
ATOM     27  C   UNL     1      -2.772   2.256  -2.291  0.00  0.00    +0.019 A 
ATOM     28  C   UNL     1      -2.028   2.489  -3.437  0.00  0.00    +0.002 A 
ATOM     29  C   UNL     1      -0.666   2.256  -3.416  0.00  0.00    +0.089 A 
ATOM     30  N   UNL     1      -0.070   1.823  -2.322  0.00  0.00    -0.361 N 
ATOM     31  H   UNL     1       0.888   1.672  -2.335  0.00  0.00    +0.165 HD
BRANCH  26  32
ATOM     32  O   UNL     1      -2.799   1.553  -0.009  0.00  0.00    -0.505 OA
ATOM     33  H   UNL     1      -2.860   2.316   0.581  0.00  0.00    +0.292 HD
ENDBRANCH  26  32
BRANCH  28  34
ATOM     34  C   UNL     1      -2.697   2.988  -4.691  0.00  0.00    +0.193 C 
BRANCH  34  35
ATOM     35  O   UNL     1      -1.720   3.146  -5.722  0.00  0.00    -0.390 OA
ATOM     36  H   UNL     1      -2.080   3.465  -6.560  0.00  0.00    +0.210 HD
ENDBRANCH  34  35
ENDBRANCH  28  34
ENDBRANCH  23  27
ENDBRANCH  19  23
ENDBRANCH   1  20
BRANCH   1  37
ATOM     37  C   UNL     1      -5.498   5.979   0.045  0.00  0.00    +0.035 C 
BRANCH  37  38
ATOM     38  C   UNL     1      -5.665   7.452   0.422  0.00  0.00    -0.015 C 
ATOM     39  C   UNL     1      -5.208   7.663   1.867  0.00  0.00    +0.007 C 
ATOM     40  C   UNL     1      -4.816   8.318  -0.512  0.00  0.00    +0.007 C 
ENDBRANCH  37  38
ENDBRANCH   1  37
TORSDOF 12
