REMARK  Name = ZINC01229523
REMARK  4 active torsions:
REMARK  status: ('A' for Active; 'I' for Inactive)
REMARK    1  A    between atoms: C_1  and  O_2
REMARK    2  A    between atoms: O_2  and  C_3
REMARK    3  A    between atoms: C_10  and  C_19
REMARK    4  A    between atoms: C_22  and  N_25
REMARK                            x       y       z     vdW  Elec       q    Type
REMARK                         _______ _______ _______ _____ _____    ______ ____
ROOT
ATOM      1  C   UNL     1      -4.216   0.846   1.166  0.00  0.00    +0.141 A 
ATOM      2  C   UNL     1      -4.492  -0.420   0.681  0.00  0.00    +0.047 A 
ATOM      3  C   UNL     1      -4.336  -0.686  -0.667  0.00  0.00    +0.004 A 
ATOM      4  C   UNL     1      -3.907   0.308  -1.522  0.00  0.00    +0.006 A 
ATOM      5  C   UNL     1      -3.628   1.583  -1.046  0.00  0.00    -0.016 A 
ATOM      6  C   UNL     1      -3.783   1.854   0.300  0.00  0.00    +0.074 A 
ATOM      7  N   UNL     1      -3.524   3.116   0.841  0.00  0.00    -0.334 N 
ATOM      8  C   UNL     1      -2.553   3.869   0.045  0.00  0.00    +0.105 C 
ATOM      9  C   UNL     1      -3.073   4.015  -1.386  0.00  0.00    +0.029 C 
ATOM     10  C   UNL     1      -3.164   2.615  -2.031  0.00  0.00    +0.049 C 
ATOM     11  C   UNL     1      -1.751   2.324  -2.483  0.00  0.00    -0.023 C 
ATOM     12  C   UNL     1      -1.068   3.436  -2.597  0.00  0.00    -0.030 C 
ATOM     13  C   UNL     1      -1.933   4.630  -2.246  0.00  0.00    +0.033 C 
ATOM     14  H   UNL     1      -3.225   3.043   1.802  0.00  0.00    +0.147 HD
ENDROOT
BRANCH   8  15
ATOM     15  C   UNL     1      -1.238   3.133   0.030  0.00  0.00    -0.027 A 
ATOM     16  C   UNL     1      -0.071   3.809  -0.275  0.00  0.00    +0.008 A 
ATOM     17  C   UNL     1       1.135   3.133  -0.294  0.00  0.00    +0.033 A 
ATOM     18  C   UNL     1       1.175   1.783   0.002  0.00  0.00    +0.126 A 
ATOM     19  C   UNL     1       0.009   1.109   0.312  0.00  0.00    +0.033 A 
ATOM     20  C   UNL     1      -1.197   1.783   0.326  0.00  0.00    +0.008 A 
BRANCH  18  21
ATOM     21  N   UNL     1       2.467   1.061  -0.012  0.00  0.00    +0.056 N 
ATOM     22  O   UNL     1       3.494   1.656  -0.286  0.00  0.00    -0.126 OA
ATOM     23  O   UNL     1       2.503  -0.128   0.249  0.00  0.00    -0.126 OA
ENDBRANCH  18  21
ENDBRANCH   8  15
BRANCH   1  25
ATOM     24  C   UNL     1      -4.814   0.036   3.321  0.00  0.00    +0.277 C 
ATOM     25  O   UNL     1      -4.369   1.111   2.492  0.00  0.00    -0.493 OA
ENDBRANCH   1  25
TORSDOF 3
