REMARK  Name = ZINC46010675
REMARK  5 active torsions:
REMARK  status: ('A' for Active; 'I' for Inactive)
REMARK    1  A    between atoms: C_3  and  O_24
REMARK    2  A    between atoms: C_6  and  N_7
REMARK    3  A    between atoms: C_16  and  C_18
REMARK    4  A    between atoms: O_24  and  C_25
REMARK    5  A    between atoms: C_25  and  C_26
REMARK                            x       y       z     vdW  Elec       q    Type
REMARK                         _______ _______ _______ _____ _____    ______ ____
ROOT
ATOM      1  N   UNL     1      -1.138  -0.746  -0.001  0.00  0.00    -0.269 N 
ATOM      2  C   UNL     1      -1.148  -2.083  -0.166  0.00  0.00    +0.307 C 
ATOM      3  O   UNL     1      -0.099  -2.692  -0.256  0.00  0.00    -0.252 OA
ATOM      4  N   UNL     1      -2.320  -2.746  -0.230  0.00  0.00    -0.278 N 
ATOM      5  C   UNL     1      -3.568  -1.967  -0.336  0.00  0.00    +0.110 C 
ATOM      6  C   UNL     1      -4.552  -2.582  -1.348  0.00  0.00    +0.019 C 
ATOM      7  C   UNL     1      -3.806  -3.070  -2.565  0.00  0.00    +0.002 C 
ATOM      8  C   UNL     1      -3.429  -4.535  -2.373  0.00  0.00    +0.002 C 
ATOM      9  C   UNL     1      -2.175  -4.747  -1.633  0.00  0.00    +0.027 C 
ATOM     10  C   UNL     1      -2.301  -4.192  -0.198  0.00  0.00    +0.108 C 
ATOM     11  H   UNL     1      -1.969  -0.271   0.158  0.00  0.00    +0.156 HD
ENDROOT
BRANCH   1  17
ATOM     12  C   UNL     1       0.090   1.271  -0.515  0.00  0.00    +0.027 A 
ATOM     13  C   UNL     1       1.282   1.965  -0.573  0.00  0.00    +0.047 A 
ATOM     14  C   UNL     1       2.462   1.352  -0.177  0.00  0.00    +0.121 A 
ATOM     15  C   UNL     1       2.445   0.041   0.277  0.00  0.00    +0.047 A 
ATOM     16  C   UNL     1       1.253  -0.654   0.335  0.00  0.00    +0.027 A 
ATOM     17  C   UNL     1       0.072  -0.041  -0.060  0.00  0.00    +0.035 A 
BRANCH  14  18
ATOM     18  O   UNL     1       3.636   2.036  -0.234  0.00  0.00    -0.483 OA
BRANCH  18  19
ATOM     19  C   UNL     1       4.811   1.343   0.189  0.00  0.00    +0.324 C 
BRANCH  19  20
ATOM     20  C   UNL     1       6.006   2.252   0.056  0.00  0.00    +0.248 C 
ATOM     21  O   UNL     1       5.864   3.383  -0.359  0.00  0.00    -0.272 OA
ATOM     22  N   UNL     1       7.231   1.810   0.400  0.00  0.00    -0.327 N 
ATOM     23  H   UNL     1       7.345   0.905   0.732  0.00  0.00    +0.145 HD
ATOM     24  H   UNL     1       8.000   2.395   0.315  0.00  0.00    +0.145 HD
ENDBRANCH  19  20
ENDBRANCH  18  19
ENDBRANCH  14  18
ENDBRANCH   1  17
BRANCH  10  25
ATOM     25  C   UNL     1      -1.125  -4.660   0.619  0.00  0.00    -0.024 A 
ATOM     26  C   UNL     1      -0.970  -4.257   1.937  0.00  0.00    +0.025 A 
ATOM     27  C   UNL     1       0.121  -4.707   2.655  0.00  0.00    +0.111 A 
ATOM     28  N   UNL     1       1.008  -5.511   2.102  0.00  0.00    -0.263 NA
ATOM     29  C   UNL     1       0.894  -5.914   0.852  0.00  0.00    +0.111 A 
ATOM     30  C   UNL     1      -0.175  -5.510   0.074  0.00  0.00    +0.025 A 
ENDBRANCH  10  25
TORSDOF 5
