REMARK  Name = ZINC14733807
REMARK  15 active torsions:
REMARK  status: ('A' for Active; 'I' for Inactive)
REMARK    1  A    between atoms: C_1  and  C_2
REMARK    2  A    between atoms: C_2  and  C_3
REMARK    3  A    between atoms: C_2  and  C_4
REMARK    4  A    between atoms: C_4  and  C_5
REMARK    5  A    between atoms: C_5  and  N_6
REMARK    6  A    between atoms: N_9  and  C_22
REMARK    7  A    between atoms: C_17  and  C_18
REMARK    8  A    between atoms: C_17  and  N_66
REMARK    9  A    between atoms: C_18  and  C_19
REMARK   10  A    between atoms: C_18  and  C_20
REMARK   11  A    between atoms: C_18  and  C_21
REMARK   12  A    between atoms: C_22  and  C_23
REMARK   13  A    between atoms: C_23  and  N_68
REMARK   14  A    between atoms: C_24  and  N_68
REMARK   15  A    between atoms: C_25  and  N_68
REMARK                            x       y       z     vdW  Elec       q    Type
REMARK                         _______ _______ _______ _____ _____    ______ ____
ROOT
ATOM      1  N   UNL     1       0.460   3.848   2.195  0.00  0.00    -0.271 N 
ATOM      2  C   UNL     1      -0.775   4.023   1.687  0.00  0.00    +0.312 C 
ATOM      3  O   UNL     1      -1.365   3.181   1.039  0.00  0.00    -0.252 OA
ATOM      4  N   UNL     1      -1.277   5.232   1.970  0.00  0.00    -0.226 N 
ATOM      5  C   UNL     1      -0.417   5.967   2.705  0.00  0.00    +0.247 C 
ATOM      6  O   UNL     1      -0.583   7.095   3.119  0.00  0.00    -0.273 OA
ATOM      7  C   UNL     1       0.799   5.092   2.898  0.00  0.00    +0.112 C 
ATOM      8  C   UNL     1       2.030   5.742   2.274  0.00  0.00    +0.017 C 
ATOM      9  C   UNL     1       3.250   4.846   2.509  0.00  0.00    -0.076 C 
ATOM     10  C   UNL     1       2.285   3.956   4.547  0.00  0.00    -0.076 C 
ATOM     11  C   UNL     1       1.032   4.822   4.381  0.00  0.00    +0.017 C 
ATOM     12  N   UNL     1       3.441   4.671   3.965  0.00  0.00    +0.380 N 
ATOM     13  H   UNL     1       3.516   5.596   4.404  0.00  0.00    -0.082 HD
ENDROOT
BRANCH   1  14
ATOM     14  C   UNL     1       1.299   2.654   2.070  0.00  0.00    +0.110 C 
BRANCH  14  15
ATOM     15  C   UNL     1       0.485   1.522   1.440  0.00  0.00    +0.022 C 
BRANCH  15  17
ATOM     16  C   UNL     1       1.579  -0.213   2.866  0.00  0.00    +0.007 C 
ATOM     17  C   UNL     1       1.318   0.239   1.428  0.00  0.00    -0.016 C 
ATOM     18  C   UNL     1       0.557  -0.856   0.679  0.00  0.00    +0.007 C 
ENDBRANCH  15  17
ENDBRANCH  14  15
ENDBRANCH   1  14
BRANCH  12  19
ATOM     19  C   UNL     1       4.684   3.915   4.222  0.00  0.00    -0.073 C 
BRANCH  19  20
ATOM     20  C   UNL     1       5.021   3.019   3.029  0.00  0.00    -0.052 C 
ATOM     21  C   UNL     1       5.309   3.889   1.803  0.00  0.00    +0.009 C 
ATOM     22  C   UNL     1       6.254   2.175   3.357  0.00  0.00    +0.009 C 
ATOM     23  C   UNL     1       3.836   2.097   2.733  0.00  0.00    +0.009 C 
ENDBRANCH  19  20
ENDBRANCH  12  19
BRANCH   4  24
ATOM     24  C   UNL     1      -2.598   5.696   1.540  0.00  0.00    +0.099 C 
BRANCH  24  25
ATOM     25  C   UNL     1      -3.638   5.333   2.602  0.00  0.00    -0.060 C 
BRANCH  25  28
ATOM     26  C   UNL     1      -6.018   5.265   3.042  0.00  0.00    -0.097 C 
ATOM     27  C   UNL     1      -5.014   7.266   2.118  0.00  0.00    -0.097 C 
ATOM     28  N   UNL     1      -4.967   5.789   2.143  0.00  0.00    +0.377 N 
ATOM     29  H   UNL     1      -5.133   5.433   1.194  0.00  0.00    -0.083 HD
ENDBRANCH  25  28
ENDBRANCH  24  25
ENDBRANCH   4  24
TORSDOF 8
