REMARK  Name = ZINC39843266
REMARK  8 active torsions:
REMARK  status: ('A' for Active; 'I' for Inactive)
REMARK    1  A    between atoms: C_1  and  C_2
REMARK    2  A    between atoms: C_5  and  C_8
REMARK    3  A    between atoms: C_8  and  C_10
REMARK    4  A    between atoms: C_10  and  C_11
REMARK    5  A    between atoms: N_17  and  N_18
REMARK    6  A    between atoms: C_19  and  C_20
REMARK    7  A    between atoms: C_19  and  C_21
REMARK    8  A    between atoms: C_24  and  N_27
REMARK                            x       y       z     vdW  Elec       q    Type
REMARK                         _______ _______ _______ _____ _____    ______ ____
ROOT
ATOM      1  C   UNL     1       0.093  -6.508   0.992  0.00  0.00    +0.147 C 
ATOM      2  C   UNL     1       0.085  -7.319   2.280  0.00  0.00    +0.232 C 
ATOM      3  O   UNL     1      -0.820  -7.287   3.086  0.00  0.00    -0.274 OA
ATOM      4  N   UNL     1       1.172  -8.064   2.430  0.00  0.00    -0.263 N 
ATOM      5  C   UNL     1       2.174  -8.090   1.522  0.00  0.00    +0.183 C 
ATOM      6  N   UNL     1       3.328  -8.822   1.588  0.00  0.00    -0.126 NA
ATOM      7  S   UNL     1       1.710  -7.036   0.294  0.00  0.00    -0.075 S 
ATOM      8  H   UNL     1       1.251  -8.614   3.225  0.00  0.00    +0.157 HD
ENDROOT
BRANCH   6   9
ATOM      9  N   UNL     1       3.546  -9.593   2.599  0.00  0.00    -0.152 NA
ATOM     10  C   UNL     1       4.686 -10.317   2.664  0.00  0.00    +0.068 C 
ATOM     11  C   UNL     1       5.702 -10.224   1.554  0.00  0.00    +0.068 C 
BRANCH  10  12
ATOM     12  C   UNL     1       4.923 -11.153   3.762  0.00  0.00    -0.002 A 
ATOM     13  C   UNL     1       6.117 -11.910   3.839  0.00  0.00    +0.012 A 
ATOM     14  C   UNL     1       6.335 -12.720   4.915  0.00  0.00    +0.033 A 
ATOM     15  C   UNL     1       5.391 -12.806   5.931  0.00  0.00    +0.126 A 
ATOM     16  C   UNL     1       4.214 -12.069   5.868  0.00  0.00    +0.033 A 
ATOM     17  C   UNL     1       3.973 -11.246   4.808  0.00  0.00    +0.012 A 
BRANCH  15  18
ATOM     18  N   UNL     1       5.642 -13.690   7.092  0.00  0.00    +0.056 N 
ATOM     19  O   UNL     1       6.755 -14.391   7.158  0.00  0.00    -0.126 OA
ATOM     20  O   UNL     1       4.752 -13.776   8.059  0.00  0.00    -0.126 OA
ENDBRANCH  15  18
ENDBRANCH  10  12
ENDBRANCH   6   9
BRANCH   1  21
ATOM     21  C   UNL     1       0.075  -5.006   1.280  0.00  0.00    +0.103 C 
BRANCH  21  22
ATOM     22  C   UNL     1       0.058  -4.245  -0.021  0.00  0.00    +0.165 C 
ATOM     23  O   UNL     1       0.060  -4.846  -1.075  0.00  0.00    -0.292 OA
BRANCH  22  28
ATOM     24  C   UNL     1      -0.018   1.503   0.010  0.00  0.00    +0.044 C 
ATOM     25  C   UNL     1       0.002  -0.004   0.002  0.00  0.00    -0.050 A 
ATOM     26  C   UNL     1       0.006  -0.686  -1.202  0.00  0.00    +0.004 A 
ATOM     27  C   UNL     1       0.024  -2.064  -1.218  0.00  0.00    +0.011 A 
ATOM     28  C   UNL     1       0.039  -2.774  -0.013  0.00  0.00    +0.017 A 
ATOM     29  C   UNL     1       0.036  -2.078   1.200  0.00  0.00    +0.011 A 
ATOM     30  C   UNL     1       0.023  -0.699   1.199  0.00  0.00    +0.004 A 
ENDBRANCH  22  28
ENDBRANCH  21  22
ENDBRANCH   1  21
TORSDOF 6
