REMARK  Name = ZINC14659742
REMARK  14 active torsions:
REMARK  status: ('A' for Active; 'I' for Inactive)
REMARK    1  A    between atoms: C_1  and  C_2
REMARK    2  A    between atoms: C_2  and  C_3
REMARK    3  A    between atoms: C_3  and  C_4
REMARK    4  A    between atoms: C_4  and  O_5
REMARK    5  A    between atoms: O_5  and  C_6
REMARK    6  A    between atoms: C_6  and  C_8
REMARK    7  A    between atoms: C_8  and  C_9
REMARK    8  A    between atoms: N_16  and  C_17
REMARK    9  A    between atoms: C_17  and  N_19
REMARK   10  A    between atoms: C_20  and  C_22
REMARK   11  A    between atoms: C_25  and  O_29
REMARK   12  A    between atoms: O_29  and  C_30
REMARK   13  A    between atoms: C_30  and  C_31
REMARK   14  A    between atoms: C_30  and  C_32
REMARK                            x       y       z     vdW  Elec       q    Type
REMARK                         _______ _______ _______ _____ _____    ______ ____
ROOT
ATOM      1  C   UNL     1      -0.877  -6.374  -0.096  0.00  0.00    +0.140 C 
ATOM      2  S   UNL     1      -0.792  -4.664  -0.091  0.00  0.00    -0.018 S 
ENDROOT
BRANCH   1   9
ATOM      3  C   UNL     1      -2.174  -8.451  -0.314  0.00  0.00    +0.171 C 
ATOM      4  C   UNL     1      -3.278  -8.944   0.580  0.00  0.00    +0.234 C 
ATOM      5  O   UNL     1      -3.364 -10.135   0.791  0.00  0.00    -0.274 OA
ATOM      6  N   UNL     1      -4.168  -8.131   1.152  0.00  0.00    -0.312 N 
ATOM      7  C   UNL     1      -4.137  -6.678   1.063  0.00  0.00    +0.123 C 
ATOM      8  C   UNL     1      -3.332  -6.226  -0.151  0.00  0.00    +0.126 C 
ATOM      9  N   UNL     1      -2.073  -6.989  -0.185  0.00  0.00    -0.299 N 
ATOM     10  H   UNL     1      -4.886  -8.537   1.663  0.00  0.00    +0.149 HD
BRANCH   3  11
ATOM     11  C   UNL     1      -2.488  -8.816  -1.766  0.00  0.00    +0.152 C 
BRANCH  11  12
ATOM     12  C   UNL     1      -1.320  -8.444  -2.642  0.00  0.00    +0.309 C 
ATOM     13  O   UNL     1      -0.299  -8.030  -2.145  0.00  0.00    -0.251 OA
BRANCH  12  14
ATOM     14  O   UNL     1      -1.413  -8.572  -3.975  0.00  0.00    -0.465 OA
BRANCH  14  15
ATOM     15  C   UNL     1      -0.249  -8.194  -4.757  0.00  0.00    +0.232 C 
BRANCH  15  16
ATOM     16  C   UNL     1      -0.542  -8.407  -6.243  0.00  0.00    +0.041 C 
BRANCH  16  18
ATOM     17  C   UNL     1       0.392  -8.222  -8.553  0.00  0.00    +0.004 C 
ATOM     18  C   UNL     1       0.685  -8.009  -7.067  0.00  0.00    -0.000 C 
ENDBRANCH  16  18
ENDBRANCH  15  16
ENDBRANCH  14  15
ENDBRANCH  12  14
ENDBRANCH  11  12
ENDBRANCH   3  11
ENDBRANCH   1   9
BRANCH   1  19
ATOM     19  N   UNL     1       0.252  -7.105  -0.010  0.00  0.00    -0.264 N 
ATOM     20  C   UNL     1       1.438  -6.494   0.184  0.00  0.00    +0.250 C 
ATOM     21  O   UNL     1       1.488  -5.283   0.282  0.00  0.00    -0.270 OA
ATOM     22  H   UNL     1       0.212  -8.071  -0.088  0.00  0.00    +0.157 HD
BRANCH  20  23
ATOM     23  C   UNL     1       2.673  -7.293   0.278  0.00  0.00    +0.038 A 
ATOM     24  C   UNL     1       3.904  -6.661   0.479  0.00  0.00    +0.017 A 
ATOM     25  C   UNL     1       5.055  -7.411   0.567  0.00  0.00    +0.047 A 
ATOM     26  C   UNL     1       4.996  -8.795   0.455  0.00  0.00    +0.135 A 
ATOM     27  C   UNL     1       3.775  -9.428   0.249  0.00  0.00    +0.060 A 
ATOM     28  C   UNL     1       2.617  -8.685   0.166  0.00  0.00    +0.032 A 
ATOM     29 BR   UNL     1       3.702 -11.311   0.091  0.00  0.00    -0.046 Br
BRANCH  26  30
ATOM     30  O   UNL     1       6.133  -9.531   0.542  0.00  0.00    -0.488 OA
BRANCH  30  31
ATOM     31  C   UNL     1       7.364  -8.812   0.646  0.00  0.00    +0.167 C 
ATOM     32  C   UNL     1       8.415  -9.695   1.323  0.00  0.00    +0.051 C 
ATOM     33  C   UNL     1       7.848  -8.424  -0.752  0.00  0.00    +0.051 C 
ENDBRANCH  30  31
ENDBRANCH  26  30
ENDBRANCH  20  23
ENDBRANCH   1  19
TORSDOF 11
