REMARK  Name = ZINC43224805
REMARK  13 active torsions:
REMARK  status: ('A' for Active; 'I' for Inactive)
REMARK    1  A    between atoms: C_1  and  C_2
REMARK    2  A    between atoms: C_3  and  C_15
REMARK    3  A    between atoms: N_6  and  C_9
REMARK    4  A    between atoms: N_7  and  C_8
REMARK    5  A    between atoms: C_16  and  C_31
REMARK    6  A    between atoms: N_17  and  C_24
REMARK    7  A    between atoms: C_18  and  C_23
REMARK    8  A    between atoms: C_19  and  C_20
REMARK    9  A    between atoms: C_24  and  C_25
REMARK   10  A    between atoms: C_31  and  C_32
REMARK   11  A    between atoms: C_32  and  C_33
REMARK   12  A    between atoms: C_33  and  O_35
REMARK   13  A    between atoms: O_35  and  C_36
REMARK                            x       y       z     vdW  Elec       q    Type
REMARK                         _______ _______ _______ _____ _____    ______ ____
ROOT
ATOM      1  C   UNL     1      -2.411  -0.285   0.566  0.00  0.00    +0.022 A 
ATOM      2  C   UNL     1      -2.823   0.249   1.744  0.00  0.00    +0.028 A 
ATOM      3  N   UNL     1      -4.146   0.571   1.638  0.00  0.00    -0.346 N 
ATOM      4  C   UNL     1      -4.611   0.259   0.414  0.00  0.00    +0.029 A 
ATOM      5  C   UNL     1      -3.588  -0.275  -0.320  0.00  0.00    +0.065 A 
ATOM      6  C   UNL     1      -6.022   0.468  -0.070  0.00  0.00    +0.064 C 
ENDROOT
BRANCH   1   9
ATOM      7  C   UNL     1      -0.099   1.421  -0.657  0.00  0.00    +0.066 C 
ATOM      8  C   UNL     1      -0.034  -0.041  -0.296  0.00  0.00    +0.046 A 
ATOM      9  C   UNL     1      -1.049  -0.773   0.236  0.00  0.00    +0.071 A 
ATOM     10  C   UNL     1      -0.542  -2.138   0.423  0.00  0.00    +0.280 A 
ATOM     11  O   UNL     1      -1.158  -3.085   0.876  0.00  0.00    -0.265 OA
ATOM     12  N   UNL     1       0.737  -2.140  -0.006  0.00  0.00    -0.217 N 
ATOM     13  N   UNL     1       1.051  -0.852  -0.454  0.00  0.00    -0.283 N 
ATOM     14  C   UNL     1       2.345  -0.439  -1.004  0.00  0.00    +0.171 C 
BRANCH  12  15
ATOM     15  C   UNL     1       1.599  -3.241  -0.007  0.00  0.00    +0.067 A 
ATOM     16  C   UNL     1       2.885  -3.120   0.504  0.00  0.00    +0.028 A 
ATOM     17  C   UNL     1       3.733  -4.209   0.501  0.00  0.00    +0.002 A 
ATOM     18  C   UNL     1       3.304  -5.420  -0.009  0.00  0.00    +0.000 A 
ATOM     19  C   UNL     1       2.025  -5.545  -0.519  0.00  0.00    +0.002 A 
ATOM     20  C   UNL     1       1.169  -4.461  -0.514  0.00  0.00    +0.028 A 
ENDBRANCH  12  15
ENDBRANCH   1   9
BRANCH   5  21
ATOM     21  C   UNL     1      -3.651  -0.748  -1.712  0.00  0.00    +0.244 C 
ATOM     22  O   UNL     1      -3.940  -1.906  -1.948  0.00  0.00    -0.270 OA
ATOM     23  N   UNL     1      -3.388   0.102  -2.724  0.00  0.00    -0.325 N 
ATOM     24  H   UNL     1      -3.158   1.025  -2.536  0.00  0.00    +0.145 HD
ATOM     25  H   UNL     1      -3.429  -0.210  -3.642  0.00  0.00    +0.145 HD
ENDBRANCH   5  21
BRANCH   3  26
ATOM     26  C   UNL     1      -4.947   1.171   2.707  0.00  0.00    +0.125 C 
BRANCH  26  27
ATOM     27  C   UNL     1      -4.869   2.696   2.608  0.00  0.00    +0.009 C 
ATOM     28  C   UNL     1      -3.433   3.151   2.874  0.00  0.00    +0.005 C 
ATOM     29  C   UNL     1      -3.354   4.676   2.776  0.00  0.00    +0.000 C 
ATOM     30  C   UNL     1      -4.288   5.303   3.812  0.00  0.00    +0.000 C 
ATOM     31  C   UNL     1      -5.724   4.848   3.546  0.00  0.00    +0.000 C 
ATOM     32  C   UNL     1      -5.803   3.323   3.645  0.00  0.00    +0.005 C 
ENDBRANCH  26  27
ENDBRANCH   3  26
BRANCH   2  33
ATOM     33  C   UNL     1      -1.964   0.452   2.965  0.00  0.00    +0.065 C 
BRANCH  33  34
ATOM     34  C   UNL     1      -2.032  -0.795   3.849  0.00  0.00    +0.126 C 
BRANCH  34  35
ATOM     35  C   UNL     1      -1.173  -0.592   5.071  0.00  0.00    +0.307 C 
ATOM     36  O   UNL     1      -0.569   0.444   5.219  0.00  0.00    -0.251 OA
BRANCH  35  37
ATOM     37  O   UNL     1      -1.079  -1.562   5.994  0.00  0.00    -0.468 OA
ATOM     38  C   UNL     1      -0.247  -1.301   7.126  0.00  0.00    +0.280 C 
ENDBRANCH  35  37
ENDBRANCH  34  35
ENDBRANCH  33  34
ENDBRANCH   2  33
TORSDOF 9
