REMARK  Name = ZINC08725987
REMARK  10 active torsions:
REMARK  status: ('A' for Active; 'I' for Inactive)
REMARK    1  A    between atoms: C_1  and  C_2
REMARK    2  A    between atoms: C_5  and  N_8
REMARK    3  A    between atoms: C_9  and  C_22
REMARK    4  A    between atoms: N_11  and  C_14
REMARK    5  A    between atoms: C_14  and  N_53
REMARK    6  A    between atoms: C_15  and  C_16
REMARK    7  A    between atoms: C_15  and  N_53
REMARK    8  A    between atoms: C_19  and  C_20
REMARK    9  A    between atoms: C_19  and  C_21
REMARK   10  A    between atoms: C_19  and  N_53
REMARK                            x       y       z     vdW  Elec       q    Type
REMARK                         _______ _______ _______ _____ _____    ______ ____
ROOT
ATOM      1  N   UNL     1       1.122  -0.028  -0.261  0.00  0.00    -0.271 N 
ATOM      2  C   UNL     1      -0.240   0.176  -0.136  0.00  0.00    +0.167 A 
ATOM      3  N   UNL     1      -0.448   1.440   0.108  0.00  0.00    -0.152 NA
ATOM      4  N   UNL     1       0.796   2.085   0.146  0.00  0.00    -0.257 N 
ATOM      5  C   UNL     1       1.744   1.154  -0.084  0.00  0.00    +0.181 A 
ATOM      6  S   UNL     1       3.434   1.425  -0.142  0.00  0.00    -0.011 S 
ENDROOT
BRANCH   1  11
ATOM      7  C   UNL     1       3.655  -4.992  -1.330  0.00  0.00    +0.044 C 
ATOM      8  C   UNL     1       2.982  -3.674  -1.046  0.00  0.00    -0.050 A 
ATOM      9  C   UNL     1       2.970  -2.684  -2.011  0.00  0.00    +0.005 A 
ATOM     10  C   UNL     1       2.355  -1.474  -1.754  0.00  0.00    +0.026 A 
ATOM     11  C   UNL     1       1.747  -1.254  -0.525  0.00  0.00    +0.050 A 
ATOM     12  C   UNL     1       1.766  -2.248   0.444  0.00  0.00    +0.026 A 
ATOM     13  C   UNL     1       2.378  -3.458   0.179  0.00  0.00    +0.005 A 
ENDBRANCH   1  11
BRANCH   2  14
ATOM     14  C   UNL     1      -1.285  -0.863  -0.260  0.00  0.00    +0.020 A 
ATOM     15  C   UNL     1      -0.997  -2.074  -0.891  0.00  0.00    +0.013 A 
ATOM     16  C   UNL     1      -1.974  -3.042  -0.998  0.00  0.00    +0.021 A 
ATOM     17  C   UNL     1      -3.241  -2.809  -0.491  0.00  0.00    +0.041 A 
ATOM     18  C   UNL     1      -3.534  -1.608   0.131  0.00  0.00    +0.021 A 
ATOM     19  C   UNL     1      -2.564  -0.635   0.249  0.00  0.00    +0.013 A 
ATOM     20 CL   UNL     1      -4.468  -4.029  -0.637  0.00  0.00    -0.084 Cl
ENDBRANCH   2  14
BRANCH   4  21
ATOM     21  C   UNL     1       1.024   3.511   0.392  0.00  0.00    +0.073 C 
BRANCH  21  22
ATOM     22  N   UNL     1       1.208   3.722   1.843  0.00  0.00    +0.400 N 
ATOM     23  H   UNL     1       1.926   3.073   2.186  0.00  0.00    -0.078 HD
BRANCH  22  24
ATOM     24  C   UNL     1      -0.059   3.456   2.556  0.00  0.00    -0.072 C 
ATOM     25  C   UNL     1       0.211   3.463   4.062  0.00  0.00    -0.013 C 
ATOM     26  C   UNL     1      -1.099   4.528   2.220  0.00  0.00    -0.013 C 
ENDBRANCH  22  24
BRANCH  22  27
ATOM     27  C   UNL     1       1.651   5.108   2.100  0.00  0.00    +0.021 C 
BRANCH  27  28
ATOM     28  C   UNL     1       3.122   5.210   1.788  0.00  0.00    +0.194 C 
ATOM     29  O   UNL     1       3.720   4.245   1.363  0.00  0.00    -0.278 OA
ATOM     30  N   UNL     1       3.773   6.375   1.980  0.00  0.00    -0.331 N 
ATOM     31  H   UNL     1       3.294   7.147   2.320  0.00  0.00    +0.145 HD
ATOM     32  H   UNL     1       4.719   6.441   1.779  0.00  0.00    +0.145 HD
ENDBRANCH  27  28
ENDBRANCH  22  27
ENDBRANCH  21  22
ENDBRANCH   4  21
TORSDOF 7
