REMARK  Name = ZINC16183720
REMARK  9 active torsions:
REMARK  status: ('A' for Active; 'I' for Inactive)
REMARK    1  A    between atoms: C_1  and  C_2
REMARK    2  A    between atoms: C_2  and  O_3
REMARK    3  A    between atoms: O_3  and  C_4
REMARK    4  A    between atoms: C_6  and  C_14
REMARK    5  A    between atoms: C_8  and  N_11
REMARK    6  A    between atoms: C_9  and  O_10
REMARK    7  A    between atoms: C_16  and  C_30
REMARK    8  A    between atoms: N_18  and  C_21
REMARK    9  A    between atoms: C_24  and  C_27
REMARK                            x       y       z     vdW  Elec       q    Type
REMARK                         _______ _______ _______ _____ _____    ______ ____
ROOT
ATOM      1  C   UNL     1       0.605  -4.948  -0.018  0.00  0.00    +0.023 C 
ATOM      2  C   UNL     1       0.438  -6.318   0.081  0.00  0.00    +0.071 C 
ATOM      3  C   UNL     1       1.487  -7.343   0.195  0.00  0.00    +0.174 C 
ATOM      4  N   UNL     1       0.900  -8.498   0.263  0.00  0.00    -0.167 NA
ATOM      5  N   UNL     1      -0.487  -8.370   0.206  0.00  0.00    -0.156 N 
ATOM      6  C   UNL     1      -0.828  -7.070   0.102  0.00  0.00    +0.272 C 
ATOM      7  O   UNL     1      -1.955  -6.610   0.035  0.00  0.00    -0.268 OA
ENDROOT
BRANCH   1  10
ATOM      8  C   UNL     1      -1.751  -2.039   0.101  0.00  0.00    +0.165 A 
ATOM      9  C   UNL     1      -0.661  -2.844   0.356  0.00  0.00    +0.057 A 
ATOM     10  C   UNL     1      -0.548  -4.089  -0.283  0.00  0.00    -0.018 A 
ATOM     11  C   UNL     1      -1.546  -4.505  -1.178  0.00  0.00    +0.044 A 
ATOM     12  C   UNL     1      -2.629  -3.693  -1.425  0.00  0.00    +0.172 A 
ATOM     13  C   UNL     1      -2.741  -2.463  -0.786  0.00  0.00    +0.189 A 
BRANCH  12  14
ATOM     14  N   UNL     1      -3.681  -4.133  -2.369  0.00  0.00    +0.060 N 
ATOM     15  O   UNL     1      -3.588  -5.204  -2.921  0.00  0.00    -0.126 OA
ATOM     16  O   UNL     1      -4.634  -3.421  -2.587  0.00  0.00    -0.126 OA
ENDBRANCH  12  14
BRANCH  13  17
ATOM     17  O   UNL     1      -3.816  -1.670  -1.030  0.00  0.00    -0.502 OA
ATOM     18  H   UNL     1      -3.693  -1.058  -1.769  0.00  0.00    +0.292 HD
ENDBRANCH  13  17
BRANCH   8  19
ATOM     19  O   UNL     1      -1.864  -0.833   0.719  0.00  0.00    -0.488 OA
BRANCH  19  21
ATOM     20  C   UNL     1      -1.114   0.916   2.209  0.00  0.00    +0.048 C 
ATOM     21  C   UNL     1      -0.814  -0.462   1.614  0.00  0.00    +0.226 C 
ENDBRANCH  19  21
ENDBRANCH   8  19
ENDBRANCH   1  10
BRANCH   5  22
ATOM     22  C   UNL     1      -1.390  -9.431   0.256  0.00  0.00    +0.060 A 
ATOM     23  C   UNL     1      -2.758  -9.183   0.185  0.00  0.00    +0.026 A 
ATOM     24  C   UNL     1      -3.652 -10.228   0.234  0.00  0.00    +0.017 A 
ATOM     25  C   UNL     1      -3.185 -11.541   0.356  0.00  0.00    +0.063 A 
ATOM     26  C   UNL     1      -1.810 -11.787   0.427  0.00  0.00    +0.017 A 
ATOM     27  C   UNL     1      -0.921 -10.737   0.372  0.00  0.00    +0.026 A 
BRANCH  25  28
ATOM     28  C   UNL     1      -4.139 -12.662   0.409  0.00  0.00    +0.387 C 
ATOM     29  O   UNL     1      -5.341 -12.445   0.347  0.00  0.00    -0.241 OA
ATOM     30  O   UNL     1      -3.729 -13.809   0.516  0.00  0.00    -0.241 OA
ENDBRANCH  25  28
ENDBRANCH   5  22
BRANCH   3  31
ATOM     31  C   UNL     1       2.973  -7.096   0.226  0.00  0.00    +0.436 C 
ATOM     32  F   UNL     1       3.647  -8.317   0.342  0.00  0.00    -0.164 F 
ATOM     33  F   UNL     1       3.365  -6.458  -0.956  0.00  0.00    -0.164 F 
ATOM     34  F   UNL     1       3.288  -6.284   1.321  0.00  0.00    -0.164 F 
ENDBRANCH   3  31
TORSDOF 8
