REMARK  Name = ZINC39192465
REMARK  16 active torsions:
REMARK  status: ('A' for Active; 'I' for Inactive)
REMARK    1  A    between atoms: C_1  and  C_2
REMARK    2  A    between atoms: C_2  and  C_3
REMARK    3  A    between atoms: C_3  and  C_4
REMARK    4  A    between atoms: C_4  and  O_5
REMARK    5  A    between atoms: O_5  and  C_6
REMARK    6  A    between atoms: C_6  and  C_8
REMARK    7  A    between atoms: C_11  and  N_14
REMARK    8  A    between atoms: C_15  and  C_17
REMARK    9  A    between atoms: C_17  and  O_18
REMARK   10  A    between atoms: O_18  and  C_19
REMARK   11  A    between atoms: C_19  and  C_21
REMARK   12  A    between atoms: C_21  and  C_23
REMARK   13  A    between atoms: C_21  and  N_26
REMARK   14  A    between atoms: C_23  and  C_24
REMARK   15  A    between atoms: C_23  and  C_25
REMARK   16  A    between atoms: C_27  and  C_29
REMARK                            x       y       z     vdW  Elec       q    Type
REMARK                         _______ _______ _______ _____ _____    ______ ____
ROOT
ATOM      1  N   UNL     1       4.105  -5.918  -7.152  0.00  0.00    -0.283 N 
ATOM      2  C   UNL     1       4.294  -7.247  -7.267  0.00  0.00    +0.255 C 
ATOM      3  O   UNL     1       3.828  -8.000  -6.438  0.00  0.00    -0.272 OA
ATOM      4  H   UNL     1       4.411  -5.322  -7.853  0.00  0.00    +0.155 HD
ENDROOT
BRANCH   1   8
ATOM      5  C   UNL     1       2.207  -4.368  -3.783  0.00  0.00    +0.059 A 
ATOM      6  C   UNL     1       3.015  -5.503  -3.672  0.00  0.00    +0.017 A 
ATOM      7  C   UNL     1       3.641  -6.012  -4.787  0.00  0.00    +0.024 A 
ATOM      8  C   UNL     1       3.469  -5.399  -6.024  0.00  0.00    +0.034 A 
ATOM      9  C   UNL     1       2.665  -4.269  -6.139  0.00  0.00    +0.024 A 
ATOM     10  C   UNL     1       2.032  -3.758  -5.029  0.00  0.00    +0.017 A 
BRANCH   5  11
ATOM     11  C   UNL     1       1.534  -3.820  -2.591  0.00  0.00    +0.339 C 
ATOM     12  O   UNL     1       0.828  -2.836  -2.690  0.00  0.00    -0.245 OA
BRANCH  11  13
ATOM     13  O   UNL     1       1.704  -4.409  -1.391  0.00  0.00    -0.461 OA
BRANCH  13  14
ATOM     14  C   UNL     1       1.023  -3.824  -0.279  0.00  0.00    +0.232 C 
BRANCH  14  15
ATOM     15  C   UNL     1       1.334  -4.625   0.988  0.00  0.00    +0.041 C 
BRANCH  15  17
ATOM     16  C   UNL     1       0.916  -4.799   3.445  0.00  0.00    +0.004 C 
ATOM     17  C   UNL     1       0.605  -3.999   2.178  0.00  0.00    -0.000 C 
ENDBRANCH  15  17
ENDBRANCH  14  15
ENDBRANCH  13  14
ENDBRANCH  11  13
ENDBRANCH   5  11
ENDBRANCH   1   8
BRANCH   2  18
ATOM     18  C   UNL     1       5.085  -7.798  -8.425  0.00  0.00    +0.328 C 
BRANCH  18  19
ATOM     19  O   UNL     1       5.145  -9.222  -8.326  0.00  0.00    -0.454 OA
BRANCH  19  20
ATOM     20  C   UNL     1       5.819  -9.872  -9.289  0.00  0.00    +0.328 C 
ATOM     21  O   UNL     1       6.340  -9.252 -10.185  0.00  0.00    -0.249 OA
BRANCH  20  22
ATOM     22  C   UNL     1       5.925 -11.375  -9.251  0.00  0.00    +0.185 C 
BRANCH  22  23
ATOM     23  N   UNL     1       6.703 -11.838 -10.402  0.00  0.00    -0.296 N 
ATOM     24  C   UNL     1       7.356 -13.016 -10.344  0.00  0.00    +0.280 C 
ATOM     25  O   UNL     1       7.298 -13.694  -9.335  0.00  0.00    -0.267 OA
ATOM     26  H   UNL     1       6.749 -11.298 -11.206  0.00  0.00    +0.150 HD
BRANCH  24  27
ATOM     27  C   UNL     1       8.135 -13.480 -11.496  0.00  0.00    +0.189 A 
ATOM     28  C   UNL     1       8.836 -14.650 -11.573  0.00  0.00    +0.054 A 
ATOM     29  C   UNL     1       9.424 -14.686 -12.847  0.00  0.00    +0.042 A 
ATOM     30  C   UNL     1       9.061 -13.551 -13.484  0.00  0.00    +0.196 A 
ATOM     31  O   UNL     1       8.280 -12.830 -12.669  0.00  0.00    -0.458 OA
ENDBRANCH  24  27
ENDBRANCH  22  23
BRANCH  22  32
ATOM     32  C   UNL     1       4.524 -11.987  -9.303  0.00  0.00    +0.014 C 
ATOM     33  C   UNL     1       4.631 -13.512  -9.264  0.00  0.00    +0.009 C 
ATOM     34  C   UNL     1       3.711 -11.502  -8.101  0.00  0.00    +0.009 C 
ENDBRANCH  22  32
ENDBRANCH  20  22
ENDBRANCH  19  20
ENDBRANCH  18  19
ENDBRANCH   2  18
TORSDOF 13
