REMARK  Name = ZINC09962935
REMARK  10 active torsions:
REMARK  status: ('A' for Active; 'I' for Inactive)
REMARK    1  A    between atoms: C_1  and  C_2
REMARK    2  A    between atoms: C_2  and  C_30
REMARK    3  A    between atoms: N_5  and  N_9
REMARK    4  A    between atoms: C_10  and  C_12
REMARK    5  A    between atoms: C_12  and  O_13
REMARK    6  A    between atoms: O_13  and  C_14
REMARK    7  A    between atoms: C_14  and  C_16
REMARK    8  A    between atoms: C_16  and  C_17
REMARK    9  A    between atoms: C_16  and  C_23
REMARK   10  A    between atoms: C_16  and  O_29
REMARK                            x       y       z     vdW  Elec       q    Type
REMARK                         _______ _______ _______ _____ _____    ______ ____
ROOT
ATOM      1  N   UNL     1       2.327   1.968  -6.043  0.00  0.00    -0.221 N 
ATOM      2  C   UNL     1       1.710   1.787  -4.859  0.00  0.00    +0.267 C 
ATOM      3  O   UNL     1       0.533   1.496  -4.826  0.00  0.00    -0.271 OA
ATOM      4  H   UNL     1       3.268   2.201  -6.069  0.00  0.00    +0.174 HD
ENDROOT
BRANCH   1   9
ATOM      5  C   UNL     1       1.173   2.565 -10.495  0.00  0.00    +0.047 C 
ATOM      6  C   UNL     1       0.473   2.220  -9.179  0.00  0.00    +0.137 C 
ATOM      7  C   UNL     1       1.201   2.849  -8.007  0.00  0.00    +0.267 C 
ATOM      8  O   UNL     1       1.380   4.031  -7.805  0.00  0.00    -0.271 OA
ATOM      9  N   UNL     1       1.609   1.821  -7.237  0.00  0.00    -0.137 N 
ATOM     10  C   UNL     1       1.248   0.642  -7.756  0.00  0.00    +0.327 C 
ATOM     11  O   UNL     1       1.506  -0.430  -7.244  0.00  0.00    -0.251 OA
ATOM     12  N   UNL     1       0.564   0.775  -8.907  0.00  0.00    -0.280 N 
ATOM     13  H   UNL     1       0.205   0.059  -9.454  0.00  0.00    +0.152 HD
BRANCH   6  14
ATOM     14  C   UNL     1      -0.966   2.664  -9.209  0.00  0.00    -0.015 A 
ATOM     15  C   UNL     1      -1.317   3.906  -8.713  0.00  0.00    +0.006 A 
ATOM     16  C   UNL     1      -2.637   4.316  -8.746  0.00  0.00    +0.000 A 
ATOM     17  C   UNL     1      -3.608   3.479  -9.264  0.00  0.00    +0.000 A 
ATOM     18  C   UNL     1      -3.258   2.235  -9.755  0.00  0.00    +0.000 A 
ATOM     19  C   UNL     1      -1.937   1.827  -9.727  0.00  0.00    +0.006 A 
ENDBRANCH   6  14
ENDBRANCH   1   9
BRANCH   2  20
ATOM     20  C   UNL     1       2.483   1.945  -3.575  0.00  0.00    +0.329 C 
BRANCH  20  21
ATOM     21  O   UNL     1       1.602   1.700  -2.447  0.00  0.00    -0.453 OA
BRANCH  21  22
ATOM     22  C   UNL     1       2.139   1.802  -1.221  0.00  0.00    +0.349 C 
ATOM     23  O   UNL     1       3.307   2.087  -1.095  0.00  0.00    -0.247 OA
BRANCH  22  24
ATOM     24  C   UNL     1       1.286   1.562  -0.002  0.00  0.00    +0.213 C 
BRANCH  24  25
ATOM     25  C   UNL     1       0.566   2.833   0.366  0.00  0.00    -0.001 A 
ATOM     26  C   UNL     1       1.220   4.048   0.280  0.00  0.00    +0.007 A 
ATOM     27  C   UNL     1       0.557   5.215   0.612  0.00  0.00    +0.000 A 
ATOM     28  C   UNL     1      -0.756   5.166   1.040  0.00  0.00    +0.000 A 
ATOM     29  C   UNL     1      -1.409   3.950   1.132  0.00  0.00    +0.000 A 
ATOM     30  C   UNL     1      -0.748   2.784   0.794  0.00  0.00    +0.007 A 
ENDBRANCH  24  25
BRANCH  24  31
ATOM     31  C   UNL     1       2.162   1.130   1.147  0.00  0.00    -0.001 A 
ATOM     32  C   UNL     1       3.090   2.008   1.676  0.00  0.00    +0.007 A 
ATOM     33  C   UNL     1       3.889   1.614   2.733  0.00  0.00    +0.000 A 
ATOM     34  C   UNL     1       3.768   0.339   3.253  0.00  0.00    +0.000 A 
ATOM     35  C   UNL     1       2.843  -0.540   2.721  0.00  0.00    +0.000 A 
ATOM     36  C   UNL     1       2.040  -0.144   1.667  0.00  0.00    +0.007 A 
ENDBRANCH  24  31
BRANCH  24  37
ATOM     37  O   UNL     1       0.331   0.537  -0.284  0.00  0.00    -0.370 OA
ATOM     38  H   UNL     1       0.725  -0.311  -0.528  0.00  0.00    +0.212 HD
ENDBRANCH  24  37
ENDBRANCH  22  24
ENDBRANCH  21  22
ENDBRANCH  20  21
ENDBRANCH   2  20
TORSDOF 9
