REMARK  Name = ZINC17094723
REMARK  6 active torsions:
REMARK  status: ('A' for Active; 'I' for Inactive)
REMARK    1  A    between atoms: C_6  and  N_7
REMARK    2  A    between atoms: C_14  and  C_16
REMARK    3  A    between atoms: C_16  and  C_17
REMARK    4  A    between atoms: C_17  and  C_18
REMARK    5  A    between atoms: C_18  and  O_19
REMARK    6  A    between atoms: O_19  and  C_20
REMARK                            x       y       z     vdW  Elec       q    Type
REMARK                         _______ _______ _______ _____ _____    ______ ____
ROOT
ATOM      1  C   UNL     1      -0.017   1.383   0.010  0.00  0.00    +0.035 A 
ATOM      2  C   UNL     1       1.142   2.115   0.003  0.00  0.00    +0.031 A 
ATOM      3  C   UNL     1       2.402   1.474  -0.013  0.00  0.00    +0.080 A 
ATOM      4  C   UNL     1       2.382   0.060  -0.020  0.00  0.00    +0.043 A 
ATOM      5  C   UNL     1       1.217  -0.665  -0.014  0.00  0.00    +0.050 A 
ATOM      6  C   UNL     1       0.002  -0.004   0.002  0.00  0.00    +0.127 A 
ATOM      7  S   UNL     1       4.113  -0.342  -0.038  0.00  0.00    -0.052 S 
ATOM      8  C   UNL     1       4.733   1.334  -0.034  0.00  0.00    +0.165 A 
ATOM      9  N   UNL     1       3.627   2.042  -0.021  0.00  0.00    -0.225 NA
ATOM     10  N   UNL     1       6.046   1.775  -0.043  0.00  0.00    -0.265 N 
ATOM     11  C   UNL     1       6.314   3.096  -0.039  0.00  0.00    +0.219 C 
ATOM     12  O   UNL     1       5.405   3.899  -0.026  0.00  0.00    -0.275 OA
ATOM     13  H   UNL     1       6.773   1.133  -0.053  0.00  0.00    +0.157 HD
ENDROOT
BRANCH   6  14
ATOM     14  N   UNL     1      -1.265  -0.769   0.010  0.00  0.00    +0.056 N 
ATOM     15  O   UNL     1      -2.324  -0.185   0.023  0.00  0.00    -0.126 OA
ATOM     16  O   UNL     1      -1.242  -1.978   0.003  0.00  0.00    -0.126 OA
ENDBRANCH   6  14
BRANCH  11  17
ATOM     17  C   UNL     1       7.742   3.575  -0.049  0.00  0.00    +0.099 C 
BRANCH  17  18
ATOM     18  C   UNL     1       7.767   5.105  -0.041  0.00  0.00    +0.050 C 
BRANCH  18  19
ATOM     19  C   UNL     1       9.217   5.592  -0.051  0.00  0.00    +0.229 C 
BRANCH  19  20
ATOM     20  O   UNL     1       9.241   7.021  -0.043  0.00  0.00    -0.490 OA
BRANCH  20  21
ATOM     21  C   UNL     1      10.462   7.618  -0.051  0.00  0.00    +0.139 A 
ATOM     22  C   UNL     1      11.613   6.845  -0.071  0.00  0.00    +0.048 A 
ATOM     23  C   UNL     1      12.853   7.454  -0.078  0.00  0.00    +0.023 A 
ATOM     24  C   UNL     1      12.947   8.835  -0.066  0.00  0.00    +0.043 A 
ATOM     25  C   UNL     1      11.801   9.608  -0.046  0.00  0.00    +0.043 A 
ATOM     26  C   UNL     1      10.558   9.003  -0.044  0.00  0.00    +0.084 A 
ATOM     27 CL   UNL     1       9.119   9.974  -0.026  0.00  0.00    -0.080 Cl
ATOM     28 CL   UNL     1      14.507   9.597  -0.075  0.00  0.00    -0.083 Cl
ENDBRANCH  20  21
ENDBRANCH  19  20
ENDBRANCH  18  19
ENDBRANCH  17  18
ENDBRANCH  11  17
TORSDOF 6
