REMARK  Name = ZINC38768608
REMARK  6 active torsions:
REMARK  status: ('A' for Active; 'I' for Inactive)
REMARK    1  A    between atoms: C_6  and  C_7
REMARK    2  A    between atoms: C_9  and  C_13
REMARK    3  A    between atoms: C_13  and  O_15
REMARK    4  A    between atoms: O_15  and  C_16
REMARK    5  A    between atoms: C_16  and  C_17
REMARK    6  A    between atoms: C_19  and  C_22
REMARK                            x       y       z     vdW  Elec       q    Type
REMARK                         _______ _______ _______ _____ _____    ______ ____
ROOT
ATOM      1  O   UNL     1      -4.774  -3.792   0.035  0.00  0.00    -0.454 OA
ENDROOT
BRANCH   1   2
ATOM      2  C   UNL     1      -3.428  -3.718   0.024  0.00  0.00    +0.358 C 
ATOM      3  O   UNL     1      -2.763  -4.735   0.017  0.00  0.00    -0.243 OA
BRANCH   2   6
ATOM      4  C   UNL     1      -1.272  -0.766   0.011  0.00  0.00    +0.093 A 
ATOM      5  C   UNL     1      -1.403  -2.166   0.010  0.00  0.00    +0.064 A 
ATOM      6  C   UNL     1      -2.764  -2.405   0.021  0.00  0.00    +0.143 A 
ATOM      7  N   UNL     1      -3.372  -1.181   0.027  0.00  0.00    -0.270 N 
ATOM      8  H   UNL     1      -4.331  -1.035   0.035  0.00  0.00    +0.189 HD
ATOM      9  N   UNL     1      -2.485  -0.253   0.026  0.00  0.00    -0.173 NA
BRANCH   4  15
ATOM     10  C   UNL     1      -0.017   1.389   0.010  0.00  0.00    +0.013 A 
ATOM     11  C   UNL     1       1.170   2.093   0.002  0.00  0.00    +0.039 A 
ATOM     12  C   UNL     1       2.379   1.417  -0.013  0.00  0.00    +0.123 A 
ATOM     13  C   UNL     1       2.402   0.032  -0.021  0.00  0.00    +0.039 A 
ATOM     14  C   UNL     1       1.220  -0.680  -0.013  0.00  0.00    +0.013 A 
ATOM     15  C   UNL     1       0.002  -0.004   0.002  0.00  0.00    +0.002 A 
ATOM     16  F   UNL     1       3.538   2.110  -0.021  0.00  0.00    -0.205 F 
ENDBRANCH   4  15
ENDBRANCH   2   6
ENDBRANCH   1   2
BRANCH   1  17
ATOM     17  C   UNL     1      -5.351  -5.100   0.037  0.00  0.00    +0.291 C 
BRANCH  17  18
ATOM     18  C   UNL     1      -6.854  -4.986   0.050  0.00  0.00    +0.121 A 
ATOM     19  C   UNL     1      -7.586  -3.790   0.052  0.00  0.00    +0.079 A 
ATOM     20  C   UNL     1      -8.910  -4.108   0.064  0.00  0.00    +0.168 A 
ATOM     21  O   UNL     1      -9.008  -5.451   0.070  0.00  0.00    -0.354 OA
ATOM     22  N   UNL     1      -7.695  -5.982   0.055  0.00  0.00    -0.079 NA
BRANCH  20  23
ATOM     23  C   UNL     1     -10.036  -3.152   0.071  0.00  0.00    +0.024 A 
ATOM     24  C   UNL     1      -9.788  -1.778   0.059  0.00  0.00    +0.015 A 
ATOM     25  C   UNL     1     -10.841  -0.888   0.066  0.00  0.00    +0.050 A 
ATOM     26  C   UNL     1     -12.150  -1.353   0.084  0.00  0.00    +0.162 A 
ATOM     27  C   UNL     1     -12.404  -2.721   0.094  0.00  0.00    +0.163 A 
ATOM     28  C   UNL     1     -11.351  -3.619   0.084  0.00  0.00    +0.061 A 
ATOM     29  O   UNL     1     -13.681  -3.192   0.103  0.00  0.00    -0.485 OA
ATOM     30  C   UNL     1     -14.706  -2.267   0.483  0.00  0.00    +0.270 C 
ATOM     31  C   UNL     1     -14.467  -0.951  -0.268  0.00  0.00    +0.270 C 
ATOM     32  O   UNL     1     -13.173  -0.456   0.094  0.00  0.00    -0.485 OA
ENDBRANCH  20  23
ENDBRANCH  17  18
ENDBRANCH   1  17
TORSDOF 6
