REMARK  Name = ZINC08651880
REMARK  12 active torsions:
REMARK  status: ('A' for Active; 'I' for Inactive)
REMARK    1  A    between atoms: C_1  and  C_2
REMARK    2  A    between atoms: C_2  and  C_3
REMARK    3  A    between atoms: C_3  and  C_4
REMARK    4  A    between atoms: C_4  and  C_5
REMARK    5  A    between atoms: C_5  and  C_7
REMARK    6  A    between atoms: C_5  and  S_11
REMARK    7  A    between atoms: C_7  and  O_9
REMARK    8  A    between atoms: O_9  and  C_10
REMARK    9  A    between atoms: S_11  and  C_12
REMARK   10  A    between atoms: C_15  and  C_29
REMARK   11  A    between atoms: C_17  and  S_18
REMARK   12  A    between atoms: S_18  and  N_21
REMARK                            x       y       z     vdW  Elec       q    Type
REMARK                         _______ _______ _______ _____ _____    ______ ____
ROOT
ATOM      1  C   UNL     1       1.274   1.789   3.515  0.00  0.00    +0.037 A 
ATOM      2  C   UNL     1       0.907   0.687   4.280  0.00  0.00    +0.037 A 
ATOM      3  C   UNL     1       1.881  -0.124   4.831  0.00  0.00    +0.045 A 
ATOM      4  C   UNL     1       3.220   0.160   4.621  0.00  0.00    -0.030 A 
ATOM      5  C   UNL     1       3.587   1.255   3.861  0.00  0.00    +0.034 A 
ATOM      6  C   UNL     1       2.619   2.067   3.303  0.00  0.00    +0.122 A 
ATOM      7  C   UNL     1       4.279  -0.727   5.223  0.00  0.00    +0.045 C 
ATOM      8 CL   UNL     1       1.425  -1.500   5.785  0.00  0.00    -0.083 Cl
ENDROOT
BRANCH   6   9
ATOM      9  S   UNL     1       3.088   3.457   2.329  0.00  0.00    +0.076 S 
ATOM     10  O   UNL     1       4.509   3.500   2.340  0.00  0.00    -0.150 OA
ATOM     11  O   UNL     1       2.338   3.382   1.124  0.00  0.00    -0.150 OA
BRANCH   9  12
ATOM     12  N   UNL     1       2.568   4.812   3.126  0.00  0.00    -0.184 N 
ATOM     13  C   UNL     1       3.102   5.136   4.365  0.00  0.00    +0.233 A 
ATOM     14  N   UNL     1       2.564   6.040   5.255  0.00  0.00    -0.297 N 
ATOM     15  H   UNL     1       1.753   6.555   5.123  0.00  0.00    +0.171 HD
ATOM     16  C   UNL     1       3.376   6.080   6.361  0.00  0.00    +0.196 A 
ATOM     17  N   UNL     1       4.403   5.208   6.131  0.00  0.00    -0.245 N 
ATOM     18  H   UNL     1       5.142   5.019   6.731  0.00  0.00    +0.192 HD
ATOM     19  N   UNL     1       4.191   4.638   4.869  0.00  0.00    -0.135 NA
ATOM     20  H   UNL     1       1.890   5.380   2.727  0.00  0.00    +0.177 HD
ATOM     21  H   UNL     1       3.820   6.895   8.181  0.00  0.00    +0.159 HD
ATOM     22  N   UNL     1       3.140   6.850   7.423  0.00  0.00    -0.370 N 
ATOM     23  H   UNL     1       2.273   7.398   7.477  0.00  0.00    +0.159 HD
ENDBRANCH   9  12
ENDBRANCH   6   9
BRANCH   1  24
ATOM     24  S   UNL     1       0.036   2.826   2.811  0.00  0.00    -0.108 S 
BRANCH  24  25
ATOM     25  C   UNL     1      -1.516   2.186   3.498  0.00  0.00    +0.160 C 
BRANCH  25  26
ATOM     26  C   UNL     1      -1.593   2.524   4.964  0.00  0.00    +0.320 C 
ATOM     27  O   UNL     1      -1.496   1.649   5.792  0.00  0.00    -0.250 OA
BRANCH  26  28
ATOM     28  O   UNL     1      -1.770   3.797   5.351  0.00  0.00    -0.467 OA
ATOM     29  C   UNL     1      -1.835   4.049   6.780  0.00  0.00    +0.280 C 
ENDBRANCH  26  28
ENDBRANCH  25  26
BRANCH  25  30
ATOM     30  C   UNL     1      -2.699   2.822   2.765  0.00  0.00    +0.026 C 
BRANCH  30  31
ATOM     31  C   UNL     1      -2.700   2.365   1.305  0.00  0.00    +0.001 C 
BRANCH  31  33
ATOM     32  C   UNL     1      -3.734   2.728  -0.941  0.00  0.00    +0.004 C 
ATOM     33  C   UNL     1      -3.811   3.091   0.544  0.00  0.00    -0.003 C 
ENDBRANCH  31  33
ENDBRANCH  30  31
ENDBRANCH  25  30
ENDBRANCH  24  25
ENDBRANCH   1  24
TORSDOF 9
