REMARK  Name = ZINC59273431
REMARK  10 active torsions:
REMARK  status: ('A' for Active; 'I' for Inactive)
REMARK    1  A    between atoms: C_1  and  C_2
REMARK    2  A    between atoms: C_2  and  O_3
REMARK    3  A    between atoms: O_3  and  C_4
REMARK    4  A    between atoms: C_7  and  O_10
REMARK    5  A    between atoms: O_10  and  C_11
REMARK    6  A    between atoms: C_11  and  C_13
REMARK    7  A    between atoms: C_11  and  C_14
REMARK    8  A    between atoms: N_16  and  N_17
REMARK    9  A    between atoms: C_18  and  C_20
REMARK   10  A    between atoms: N_23  and  C_25
REMARK                            x       y       z     vdW  Elec       q    Type
REMARK                         _______ _______ _______ _____ _____    ______ ____
ROOT
ATOM      1  N   UNL     1       0.754  -9.454  -4.995  0.00  0.00    -0.229 N 
ATOM      2  C   UNL     1       1.135 -10.077  -6.128  0.00  0.00    +0.281 C 
ATOM      3  O   UNL     1       2.023  -9.605  -6.811  0.00  0.00    -0.267 OA
ATOM      4  H   UNL     1       0.046  -9.831  -4.449  0.00  0.00    +0.173 HD
ENDROOT
BRANCH   2   5
ATOM      5  C   UNL     1       0.475 -11.332  -6.538  0.00  0.00    +0.152 A 
ATOM      6  C   UNL     1       0.767 -12.099  -7.690  0.00  0.00    +0.006 A 
ATOM      7  C   UNL     1      -0.078 -13.151  -7.656  0.00  0.00    +0.049 A 
ATOM      8  N   UNL     1      -0.838 -13.015  -6.535  0.00  0.00    -0.236 N 
ATOM      9  N   UNL     1      -0.496 -11.954  -5.897  0.00  0.00    -0.161 NA
ATOM     10  C   UNL     1       0.153 -14.044  -8.854  0.00  0.00    +0.056 C 
ATOM     11  C   UNL     1       0.956 -13.179  -9.851  0.00  0.00    +0.011 C 
ATOM     12  C   UNL     1       1.653 -12.171  -8.910  0.00  0.00    +0.040 C 
BRANCH   8  13
ATOM     13  C   UNL     1      -1.843 -13.905  -6.133  0.00  0.00    +0.069 A 
ATOM     14  C   UNL     1      -2.624 -14.547  -7.085  0.00  0.00    +0.031 A 
ATOM     15  C   UNL     1      -3.615 -15.424  -6.689  0.00  0.00    +0.043 A 
ATOM     16  C   UNL     1      -3.829 -15.665  -5.342  0.00  0.00    +0.159 A 
ATOM     17  C   UNL     1      -3.050 -15.026  -4.389  0.00  0.00    +0.160 A 
ATOM     18  C   UNL     1      -2.054 -14.151  -4.784  0.00  0.00    +0.069 A 
ATOM     19  F   UNL     1      -3.261 -15.261  -3.076  0.00  0.00    -0.202 F 
ATOM     20  F   UNL     1      -4.798 -16.523  -4.956  0.00  0.00    -0.202 F 
ENDBRANCH   8  13
ENDBRANCH   2   5
BRANCH   1  23
ATOM     21  C   UNL     1       1.000  -7.640  -3.472  0.00  0.00    +0.270 C 
ATOM     22  O   UNL     1       0.114  -8.111  -2.790  0.00  0.00    -0.270 OA
ATOM     23  N   UNL     1       1.381  -8.263  -4.605  0.00  0.00    -0.231 N 
ATOM     24  H   UNL     1       2.089  -7.887  -5.151  0.00  0.00    +0.173 HD
BRANCH  21  25
ATOM     25  C   UNL     1       1.673  -6.359  -3.053  0.00  0.00    +0.257 C 
ATOM     26  C   UNL     1       3.169  -6.612  -2.851  0.00  0.00    +0.062 C 
BRANCH  25  27
ATOM     27  O   UNL     1       1.099  -5.897  -1.829  0.00  0.00    -0.480 OA
BRANCH  27  31
ATOM     28  C   UNL     1       1.357  -1.851  -1.049  0.00  0.00    +0.121 A 
ATOM     29  C   UNL     1       1.991  -2.385  -2.161  0.00  0.00    +0.049 A 
ATOM     30  C   UNL     1       1.905  -3.739  -2.422  0.00  0.00    +0.049 A 
ATOM     31  C   UNL     1       1.184  -4.564  -1.572  0.00  0.00    +0.122 A 
ATOM     32  C   UNL     1       0.551  -4.031  -0.459  0.00  0.00    +0.049 A 
ATOM     33  C   UNL     1       0.641  -2.678  -0.196  0.00  0.00    +0.049 A 
BRANCH  28  34
ATOM     34  O   UNL     1       1.442  -0.519  -0.792  0.00  0.00    -0.492 OA
BRANCH  34  36
ATOM     35  C   UNL     1       2.178   1.735  -1.262  0.00  0.00    +0.048 C 
ATOM     36  C   UNL     1       2.195   0.273  -1.712  0.00  0.00    +0.225 C 
ENDBRANCH  34  36
ENDBRANCH  28  34
ENDBRANCH  27  31
ENDBRANCH  25  27
ENDBRANCH  21  25
ENDBRANCH   1  23
TORSDOF 8
