REMARK  Name = ZINC39656186
REMARK  11 active torsions:
REMARK  status: ('A' for Active; 'I' for Inactive)
REMARK    1  A    between atoms: C_1  and  C_2
REMARK    2  A    between atoms: C_8  and  C_11
REMARK    3  A    between atoms: C_11  and  C_12
REMARK    4  A    between atoms: C_12  and  N_13
REMARK    5  A    between atoms: C_14  and  C_16
REMARK    6  A    between atoms: C_27  and  C_29
REMARK    7  A    between atoms: C_29  and  C_31
REMARK    8  A    between atoms: C_29  and  O_34
REMARK    9  A    between atoms: C_31  and  C_32
REMARK   10  A    between atoms: C_31  and  C_33
REMARK   11  A    between atoms: O_34  and  C_35
REMARK                            x       y       z     vdW  Elec       q    Type
REMARK                         _______ _______ _______ _____ _____    ______ ____
ROOT
ATOM      1  C   UNL     1       4.223  -0.245  -7.384  0.00  0.00    +0.100 C 
ATOM      2  C   UNL     1       5.294   0.251  -6.387  0.00  0.00    +0.121 C 
ATOM      3  N   UNL     1       5.870  -0.987  -5.810  0.00  0.00    -0.297 N 
ATOM      4  C   UNL     1       5.953  -1.924  -6.955  0.00  0.00    +0.115 C 
ATOM      5  C   UNL     1       4.661  -1.671  -7.757  0.00  0.00    -0.004 C 
ATOM      6  C   UNL     1       4.942  -1.763  -9.254  0.00  0.00    -0.010 C 
ATOM      7  C   UNL     1       5.319  -3.204  -9.611  0.00  0.00    -0.082 C 
ATOM      8  N   UNL     1       4.220  -4.105  -9.242  0.00  0.00    +0.379 N 
ATOM      9  C   UNL     1       4.018  -4.080  -7.789  0.00  0.00    -0.082 C 
ATOM     10  C   UNL     1       3.586  -2.676  -7.355  0.00  0.00    -0.010 C 
ATOM     11  C   UNL     1       6.235  -1.209  -4.532  0.00  0.00    +0.257 C 
ATOM     12  O   UNL     1       6.772  -2.253  -4.228  0.00  0.00    -0.272 OA
ATOM     13  H   UNL     1       3.374  -3.806  -9.703  0.00  0.00    -0.086 HD
ATOM     14  H   UNL     1       4.445  -5.044  -9.534  0.00  0.00    -0.086 HD
ENDROOT
BRANCH   1  16
ATOM     15  N   UNL     1       1.757  -0.067  -7.467  0.00  0.00    -0.315 N 
ATOM     16  C   UNL     1       2.866  -0.268  -6.728  0.00  0.00    +0.218 C 
ATOM     17  O   UNL     1       2.773  -0.467  -5.535  0.00  0.00    -0.275 OA
ATOM     18  H   UNL     1       1.832   0.092  -8.421  0.00  0.00    +0.149 HD
BRANCH  15  19
ATOM     19  C   UNL     1       0.438  -0.089  -6.830  0.00  0.00    +0.109 C 
BRANCH  19  20
ATOM     20  C   UNL     1      -0.642   0.164  -7.883  0.00  0.00    +0.056 C 
BRANCH  20  28
ATOM     21  C   UNL     1      -2.801   4.848  -5.390  0.00  0.00    +0.044 C 
ATOM     22  C   UNL     1      -3.178   3.411  -5.647  0.00  0.00    -0.050 A 
ATOM     23  C   UNL     1      -4.399   2.929  -5.199  0.00  0.00    +0.005 A 
ATOM     24  C   UNL     1      -4.763   1.619  -5.423  0.00  0.00    +0.026 A 
ATOM     25  C   UNL     1      -3.899   0.769  -6.106  0.00  0.00    +0.047 A 
ATOM     26  N   UNL     1      -3.968  -0.554  -6.478  0.00  0.00    -0.360 N 
ATOM     27  C   UNL     1      -2.828  -0.911  -7.145  0.00  0.00    +0.087 A 
ATOM     28  C   UNL     1      -1.998   0.141  -7.228  0.00  0.00    -0.021 A 
ATOM     29  C   UNL     1      -2.662   1.264  -6.559  0.00  0.00    +0.003 A 
ATOM     30  C   UNL     1      -2.316   2.596  -6.326  0.00  0.00    +0.013 A 
ATOM     31  H   UNL     1      -4.714  -1.147  -6.294  0.00  0.00    +0.165 HD
ENDBRANCH  20  28
ENDBRANCH  19  20
ENDBRANCH  15  19
ENDBRANCH   1  16
BRANCH  11  32
ATOM     32  C   UNL     1       5.977  -0.161  -3.480  0.00  0.00    +0.261 C 
BRANCH  32  33
ATOM     33  C   UNL     1       7.157   0.812  -3.430  0.00  0.00    +0.033 C 
ATOM     34  C   UNL     1       7.395   1.397  -4.823  0.00  0.00    +0.011 C 
ATOM     35  C   UNL     1       6.843   1.943  -2.448  0.00  0.00    +0.011 C 
ENDBRANCH  32  33
BRANCH  32  36
ATOM     36  O   UNL     1       5.824  -0.791  -2.207  0.00  0.00    -0.479 OA
BRANCH  36  37
ATOM     37  C   UNL     1       4.951  -0.219  -1.337  0.00  0.00    +0.122 A 
ATOM     38  C   UNL     1       4.186   0.868  -1.733  0.00  0.00    +0.045 A 
ATOM     39  C   UNL     1       3.299   1.447  -0.847  0.00  0.00    +0.004 A 
ATOM     40  C   UNL     1       3.173   0.944   0.435  0.00  0.00    +0.000 A 
ATOM     41  C   UNL     1       3.934  -0.139   0.833  0.00  0.00    +0.004 A 
ATOM     42  C   UNL     1       4.819  -0.726  -0.052  0.00  0.00    +0.045 A 
ENDBRANCH  36  37
ENDBRANCH  32  36
ENDBRANCH  11  32
TORSDOF 8
