REMARK  Name = ZINC66337329
REMARK  6 active torsions:
REMARK  status: ('A' for Active; 'I' for Inactive)
REMARK    1  A    between atoms: C_1  and  C_2
REMARK    2  A    between atoms: C_2  and  C_4
REMARK    3  A    between atoms: C_2  and  N_17
REMARK    4  A    between atoms: C_4  and  C_5
REMARK    5  A    between atoms: N_7  and  C_8
REMARK    6  A    between atoms: C_18  and  C_20
REMARK                            x       y       z     vdW  Elec       q    Type
REMARK                         _______ _______ _______ _____ _____    ______ ____
ROOT
ATOM      1  C   UNL     1       0.564  -0.498  -1.336  0.00  0.00    +0.118 C 
ENDROOT
BRANCH   1   2
ATOM      2  C   UNL     1       0.487  -2.001  -1.421  0.00  0.00    +0.219 C 
ATOM      3  O   UNL     1      -0.214  -2.617  -0.646  0.00  0.00    -0.275 OA
ATOM      4  N   UNL     1       1.196  -2.660  -2.358  0.00  0.00    -0.281 N 
ATOM      5  H   UNL     1       1.699  -2.165  -3.024  0.00  0.00    +0.155 HD
BRANCH   4   6
ATOM      6  C   UNL     1       1.207  -4.061  -2.371  0.00  0.00    +0.100 A 
ATOM      7  C   UNL     1       0.783  -4.747  -3.477  0.00  0.00    +0.045 A 
ATOM      8  C   UNL     1       0.805  -6.149  -3.464  0.00  0.00    +0.036 A 
ATOM      9  C   UNL     1       1.242  -6.809  -2.366  0.00  0.00    +0.101 A 
ATOM     10  N   UNL     1       1.664  -6.129  -1.267  0.00  0.00    -0.327 N 
ATOM     11  H   UNL     1       1.974  -6.620  -0.489  0.00  0.00    +0.168 HD
ATOM     12  C   UNL     1       1.663  -4.783  -1.246  0.00  0.00    +0.270 A 
ATOM     13  O   UNL     1       2.049  -4.186  -0.254  0.00  0.00    -0.266 OA
ATOM     14 BR   UNL     1       0.223  -7.118  -4.980  0.00  0.00    -0.049 Br
ENDBRANCH   4   6
ENDBRANCH   1   2
BRANCH   1  16
ATOM     15  C   UNL     1      -0.349   1.525  -0.189  0.00  0.00    +0.028 C 
ATOM     16  C   UNL     1      -0.329  -0.005  -0.196  0.00  0.00    +0.079 C 
BRANCH  16  17
ATOM     17  N   UNL     1       0.196  -0.492   1.081  0.00  0.00    -0.312 N 
ATOM     18  C   UNL     1      -0.628  -0.637   2.138  0.00  0.00    +0.216 C 
ATOM     19  O   UNL     1      -1.805  -0.363   2.031  0.00  0.00    -0.276 OA
ATOM     20  H   UNL     1       1.137  -0.711   1.167  0.00  0.00    +0.149 HD
BRANCH  18  21
ATOM     21  C   UNL     1      -0.088  -1.139   3.452  0.00  0.00    +0.075 C 
ATOM     22  C   UNL     1       0.512  -2.533   3.258  0.00  0.00    +0.013 C 
ATOM     23  C   UNL     1       1.061  -3.042   4.593  0.00  0.00    +0.001 C 
ATOM     24  C   UNL     1      -0.073  -3.113   5.617  0.00  0.00    +0.000 C 
ATOM     25  C   UNL     1      -0.673  -1.719   5.811  0.00  0.00    +0.001 C 
ATOM     26  C   UNL     1      -1.222  -1.210   4.476  0.00  0.00    +0.013 C 
ENDBRANCH  18  21
ENDBRANCH  16  17
ENDBRANCH   1  16
TORSDOF 5
