REMARK  Name = ZINC09613771
REMARK  7 active torsions:
REMARK  status: ('A' for Active; 'I' for Inactive)
REMARK    1  A    between atoms: C_1  and  C_2
REMARK    2  A    between atoms: C_2  and  C_4
REMARK    3  A    between atoms: C_2  and  S_16
REMARK    4  A    between atoms: C_7  and  C_9
REMARK    5  A    between atoms: S_16  and  C_17
REMARK    6  A    between atoms: N_21  and  C_22
REMARK    7  A    between atoms: C_25  and  O_28
REMARK                            x       y       z     vdW  Elec       q    Type
REMARK                         _______ _______ _______ _____ _____    ______ ____
ROOT
ATOM      1  C   UNL     1       3.410   3.282   1.295  0.00  0.00    +0.029 C 
ATOM      2  C   UNL     1       3.963   2.730  -0.021  0.00  0.00    +0.139 C 
ENDROOT
BRANCH   2   3
ATOM      3  C   UNL     1       5.414   3.113  -0.157  0.00  0.00    +0.231 A 
ATOM      4  N   UNL     1       6.413   2.584   0.491  0.00  0.00    -0.111 NA
ATOM      5  N   UNL     1       7.510   3.149   0.126  0.00  0.00    -0.107 NA
ATOM      6  C   UNL     1       7.245   4.072  -0.768  0.00  0.00    +0.248 A 
ATOM      7  O   UNL     1       5.911   4.067  -0.964  0.00  0.00    -0.419 OA
BRANCH   6   8
ATOM      8  C   UNL     1       8.225   4.954  -1.436  0.00  0.00    +0.039 A 
ATOM      9  C   UNL     1       7.797   5.893  -2.376  0.00  0.00    +0.016 A 
ATOM     10  C   UNL     1       8.715   6.716  -2.993  0.00  0.00    +0.039 A 
ATOM     11  C   UNL     1      10.063   6.606  -2.688  0.00  0.00    +0.123 A 
ATOM     12  C   UNL     1      10.494   5.673  -1.758  0.00  0.00    +0.039 A 
ATOM     13  C   UNL     1       9.583   4.848  -1.132  0.00  0.00    +0.016 A 
ATOM     14  F   UNL     1      10.959   7.412  -3.298  0.00  0.00    -0.205 F 
ENDBRANCH   6   8
ENDBRANCH   2   3
BRANCH   2  15
ATOM     15  S   UNL     1       3.812   0.926  -0.029  0.00  0.00    -0.072 S 
BRANCH  15  16
ATOM     16  C   UNL     1       2.057   0.766  -0.013  0.00  0.00    +0.215 A 
ATOM     17  N   UNL     1       1.182   1.749   0.000  0.00  0.00    -0.101 NA
ATOM     18  N   UNL     1      -0.015   1.285   0.009  0.00  0.00    -0.022 NA
ATOM     19  N   UNL     1       0.002  -0.004   0.002  0.00  0.00    -0.038 NA
ATOM     20  N   UNL     1       1.353  -0.393  -0.013  0.00  0.00    -0.187 N 
BRANCH  20  21
ATOM     21  C   UNL     1       1.863  -1.700  -0.025  0.00  0.00    +0.070 A 
ATOM     22  C   UNL     1       3.023  -1.986  -0.733  0.00  0.00    +0.031 A 
ATOM     23  C   UNL     1       3.528  -3.271  -0.740  0.00  0.00    +0.047 A 
ATOM     24  C   UNL     1       2.870  -4.279  -0.050  0.00  0.00    +0.117 A 
ATOM     25  C   UNL     1       1.708  -3.995   0.653  0.00  0.00    +0.047 A 
ATOM     26  C   UNL     1       1.206  -2.709   0.665  0.00  0.00    +0.031 A 
BRANCH  24  27
ATOM     27  O   UNL     1       3.365  -5.545  -0.061  0.00  0.00    -0.507 OA
ATOM     28  H   UNL     1       3.029  -6.092  -0.785  0.00  0.00    +0.292 HD
ENDBRANCH  24  27
ENDBRANCH  20  21
ENDBRANCH  15  16
ENDBRANCH   2  15
TORSDOF 6
