REMARK  Name = ZINC05794087
REMARK  5 active torsions:
REMARK  status: ('A' for Active; 'I' for Inactive)
REMARK    1  A    between atoms: C_1  and  C_2
REMARK    2  A    between atoms: C_2  and  C_3
REMARK    3  A    between atoms: C_3  and  C_4
REMARK    4  A    between atoms: C_7  and  N_19
REMARK    5  A    between atoms: C_14  and  N_15
REMARK                            x       y       z     vdW  Elec       q    Type
REMARK                         _______ _______ _______ _____ _____    ______ ____
ROOT
ATOM      1  C   UNL     1       5.866   1.491   0.577  0.00  0.00    +0.072 C 
ATOM      2  C   UNL     1       4.367   1.246   0.799  0.00  0.00    +0.049 C 
ATOM      3  C   UNL     1       3.735   0.823  -0.527  0.00  0.00    +0.112 C 
ATOM      4  C   UNL     1       4.094   1.798  -1.617  0.00  0.00    +0.024 A 
ATOM      5  C   UNL     1       5.192   2.638  -1.505  0.00  0.00    +0.035 A 
ATOM      6  C   UNL     1       5.498   3.523  -2.532  0.00  0.00    +0.023 A 
ATOM      7  C   UNL     1       4.708   3.569  -3.664  0.00  0.00    +0.004 A 
ATOM      8  C   UNL     1       3.612   2.733  -3.773  0.00  0.00    +0.033 A 
ATOM      9  C   UNL     1       3.306   1.852  -2.754  0.00  0.00    +0.133 A 
ATOM     10  N   UNL     1       6.003   2.610  -0.365  0.00  0.00    -0.341 N 
ATOM     11  H   UNL     1       6.646   3.317  -0.200  0.00  0.00    +0.146 HD
ENDROOT
BRANCH   3  12
ATOM     12  N   UNL     1       2.278   0.780  -0.376  0.00  0.00    -0.294 N 
ATOM     13  C   UNL     1       1.433   1.960  -0.155  0.00  0.00    +0.109 C 
ATOM     14  C   UNL     1      -0.004   1.507  -0.493  0.00  0.00    +0.028 C 
ATOM     15  C   UNL     1       0.078  -0.017  -0.240  0.00  0.00    +0.097 C 
ATOM     16  C   UNL     1       1.543  -0.344  -0.423  0.00  0.00    +0.216 C 
ATOM     17  O   UNL     1       1.990  -1.460  -0.587  0.00  0.00    -0.276 OA
ENDBRANCH   3  12
BRANCH   9  18
ATOM     18  N   UNL     1       2.131   0.961  -2.878  0.00  0.00    +0.057 N 
ATOM     19  O   UNL     1       2.255  -0.238  -2.704  0.00  0.00    -0.126 OA
ATOM     20  O   UNL     1       1.040   1.426  -3.156  0.00  0.00    -0.126 OA
ENDBRANCH   9  18
BRANCH   1  21
ATOM     21  C   UNL     1       6.535   1.847   1.906  0.00  0.00    +0.022 C 
BRANCH  21  23
ATOM     22  C   UNL     1       8.715   2.325   3.029  0.00  0.00    +0.004 C 
ATOM     23  C   UNL     1       8.046   1.968   1.700  0.00  0.00    -0.002 C 
ENDBRANCH  21  23
ENDBRANCH   1  21
TORSDOF 4
