REMARK  Name = ZINC59519173
REMARK  4 active torsions:
REMARK  status: ('A' for Active; 'I' for Inactive)
REMARK    1  A    between atoms: C_3  and  C_9
REMARK    2  A    between atoms: N_10  and  C_11
REMARK    3  A    between atoms: C_13  and  N_18
REMARK    4  A    between atoms: C_16  and  O_17
REMARK                            x       y       z     vdW  Elec       q    Type
REMARK                         _______ _______ _______ _____ _____    ______ ____
ROOT
ATOM      1  C   UNL     1       5.965   2.221  -0.044  0.00  0.00    +0.107 A 
ATOM      2  C   UNL     1       6.106   3.367   0.741  0.00  0.00    +0.064 A 
ATOM      3  C   UNL     1       7.295   4.067   0.728  0.00  0.00    +0.128 A 
ATOM      4  C   UNL     1       8.349   3.637  -0.059  0.00  0.00    +0.036 A 
ATOM      5  C   UNL     1       8.221   2.504  -0.841  0.00  0.00    +0.050 A 
ATOM      6  C   UNL     1       7.036   1.787  -0.835  0.00  0.00    +0.142 A 
ENDROOT
BRANCH   3   7
ATOM      7  N   UNL     1       7.443   5.282   1.560  0.00  0.00    +0.056 N 
ATOM      8  O   UNL     1       6.524   5.660   2.248  0.00  0.00    -0.126 OA
ATOM      9  O   UNL     1       8.484   5.897   1.551  0.00  0.00    -0.126 OA
ENDBRANCH   3   7
BRANCH   1  11
ATOM     10  C   UNL     1       3.652   2.160  -0.022  0.00  0.00    +0.121 C 
ATOM     11  N   UNL     1       4.788   1.523  -0.036  0.00  0.00    -0.251 NA
BRANCH  10  14
ATOM     12  C   UNL     1      -0.017   1.380   0.010  0.00  0.00    +0.002 A 
ATOM     13  C   UNL     1       1.165   2.090   0.002  0.00  0.00    +0.011 A 
ATOM     14  C   UNL     1       2.386   1.409  -0.013  0.00  0.00    +0.013 A 
ATOM     15  C   UNL     1       2.399   0.010  -0.021  0.00  0.00    +0.068 A 
ATOM     16  C   UNL     1       1.206  -0.687  -0.013  0.00  0.00    +0.060 A 
ATOM     17  C   UNL     1       0.002  -0.004   0.002  0.00  0.00    +0.021 A 
ATOM     18 CL   UNL     1       1.218  -2.423  -0.023  0.00  0.00    -0.082 Cl
ATOM     19 CL   UNL     1       3.909  -0.847  -0.041  0.00  0.00    -0.081 Cl
ENDBRANCH  10  14
ENDBRANCH   1  11
BRANCH   6  20
ATOM     20  O   UNL     1       6.912   0.669  -1.598  0.00  0.00    -0.505 OA
ATOM     21  H   UNL     1       6.580   0.838  -2.491  0.00  0.00    +0.292 HD
ENDBRANCH   6  20
TORSDOF 4
