REMARK  Name = ZINC18211310
REMARK  7 active torsions:
REMARK  status: ('A' for Active; 'I' for Inactive)
REMARK    1  A    between atoms: C_1  and  C_2
REMARK    2  A    between atoms: C_15  and  S_17
REMARK    3  A    between atoms: S_17  and  C_18
REMARK    4  A    between atoms: C_18  and  C_20
REMARK    5  A    between atoms: C_18  and  C_21
REMARK    6  A    between atoms: C_21  and  O_23
REMARK    7  A    between atoms: O_23  and  C_24
REMARK                            x       y       z     vdW  Elec       q    Type
REMARK                         _______ _______ _______ _____ _____    ______ ____
ROOT
ATOM      1  C   UNL     1       1.397   3.572   0.258  0.00  0.00    +0.008 C 
ATOM      2  C   UNL     1       1.415   2.064  -0.000  0.00  0.00    -0.009 C 
ATOM      3  C   UNL     1      -0.019   1.524   0.010  0.00  0.00    +0.008 C 
ATOM      4  C   UNL     1       0.002  -0.004   0.002  0.00  0.00    +0.037 C 
ATOM      5  C   UNL     1       0.873  -0.481  -1.157  0.00  0.00    -0.023 A 
ATOM      6  C   UNL     1       1.763   0.356  -1.738  0.00  0.00    -0.004 A 
ATOM      7  S   UNL     1       2.539  -0.602  -3.015  0.00  0.00    -0.073 S 
ATOM      8  C   UNL     1       1.672  -2.119  -2.769  0.00  0.00    +0.117 A 
ATOM      9  C   UNL     1       0.800  -1.830  -1.694  0.00  0.00    +0.075 A 
ATOM     10  C   UNL     1      -0.059  -2.886  -1.245  0.00  0.00    +0.261 A 
ATOM     11  O   UNL     1      -0.844  -2.734  -0.326  0.00  0.00    -0.267 OA
ATOM     12  N   UNL     1       0.056  -4.062  -1.905  0.00  0.00    -0.301 N 
ATOM     13  H   UNL     1      -0.571  -4.919  -1.616  0.00  0.00    +0.171 HD
ATOM     14  C   UNL     1       0.927  -4.253  -2.935  0.00  0.00    +0.171 A 
ATOM     15  N   UNL     1       1.735  -3.298  -3.376  0.00  0.00    -0.216 NA
ATOM     16  C   UNL     1       2.034   1.784  -1.377  0.00  0.00    +0.046 C 
ENDROOT
BRANCH  14  17
ATOM     17  S   UNL     1       0.981  -5.832  -3.714  0.00  0.00    -0.073 S 
BRANCH  17  18
ATOM     18  C   UNL     1       2.259  -5.525  -4.958  0.00  0.00    +0.159 C 
ATOM     19  C   UNL     1       3.594  -5.252  -4.262  0.00  0.00    +0.031 C 
BRANCH  18  20
ATOM     20  C   UNL     1       2.395  -6.734  -5.848  0.00  0.00    +0.320 C 
ATOM     21  O   UNL     1       1.992  -7.809  -5.472  0.00  0.00    -0.250 OA
BRANCH  20  22
ATOM     22  O   UNL     1       2.964  -6.617  -7.058  0.00  0.00    -0.467 OA
ATOM     23  C   UNL     1       3.062  -7.823  -7.860  0.00  0.00    +0.280 C 
ENDBRANCH  20  22
ENDBRANCH  18  20
ENDBRANCH  17  18
ENDBRANCH  14  17
TORSDOF 4
