REMARK  Name = ZINC08326585
REMARK  5 active torsions:
REMARK  status: ('A' for Active; 'I' for Inactive)
REMARK    1  A    between atoms: N_11  and  C_12
REMARK    2  A    between atoms: C_12  and  C_13
REMARK    3  A    between atoms: N_15  and  C_16
REMARK    4  A    between atoms: C_16  and  C_17
REMARK    5  A    between atoms: C_17  and  N_56
REMARK                            x       y       z     vdW  Elec       q    Type
REMARK                         _______ _______ _______ _____ _____    ______ ____
ROOT
ATOM      1  C   UNL     1      -3.565   1.445   4.428  0.00  0.00    +0.233 C 
ATOM      2  O   UNL     1      -3.251   2.592   4.191  0.00  0.00    -0.274 OA
ATOM      3  N   UNL     1      -4.753   0.970   4.004  0.00  0.00    -0.315 N 
ATOM      4  H   UNL     1      -5.005   0.053   4.194  0.00  0.00    +0.149 HD
ENDROOT
BRANCH   1   5
ATOM      5  C   UNL     1      -2.628   0.551   5.198  0.00  0.00    +0.221 C 
BRANCH   5  16
ATOM      6  C   UNL     1      -1.169   3.425   9.103  0.00  0.00    +0.002 A 
ATOM      7  C   UNL     1      -2.324   2.722   8.787  0.00  0.00    +0.002 A 
ATOM      8  C   UNL     1      -2.411   2.010   7.611  0.00  0.00    +0.028 A 
ATOM      9  C   UNL     1      -1.337   2.002   6.726  0.00  0.00    +0.071 A 
ATOM     10  C   UNL     1      -0.166   2.715   7.045  0.00  0.00    +0.088 A 
ATOM     11  C   UNL     1      -0.102   3.427   8.253  0.00  0.00    +0.030 A 
ATOM     12  N   UNL     1       0.886   2.715   6.204  0.00  0.00    -0.248 NA
ATOM     13  C   UNL     1       0.847   2.060   5.079  0.00  0.00    +0.181 A 
ATOM     14  C   UNL     1      -0.353   1.304   4.706  0.00  0.00    +0.270 A 
ATOM     15  O   UNL     1      -0.392   0.690   3.655  0.00  0.00    -0.266 OA
ATOM     16  N   UNL     1      -1.414   1.297   5.542  0.00  0.00    -0.297 N 
ENDBRANCH   5  16
ENDBRANCH   1   5
BRANCH   3  17
ATOM     17  C   UNL     1      -5.665   1.839   3.256  0.00  0.00    +0.092 C 
BRANCH  17  18
ATOM     18  C   UNL     1      -6.982   1.102   3.007  0.00  0.00    -0.049 C 
ATOM     19  C   UNL     1      -7.883   1.957   2.113  0.00  0.00    -0.010 C 
ATOM     20  C   UNL     1      -8.169   3.292   2.804  0.00  0.00    -0.001 C 
ATOM     21  C   UNL     1      -8.871   3.035   4.139  0.00  0.00    -0.000 C 
ATOM     22  C   UNL     1      -7.970   2.180   5.033  0.00  0.00    -0.001 C 
ATOM     23  C   UNL     1      -7.684   0.845   4.342  0.00  0.00    -0.010 C 
BRANCH  18  29
ATOM     24  C   UNL     1      -5.985   0.026   1.079  0.00  0.00    -0.049 C 
ATOM     25  C   UNL     1      -5.668  -1.335   0.453  0.00  0.00    +0.141 C 
ATOM     26  O   UNL     1      -6.884  -2.064   0.268  0.00  0.00    -0.383 OA
ATOM     27  C   UNL     1      -7.614  -2.282   1.479  0.00  0.00    +0.141 C 
ATOM     28  C   UNL     1      -7.951  -0.932   2.116  0.00  0.00    -0.049 C 
ATOM     29  N   UNL     1      -6.692  -0.195   2.358  0.00  0.00    +0.387 N 
ATOM     30  H   UNL     1      -6.093  -0.752   2.979  0.00  0.00    -0.081 HD
ENDBRANCH  18  29
ENDBRANCH  17  18
ENDBRANCH   3  17
TORSDOF 5
