REMARK  Name = ZINC07157658
REMARK  5 active torsions:
REMARK  status: ('A' for Active; 'I' for Inactive)
REMARK    1  A    between atoms: C_4  and  N_20
REMARK    2  A    between atoms: C_6  and  C_7
REMARK    3  A    between atoms: C_8  and  C_9
REMARK    4  A    between atoms: C_8  and  C_11
REMARK    5  A    between atoms: N_13  and  C_14
REMARK                            x       y       z     vdW  Elec       q    Type
REMARK                         _______ _______ _______ _____ _____    ______ ____
ROOT
ATOM      1  C   UNL     1      -2.415   4.263   0.037  0.00  0.00    +0.032 C 
ATOM      2  C   UNL     1      -1.214   3.598  -0.060  0.00  0.00    +0.114 C 
ENDROOT
BRANCH   1   8
ATOM      3  C   UNL     1      -1.372   6.397   0.770  0.00  0.00    +0.009 A 
ATOM      4  C   UNL     1      -1.397   7.770   0.872  0.00  0.00    +0.023 A 
ATOM      5  C   UNL     1      -2.477   8.486   0.379  0.00  0.00    +0.071 A 
ATOM      6  C   UNL     1      -3.537   7.827  -0.225  0.00  0.00    +0.145 A 
ATOM      7  C   UNL     1      -3.525   6.455  -0.340  0.00  0.00    +0.042 A 
ATOM      8  C   UNL     1      -2.437   5.724   0.155  0.00  0.00    -0.021 A 
ATOM      9 CL   UNL     1      -2.503  10.216   0.520  0.00  0.00    -0.081 Cl
BRANCH   6  10
ATOM     10  N   UNL     1      -4.686   8.601  -0.747  0.00  0.00    +0.058 N 
ATOM     11  O   UNL     1      -5.617   8.025  -1.279  0.00  0.00    -0.126 OA
ATOM     12  O   UNL     1      -4.699   9.815  -0.646  0.00  0.00    -0.126 OA
ENDBRANCH   6  10
ENDBRANCH   1   8
BRANCH   2  13
ATOM     13  C   UNL     1      -1.182   2.126  -0.028  0.00  0.00    +0.255 C 
ATOM     14  O   UNL     1      -2.218   1.498   0.085  0.00  0.00    -0.269 OA
ATOM     15  N   UNL     1      -0.006   1.475  -0.123  0.00  0.00    -0.308 N 
ATOM     16  H   UNL     1       0.819   1.976  -0.217  0.00  0.00    +0.149 HD
BRANCH  15  17
ATOM     17  C   UNL     1       0.026   0.011  -0.091  0.00  0.00    +0.073 C 
ATOM     18  C   UNL     1       0.053  -0.467   1.363  0.00  0.00    +0.022 C 
ATOM     19  C   UNL     1       0.086  -1.996   1.396  0.00  0.00    +0.002 C 
ATOM     20  C   UNL     1       1.337  -2.495   0.672  0.00  0.00    +0.000 C 
ATOM     21  C   UNL     1       1.310  -2.017  -0.782  0.00  0.00    +0.002 C 
ATOM     22  C   UNL     1       1.277  -0.488  -0.815  0.00  0.00    +0.022 C 
ENDBRANCH  15  17
ENDBRANCH   2  13
BRANCH   2  23
ATOM     23  C   UNL     1       0.005   4.338  -0.193  0.00  0.00    +0.104 C 
ATOM     24  N   UNL     1       0.972   4.924  -0.298  0.00  0.00    -0.191 NA
ENDBRANCH   2  23
TORSDOF 5
