REMARK  Name = ZINC39355518
REMARK  7 active torsions:
REMARK  status: ('A' for Active; 'I' for Inactive)
REMARK    1  A    between atoms: C_1  and  S_2
REMARK    2  A    between atoms: S_2  and  C_3
REMARK    3  A    between atoms: C_7  and  C_9
REMARK    4  A    between atoms: C_9  and  N_10
REMARK    5  A    between atoms: N_10  and  C_11
REMARK    6  A    between atoms: C_11  and  C_12
REMARK    7  A    between atoms: C_16  and  C_18
REMARK                            x       y       z     vdW  Elec       q    Type
REMARK                         _______ _______ _______ _____ _____    ______ ____
ROOT
ATOM      1  C   UNL     1       4.733  -5.845  -2.612  0.00  0.00    -0.039 C 
ATOM      2  C   UNL     1       4.940  -6.495  -1.464  0.00  0.00    +0.132 C 
ATOM      3  N   UNL     1       6.255  -6.753  -1.290  0.00  0.00    -0.186 NA
ATOM      4  N   UNL     1       6.981  -6.348  -2.200  0.00  0.00    -0.298 N 
ATOM      5  C   UNL     1       6.122  -5.702  -3.207  0.00  0.00    +0.154 C 
ATOM      6  H   UNL     1       7.946  -6.443  -2.247  0.00  0.00    +0.183 HD
ENDROOT
BRANCH   5   7
ATOM      7  C   UNL     1       6.212  -6.420  -4.529  0.00  0.00    -0.016 A 
ATOM      8  C   UNL     1       6.389  -7.790  -4.559  0.00  0.00    +0.010 A 
ATOM      9  C   UNL     1       6.471  -8.454  -5.769  0.00  0.00    +0.050 A 
ATOM     10  C   UNL     1       6.378  -7.745  -6.955  0.00  0.00    +0.166 A 
ATOM     11  C   UNL     1       6.201  -6.364  -6.925  0.00  0.00    +0.167 A 
ATOM     12  C   UNL     1       6.113  -5.707  -5.709  0.00  0.00    +0.055 A 
ATOM     13  O   UNL     1       6.139  -5.904  -8.209  0.00  0.00    -0.453 OA
ATOM     14  C   UNL     1       6.689  -6.957  -9.022  0.00  0.00    +0.466 C 
ATOM     15  O   UNL     1       6.428  -8.150  -8.258  0.00  0.00    -0.453 OA
ENDBRANCH   5   7
BRANCH   1  16
ATOM     16  C   UNL     1       3.423  -5.369  -3.186  0.00  0.00    -0.047 C 
BRANCH  16  17
ATOM     17  N   UNL     1       3.210  -3.963  -2.820  0.00  0.00    +0.384 N 
ATOM     18  H   UNL     1       3.962  -3.401  -3.188  0.00  0.00    -0.085 HD
ATOM     19  H   UNL     1       3.187  -3.877  -1.815  0.00  0.00    -0.085 HD
BRANCH  17  20
ATOM     20  C   UNL     1       1.933  -3.499  -3.380  0.00  0.00    -0.046 C 
BRANCH  20  25
ATOM     21  C   UNL     1       0.848  -0.411  -1.489  0.00  0.00    +0.008 A 
ATOM     22  C   UNL     1       1.315   0.599  -2.322  0.00  0.00    +0.015 A 
ATOM     23  C   UNL     1       1.978   0.276  -3.490  0.00  0.00    +0.001 A 
ATOM     24  C   UNL     1       2.178  -1.049  -3.830  0.00  0.00    +0.002 A 
ATOM     25  C   UNL     1       1.714  -2.056  -3.004  0.00  0.00    -0.063 A 
ATOM     26  C   UNL     1       1.056  -1.741  -1.831  0.00  0.00    +0.016 A 
BRANCH  21  28
ATOM     27  C   UNL     1      -0.022   1.810   0.012  0.00  0.00    +0.090 C 
ATOM     28  S   UNL     1       0.002  -0.004   0.002  0.00  0.00    -0.129 S 
ENDBRANCH  21  28
ENDBRANCH  20  25
ENDBRANCH  17  20
ENDBRANCH  16  17
ENDBRANCH   1  16
TORSDOF 6
