REMARK  Name = ZINC38886211
REMARK  8 active torsions:
REMARK  status: ('A' for Active; 'I' for Inactive)
REMARK    1  A    between atoms: C_4  and  C_7
REMARK    2  A    between atoms: C_9  and  C_12
REMARK    3  A    between atoms: C_12  and  N_13
REMARK    4  A    between atoms: C_17  and  C_20
REMARK    5  A    between atoms: N_22  and  C_23
REMARK    6  A    between atoms: C_23  and  C_24
REMARK    7  A    between atoms: C_29  and  C_30
REMARK    8  A    between atoms: C_30  and  N_31
REMARK                            x       y       z     vdW  Elec       q    Type
REMARK                         _______ _______ _______ _____ _____    ______ ____
ROOT
ATOM      1  N   UNL     1       6.464  -4.848  -0.209  0.00  0.00    +0.386 N 
ATOM      2  C   UNL     1       5.061  -5.197  -0.462  0.00  0.00    -0.078 C 
ATOM      3  C   UNL     1       4.880  -5.563  -1.937  0.00  0.00    -0.018 C 
ATOM      4  C   UNL     1       5.774  -6.760  -2.273  0.00  0.00    +0.009 C 
ATOM      5  C   UNL     1       7.226  -6.410  -1.936  0.00  0.00    +0.058 C 
ATOM      6  C   UNL     1       7.320  -6.013  -0.462  0.00  0.00    -0.065 C 
ATOM      7  H   UNL     1       6.736  -4.093  -0.821  0.00  0.00    -0.081 HD
ENDROOT
BRANCH   5   8
ATOM      8  C   UNL     1       8.105  -7.607  -2.193  0.00  0.00    +0.215 C 
ATOM      9  O   UNL     1       8.747  -8.094  -1.286  0.00  0.00    -0.276 OA
ATOM     10  N   UNL     1       8.177  -8.137  -3.430  0.00  0.00    -0.311 N 
ATOM     11  H   UNL     1       7.663  -7.748  -4.155  0.00  0.00    +0.149 HD
BRANCH  10  12
ATOM     12  C   UNL     1       9.031  -9.301  -3.679  0.00  0.00    +0.139 C 
BRANCH  12  13
ATOM     13  C   UNL     1       8.933  -9.694  -5.131  0.00  0.00    -0.026 A 
ATOM     14  C   UNL     1       8.100 -10.728  -5.513  0.00  0.00    +0.005 A 
ATOM     15  C   UNL     1       8.010 -11.088  -6.844  0.00  0.00    +0.000 A 
ATOM     16  C   UNL     1       8.754 -10.414  -7.795  0.00  0.00    +0.000 A 
ATOM     17  C   UNL     1       9.587  -9.379  -7.413  0.00  0.00    +0.005 A 
ATOM     18  C   UNL     1       9.673  -9.016  -6.082  0.00  0.00    -0.029 A 
BRANCH  18  19
ATOM     19  C   UNL     1      10.577  -7.884  -5.666  0.00  0.00    +0.120 C 
BRANCH  19  20
ATOM     20  N   UNL     1       9.780  -6.665  -5.477  0.00  0.00    -0.294 NA
ATOM     21  C   UNL     1       9.298  -6.145  -6.764  0.00  0.00    +0.113 C 
ATOM     22  C   UNL     1       8.425  -4.912  -6.516  0.00  0.00    +0.175 C 
ATOM     23  O   UNL     1       9.179  -3.939  -5.787  0.00  0.00    -0.377 OA
ATOM     24  C   UNL     1       9.663  -4.412  -4.527  0.00  0.00    +0.175 C 
ATOM     25  C   UNL     1      10.549  -5.640  -4.755  0.00  0.00    +0.113 C 
ENDBRANCH  19  20
ENDBRANCH  18  19
ENDBRANCH  12  13
ENDBRANCH  10  12
ENDBRANCH   5   8
BRANCH   1  26
ATOM     26  C   UNL     1       6.617  -4.423   1.189  0.00  0.00    +0.022 C 
BRANCH  26  29
ATOM     27  C   UNL     1       4.212  -1.801   1.904  0.00  0.00    +0.202 A 
ATOM     28  N   UNL     1       4.591  -3.087   1.799  0.00  0.00    -0.193 NA
ATOM     29  C   UNL     1       5.834  -3.155   1.417  0.00  0.00    +0.211 A 
ATOM     30  O   UNL     1       6.300  -1.909   1.262  0.00  0.00    -0.340 OA
ATOM     31  N   UNL     1       5.226  -1.038   1.580  0.00  0.00    -0.056 NA
BRANCH  27  35
ATOM     32  C   UNL     1       0.356  -0.440   3.075  0.00  0.00    +0.000 A 
ATOM     33  C   UNL     1       1.343   0.475   2.758  0.00  0.00    +0.001 A 
ATOM     34  C   UNL     1       2.596   0.039   2.377  0.00  0.00    +0.012 A 
ATOM     35  C   UNL     1       2.866  -1.326   2.313  0.00  0.00    +0.022 A 
ATOM     36  C   UNL     1       1.868  -2.244   2.634  0.00  0.00    +0.012 A 
ATOM     37  C   UNL     1       0.619  -1.797   3.013  0.00  0.00    +0.001 A 
ENDBRANCH  27  35
ENDBRANCH  26  29
ENDBRANCH   1  26
TORSDOF 8
