REMARK  Name = ZINC61398696
REMARK  5 active torsions:
REMARK  status: ('A' for Active; 'I' for Inactive)
REMARK    1  A    between atoms: C_3  and  N_23
REMARK    2  A    between atoms: C_6  and  N_7
REMARK    3  A    between atoms: N_10  and  C_11
REMARK    4  A    between atoms: C_11  and  C_12
REMARK    5  A    between atoms: C_12  and  C_13
REMARK                            x       y       z     vdW  Elec       q    Type
REMARK                         _______ _______ _______ _____ _____    ______ ____
ROOT
ATOM      1  N   UNL     1      -1.201  -0.741   0.008  0.00  0.00    -0.268 N 
ATOM      2  C   UNL     1      -0.995  -2.069   0.108  0.00  0.00    +0.304 C 
ATOM      3  O   UNL     1       0.132  -2.499   0.256  0.00  0.00    -0.253 OA
ATOM      4  N   UNL     1      -2.039  -2.919   0.044  0.00  0.00    -0.299 N 
ATOM      5  H   UNL     1      -2.106  -0.391  -0.028  0.00  0.00    +0.156 HD
ATOM      6  H   UNL     1      -2.938  -2.576  -0.073  0.00  0.00    +0.150 HD
ENDROOT
BRANCH   1  12
ATOM      7  C   UNL     1       1.070  -0.242  -0.684  0.00  0.00    +0.028 A 
ATOM      8  C   UNL     1       2.122   0.655  -0.711  0.00  0.00    +0.043 A 
ATOM      9  C   UNL     1       1.971   1.897  -0.103  0.00  0.00    +0.099 A 
ATOM     10  N   UNL     1       0.836   2.222   0.496  0.00  0.00    -0.348 N 
ATOM     11  C   UNL     1      -0.187   1.391   0.542  0.00  0.00    +0.107 A 
ATOM     12  C   UNL     1      -0.109   0.137  -0.044  0.00  0.00    +0.051 A 
ATOM     13  H   UNL     1       0.756   3.095   0.913  0.00  0.00    +0.167 HD
BRANCH   9  14
ATOM     14  N   UNL     1       3.024   2.807  -0.125  0.00  0.00    -0.317 N 
ATOM     15  C   UNL     1       2.849   4.167   0.404  0.00  0.00    +0.106 C 
ATOM     16  C   UNL     1       3.947   4.438   1.437  0.00  0.00    +0.019 C 
ATOM     17  C   UNL     1       5.315   4.182   0.801  0.00  0.00    +0.003 C 
ATOM     18  C   UNL     1       5.412   2.718   0.367  0.00  0.00    +0.019 C 
ATOM     19  C   UNL     1       4.333   2.425  -0.673  0.00  0.00    +0.106 C 
ENDBRANCH   9  14
ENDBRANCH   1  12
BRANCH   4  20
ATOM     20  C   UNL     1      -1.815  -4.363   0.153  0.00  0.00    +0.113 C 
BRANCH  20  21
ATOM     21  C   UNL     1      -3.154  -5.096   0.050  0.00  0.00    +0.095 C 
BRANCH  21  22
ATOM     22  C   UNL     1      -2.923  -6.581   0.161  0.00  0.00    +0.135 A 
ATOM     23  N   UNL     1      -2.685  -7.406  -0.824  0.00  0.00    -0.134 NA
ATOM     24  N   UNL     1      -2.530  -8.598  -0.364  0.00  0.00    -0.134 NA
ATOM     25  C   UNL     1      -2.659  -8.586   0.932  0.00  0.00    +0.133 A 
ATOM     26  N   UNL     1      -2.917  -7.309   1.300  0.00  0.00    -0.315 N 
ATOM     27  C   UNL     1      -3.159  -6.827   2.660  0.00  0.00    +0.125 C 
ATOM     28  C   UNL     1      -2.426  -7.729   3.657  0.00  0.00    +0.022 C 
ATOM     29  C   UNL     1      -3.335  -8.886   4.070  0.00  0.00    +0.002 C 
ATOM     30  C   UNL     1      -3.700  -9.737   2.857  0.00  0.00    +0.008 C 
ATOM     31  C   UNL     1      -2.535  -9.758   1.871  0.00  0.00    +0.076 C 
ENDBRANCH  21  22
ENDBRANCH  20  21
ENDBRANCH   4  20
TORSDOF 5
