REMARK  Name = ZINC18823279
REMARK  12 active torsions:
REMARK  status: ('A' for Active; 'I' for Inactive)
REMARK    1  A    between atoms: C_1  and  C_2
REMARK    2  A    between atoms: C_2  and  C_4
REMARK    3  A    between atoms: C_2  and  O_24
REMARK    4  A    between atoms: N_6  and  N_7
REMARK    5  A    between atoms: C_8  and  C_10
REMARK    6  A    between atoms: C_13  and  S_16
REMARK    7  A    between atoms: S_16  and  N_19
REMARK    8  A    between atoms: O_24  and  C_25
REMARK    9  A    between atoms: C_28  and  C_31
REMARK   10  A    between atoms: C_31  and  C_32
REMARK   11  A    between atoms: C_31  and  C_33
REMARK   12  A    between atoms: C_31  and  C_34
REMARK                            x       y       z     vdW  Elec       q    Type
REMARK                         _______ _______ _______ _____ _____    ______ ____
ROOT
ATOM      1  N   UNL     1       0.000   0.620   0.300  0.00  0.00    -0.230 N 
ATOM      2  C   UNL     1      -1.212   1.179   0.482  0.00  0.00    +0.260 C 
ATOM      3  O   UNL     1      -1.307   2.374   0.682  0.00  0.00    -0.269 OA
ATOM      4  H   UNL     1       0.076  -0.334   0.141  0.00  0.00    +0.173 HD
ENDROOT
BRANCH   2   5
ATOM      5  C   UNL     1      -2.428   0.338   0.439  0.00  0.00    +0.038 A 
ATOM      6  C   UNL     1      -2.324  -1.034   0.204  0.00  0.00    +0.015 A 
ATOM      7  C   UNL     1      -3.461  -1.813   0.170  0.00  0.00    +0.029 A 
ATOM      8  C   UNL     1      -4.705  -1.236   0.357  0.00  0.00    +0.106 A 
ATOM      9  C   UNL     1      -4.816   0.124   0.585  0.00  0.00    +0.029 A 
ATOM     10  C   UNL     1      -3.685   0.914   0.627  0.00  0.00    +0.015 A 
BRANCH   8  11
ATOM     11  S   UNL     1      -6.154  -2.237   0.305  0.00  0.00    +0.061 S 
ATOM     12  O   UNL     1      -5.744  -3.561   0.620  0.00  0.00    -0.153 OA
ATOM     13  O   UNL     1      -7.149  -1.550   1.050  0.00  0.00    -0.153 OA
BRANCH  11  14
ATOM     14  N   UNL     1      -6.673  -2.264  -1.267  0.00  0.00    -0.177 NA
ATOM     15  C   UNL     1      -7.622  -1.318  -1.873  0.00  0.00    +0.109 C 
ATOM     16  C   UNL     1      -7.824  -1.748  -3.341  0.00  0.00    +0.018 C 
ATOM     17  C   UNL     1      -7.424  -3.247  -3.320  0.00  0.00    +0.018 C 
ATOM     18  C   UNL     1      -6.267  -3.246  -2.290  0.00  0.00    +0.109 C 
ENDBRANCH  11  14
ENDBRANCH   8  11
ENDBRANCH   2   5
BRANCH   1  21
ATOM     19  C   UNL     1       2.364   0.859   0.148  0.00  0.00    +0.270 C 
ATOM     20  O   UNL     1       2.458  -0.334  -0.051  0.00  0.00    -0.270 OA
ATOM     21  N   UNL     1       1.152   1.417   0.336  0.00  0.00    -0.231 N 
ATOM     22  H   UNL     1       1.076   2.371   0.495  0.00  0.00    +0.173 HD
BRANCH  19  24
ATOM     23  C   UNL     1       3.574   2.706  -0.981  0.00  0.00    +0.062 C 
ATOM     24  C   UNL     1       3.603   1.716   0.186  0.00  0.00    +0.257 C 
BRANCH  24  25
ATOM     25  O   UNL     1       4.761   0.886   0.079  0.00  0.00    -0.480 OA
BRANCH  25  26
ATOM     26  C   UNL     1       5.918   1.371   0.599  0.00  0.00    +0.122 A 
ATOM     27  C   UNL     1       7.052   0.573   0.637  0.00  0.00    +0.046 A 
ATOM     28  C   UNL     1       8.229   1.071   1.160  0.00  0.00    +0.008 A 
ATOM     29  C   UNL     1       8.275   2.360   1.658  0.00  0.00    -0.042 A 
ATOM     30  C   UNL     1       7.146   3.156   1.627  0.00  0.00    +0.008 A 
ATOM     31  C   UNL     1       5.967   2.665   1.098  0.00  0.00    +0.046 A 
BRANCH  29  32
ATOM     32  C   UNL     1       9.559   2.898   2.235  0.00  0.00    -0.013 C 
ATOM     33  C   UNL     1       9.338   3.285   3.698  0.00  0.00    +0.015 C 
ATOM     34  C   UNL     1      10.646   1.825   2.150  0.00  0.00    +0.015 C 
ATOM     35  C   UNL     1       9.997   4.131   1.442  0.00  0.00    +0.015 C 
ENDBRANCH  29  32
ENDBRANCH  25  26
ENDBRANCH  24  25
ENDBRANCH  19  24
ENDBRANCH   1  21
TORSDOF 8
