REMARK  Name = ZINC65503156
REMARK  4 active torsions:
REMARK  status: ('A' for Active; 'I' for Inactive)
REMARK    1  A    between atoms: C_5  and  C_7
REMARK    2  A    between atoms: C_7  and  C_8
REMARK    3  A    between atoms: C_8  and  N_9
REMARK    4  A    between atoms: C_16  and  C_18
REMARK                            x       y       z     vdW  Elec       q    Type
REMARK                         _______ _______ _______ _____ _____    ______ ____
ROOT
ATOM      1  N   UNL     1       1.391  -4.167   1.403  0.00  0.00    -0.299 N 
ATOM      2  C   UNL     1       1.518  -4.846   2.560  0.00  0.00    +0.302 C 
ATOM      3  O   UNL     1       1.708  -4.245   3.600  0.00  0.00    -0.253 OA
ATOM      4  N   UNL     1       1.435  -6.191   2.564  0.00  0.00    -0.285 N 
ATOM      5  C   UNL     1       1.327  -6.939   1.304  0.00  0.00    +0.109 C 
ATOM      6  C   UNL     1       2.430  -8.001   1.264  0.00  0.00    +0.020 C 
ATOM      7  C   UNL     1       2.341  -8.870   2.521  0.00  0.00    +0.016 C 
ATOM      8  C   UNL     1       2.553  -8.000   3.761  0.00  0.00    +0.093 C 
ATOM      9  C   UNL     1       1.457  -6.939   3.829  0.00  0.00    +0.122 C 
ATOM     10  H   UNL     1       1.312  -4.648   0.565  0.00  0.00    +0.150 HD
ENDROOT
BRANCH   8  11
ATOM     11  C   UNL     1       2.497  -8.863   4.996  0.00  0.00    +0.223 C 
ATOM     12  O   UNL     1       2.307 -10.056   4.894  0.00  0.00    -0.275 OA
ATOM     13  N   UNL     1       2.659  -8.308   6.214  0.00  0.00    -0.264 N 
ATOM     14  C   UNL     1       2.608  -9.104   7.352  0.00  0.00    +0.164 A 
ATOM     15  N   UNL     1       2.419 -10.403   7.434  0.00  0.00    -0.233 NA
ATOM     16  C   UNL     1       2.396 -11.017   8.602  0.00  0.00    +0.120 A 
ATOM     17  C   UNL     1       2.576 -10.250   9.705  0.00  0.00    +0.068 A 
ATOM     18  S   UNL     1       2.780  -8.639   8.961  0.00  0.00    -0.061 S 
ATOM     19  H   UNL     1       2.811  -7.353   6.295  0.00  0.00    +0.157 HD
ENDBRANCH   8  11
BRANCH   1  20
ATOM     20  C   UNL     1       1.371  -2.702   1.412  0.00  0.00    +0.110 C 
BRANCH  20  21
ATOM     21  C   UNL     1       1.218  -2.185  -0.020  0.00  0.00    +0.055 C 
BRANCH  21  26
ATOM     22  C   UNL     1      -0.025   1.379   0.018  0.00  0.00    +0.000 A 
ATOM     23  C   UNL     1       1.162   2.087   0.005  0.00  0.00    +0.001 A 
ATOM     24  C   UNL     1       2.368   1.413  -0.016  0.00  0.00    +0.020 A 
ATOM     25  C   UNL     1       2.387   0.029  -0.024  0.00  0.00    +0.044 A 
ATOM     26  C   UNL     1       1.199  -0.678  -0.011  0.00  0.00    -0.028 A 
ATOM     27  C   UNL     1      -0.007  -0.003   0.010  0.00  0.00    +0.005 A 
ATOM     28 CL   UNL     1       3.902  -0.819  -0.051  0.00  0.00    -0.083 Cl
ENDBRANCH  21  26
ENDBRANCH  20  21
ENDBRANCH   1  20
TORSDOF 4
