REMARK  Name = ZINC39444076
REMARK  7 active torsions:
REMARK  status: ('A' for Active; 'I' for Inactive)
REMARK    1  A    between atoms: C_1  and  C_2
REMARK    2  A    between atoms: C_2  and  C_3
REMARK    3  A    between atoms: N_17  and  N_18
REMARK    4  A    between atoms: C_19  and  C_20
REMARK    5  A    between atoms: C_23  and  N_26
REMARK    6  A    between atoms: N_26  and  C_27
REMARK    7  A    between atoms: N_26  and  C_28
REMARK                            x       y       z     vdW  Elec       q    Type
REMARK                         _______ _______ _______ _____ _____    ______ ____
ROOT
ATOM      1  C   UNL     1       0.706  -0.405  -1.229  0.00  0.00    -0.047 A 
ATOM      2  C   UNL     1      -0.051  -0.618  -2.390  0.00  0.00    +0.005 A 
ATOM      3  C   UNL     1       0.512  -1.066  -3.535  0.00  0.00    +0.026 A 
ATOM      4  C   UNL     1       1.955  -1.337  -3.567  0.00  0.00    +0.046 A 
ATOM      5  N   UNL     1       2.747  -1.738  -4.533  0.00  0.00    -0.358 N 
ATOM      6  C   UNL     1       4.074  -1.965  -3.986  0.00  0.00    +0.253 C 
ATOM      7  C   UNL     1       4.048  -1.386  -2.582  0.00  0.00    +0.115 C 
ATOM      8  C   UNL     1       2.731  -1.089  -2.326  0.00  0.00    +0.025 A 
ATOM      9  C   UNL     1       2.041  -0.621  -1.184  0.00  0.00    +0.015 A 
ATOM     10  N   UNL     1       5.170  -1.135  -1.904  0.00  0.00    -0.171 NA
ATOM     11  N   UNL     1       6.219  -0.888  -2.631  0.00  0.00    -0.247 N 
ATOM     12  C   UNL     1       6.159  -0.824  -3.983  0.00  0.00    +0.227 C 
ATOM     13  N   UNL     1       5.156  -1.284  -4.696  0.00  0.00    -0.220 NA
ATOM     14  N   UNL     1       7.217  -0.242  -4.652  0.00  0.00    -0.206 N 
ATOM     15  H   UNL     1       7.974   0.105  -4.154  0.00  0.00    +0.177 HD
ATOM     16  H   UNL     1       7.071  -0.746  -2.191  0.00  0.00    +0.192 HD
ATOM     17  H   UNL     1       2.490  -1.863  -5.459  0.00  0.00    +0.162 HD
ENDROOT
BRANCH   1  19
ATOM     18  C   UNL     1       0.007   1.619   0.021  0.00  0.00    +0.009 C 
ATOM     19  C   UNL     1       0.009   0.089   0.012  0.00  0.00    +0.032 C 
ENDBRANCH   1  19
BRANCH  14  20
ATOM     20  N   UNL     1       7.197  -0.154  -6.050  0.00  0.00    -0.188 NA
ATOM     21  C   UNL     1       8.193   0.393  -6.680  0.00  0.00    +0.138 C 
BRANCH  21  22
ATOM     22  C   UNL     1       8.173   0.485  -8.150  0.00  0.00    -0.005 A 
ATOM     23  C   UNL     1       7.080  -0.009  -8.869  0.00  0.00    +0.011 A 
ATOM     24  C   UNL     1       7.065   0.080 -10.243  0.00  0.00    +0.024 A 
ATOM     25  C   UNL     1       8.135   0.660 -10.916  0.00  0.00    +0.029 A 
ATOM     26  C   UNL     1       9.224   1.153 -10.205  0.00  0.00    +0.024 A 
ATOM     27  C   UNL     1       9.243   1.074  -8.830  0.00  0.00    +0.011 A 
BRANCH  25  28
ATOM     28  N   UNL     1       8.116   0.748 -12.309  0.00  0.00    -0.336 N 
ATOM     29  C   UNL     1       7.032   0.119 -13.067  0.00  0.00    +0.129 C 
ATOM     30  C   UNL     1       9.179   1.470 -13.011  0.00  0.00    +0.129 C 
ENDBRANCH  25  28
ENDBRANCH  21  22
ENDBRANCH  14  20
TORSDOF 4
