REMARK  Name = ZINC17115674
REMARK  6 active torsions:
REMARK  status: ('A' for Active; 'I' for Inactive)
REMARK    1  A    between atoms: C_4  and  C_7
REMARK    2  A    between atoms: C_7  and  C_8
REMARK    3  A    between atoms: C_8  and  N_9
REMARK    4  A    between atoms: N_15  and  S_18
REMARK    5  A    between atoms: S_18  and  C_21
REMARK    6  A    between atoms: C_25  and  N_27
REMARK                            x       y       z     vdW  Elec       q    Type
REMARK                         _______ _______ _______ _____ _____    ______ ____
ROOT
ATOM      1  N   UNL     1      -1.666   1.150   3.300  0.00  0.00    -0.299 N 
ATOM      2  C   UNL     1      -1.121   0.694   2.155  0.00  0.00    +0.302 C 
ATOM      3  O   UNL     1      -1.003  -0.503   1.973  0.00  0.00    -0.253 OA
ATOM      4  N   UNL     1      -0.707   1.563   1.212  0.00  0.00    -0.283 N 
ATOM      5  C   UNL     1      -0.009   1.086   0.010  0.00  0.00    +0.126 C 
ATOM      6  C   UNL     1      -0.756   1.594  -1.229  0.00  0.00    +0.128 C 
ATOM      7  N   UNL     1      -0.996   3.036  -1.075  0.00  0.00    -0.174 NA
ATOM      8  C   UNL     1      -1.698   3.512   0.125  0.00  0.00    +0.128 C 
ATOM      9  C   UNL     1      -0.951   3.005   1.364  0.00  0.00    +0.126 C 
ATOM     10  H   UNL     1      -1.827   2.100   3.416  0.00  0.00    +0.150 HD
ENDROOT
BRANCH   7  11
ATOM     11  S   UNL     1      -0.485   4.104  -2.233  0.00  0.00    +0.061 S 
ATOM     12  O   UNL     1      -0.341   5.362  -1.589  0.00  0.00    -0.153 OA
ATOM     13  O   UNL     1       0.587   3.474  -2.922  0.00  0.00    -0.153 OA
BRANCH  11  14
ATOM     14  C   UNL     1      -1.797   4.280  -3.395  0.00  0.00    +0.108 A 
ATOM     15  C   UNL     1      -1.863   3.445  -4.495  0.00  0.00    +0.028 A 
ATOM     16  C   UNL     1      -2.894   3.580  -5.405  0.00  0.00    +0.004 A 
ATOM     17  C   UNL     1      -3.856   4.557  -5.220  0.00  0.00    +0.033 A 
ATOM     18  C   UNL     1      -3.787   5.395  -4.122  0.00  0.00    +0.128 A 
ATOM     19  C   UNL     1      -2.757   5.257  -3.210  0.00  0.00    +0.061 A 
BRANCH  18  20
ATOM     20  N   UNL     1      -4.816   6.440  -3.924  0.00  0.00    +0.056 N 
ATOM     21  O   UNL     1      -4.755   7.179  -2.958  0.00  0.00    -0.126 OA
ATOM     22  O   UNL     1      -5.723   6.562  -4.728  0.00  0.00    -0.126 OA
ENDBRANCH  18  20
ENDBRANCH  11  14
ENDBRANCH   7  11
BRANCH   1  23
ATOM     23  C   UNL     1      -2.016   0.213   4.370  0.00  0.00    +0.110 C 
BRANCH  23  24
ATOM     24  C   UNL     1      -2.612   0.984   5.549  0.00  0.00    +0.054 C 
BRANCH  24  28
ATOM     25  C   UNL     1      -3.631  -1.750   8.669  0.00  0.00    +0.000 A 
ATOM     26  C   UNL     1      -2.373  -1.180   8.634  0.00  0.00    +0.000 A 
ATOM     27  C   UNL     1      -2.043  -0.295   7.624  0.00  0.00    +0.004 A 
ATOM     28  C   UNL     1      -2.972   0.019   6.650  0.00  0.00    -0.046 A 
ATOM     29  C   UNL     1      -4.232  -0.547   6.688  0.00  0.00    +0.004 A 
ATOM     30  C   UNL     1      -4.560  -1.435   7.695  0.00  0.00    +0.000 A 
ENDBRANCH  24  28
ENDBRANCH  23  24
ENDBRANCH   1  23
TORSDOF 6
