REMARK  Name = ZINC66586731
REMARK  12 active torsions:
REMARK  status: ('A' for Active; 'I' for Inactive)
REMARK    1  A    between atoms: C_1  and  C_2
REMARK    2  A    between atoms: C_2  and  C_3
REMARK    3  A    between atoms: C_2  and  C_4
REMARK    4  A    between atoms: C_2  and  N_5
REMARK    5  A    between atoms: C_7  and  C_17
REMARK    6  A    between atoms: C_8  and  C_10
REMARK    7  A    between atoms: C_17  and  N_18
REMARK    8  A    between atoms: N_18  and  C_19
REMARK    9  A    between atoms: C_19  and  C_20
REMARK   10  A    between atoms: C_25  and  N_26
REMARK   11  A    between atoms: N_26  and  C_27
REMARK   12  A    between atoms: N_26  and  C_28
REMARK                            x       y       z     vdW  Elec       q    Type
REMARK                         _______ _______ _______ _____ _____    ______ ____
ROOT
ATOM      1  N   UNL     1       1.508  -1.613  -1.691  0.00  0.00    -0.265 N 
ATOM      2  C   UNL     1       2.830  -1.375  -1.829  0.00  0.00    +0.111 A 
ATOM      3  C   UNL     1       3.188  -1.722  -3.084  0.00  0.00    -0.019 A 
ATOM      4  C   UNL     1       2.037  -2.194  -3.746  0.00  0.00    +0.095 A 
ATOM      5  N   UNL     1       1.030  -2.131  -2.901  0.00  0.00    -0.170 NA
ENDROOT
BRANCH   4   6
ATOM      6  C   UNL     1       1.972  -2.680  -5.146  0.00  0.00    +0.021 A 
ATOM      7  C   UNL     1       2.919  -3.589  -5.615  0.00  0.00    +0.011 A 
ATOM      8  C   UNL     1       2.854  -4.039  -6.918  0.00  0.00    +0.001 A 
ATOM      9  C   UNL     1       1.852  -3.589  -7.760  0.00  0.00    +0.001 A 
ATOM     10  C   UNL     1       0.910  -2.686  -7.301  0.00  0.00    +0.020 A 
ATOM     11  C   UNL     1       0.962  -2.234  -5.996  0.00  0.00    +0.050 A 
ATOM     12 CL   UNL     1      -0.226  -1.106  -5.419  0.00  0.00    -0.083 Cl
ENDBRANCH   4   6
BRANCH   1  14
ATOM     13  C   UNL     1       0.457   0.125  -0.328  0.00  0.00    +0.036 C 
ATOM     14  C   UNL     1       0.714  -1.375  -0.483  0.00  0.00    +0.055 C 
ATOM     15  C   UNL     1       1.476  -1.892   0.739  0.00  0.00    +0.036 C 
ATOM     16  C   UNL     1      -0.623  -2.112  -0.599  0.00  0.00    +0.036 C 
ENDBRANCH   1  14
BRANCH   3  17
ATOM     17  C   UNL     1       4.571  -1.623  -3.673  0.00  0.00    -0.043 C 
BRANCH  17  18
ATOM     18  N   UNL     1       4.632  -0.477  -4.590  0.00  0.00    +0.385 N 
ATOM     19  H   UNL     1       3.959  -0.603  -5.331  0.00  0.00    -0.085 HD
ATOM     20  H   UNL     1       4.420   0.370  -4.084  0.00  0.00    -0.085 HD
BRANCH  18  21
ATOM     21  C   UNL     1       5.981  -0.379  -5.164  0.00  0.00    -0.043 C 
BRANCH  21  22
ATOM     22  C   UNL     1       6.019   0.743  -6.169  0.00  0.00    -0.026 A 
ATOM     23  C   UNL     1       5.889   0.478  -7.520  0.00  0.00    +0.006 A 
ATOM     24  C   UNL     1       5.931   1.542  -8.411  0.00  0.00    +0.018 A 
ATOM     25  C   UNL     1       6.099   2.824  -7.926  0.00  0.00    +0.084 A 
ATOM     26  N   UNL     1       6.221   3.047  -6.631  0.00  0.00    -0.349 N 
ATOM     27  C   UNL     1       6.181   2.059  -5.750  0.00  0.00    +0.100 A 
ATOM     28  H   UNL     1       6.339   3.957  -6.317  0.00  0.00    +0.167 HD
BRANCH  27  29
ATOM     29  N   UNL     1       6.307   2.340  -4.394  0.00  0.00    -0.323 N 
ATOM     30  C   UNL     1       7.614   2.227  -3.741  0.00  0.00    +0.130 C 
ATOM     31  C   UNL     1       5.133   2.749  -3.619  0.00  0.00    +0.130 C 
ENDBRANCH  27  29
ENDBRANCH  21  22
ENDBRANCH  18  21
ENDBRANCH  17  18
ENDBRANCH   3  17
TORSDOF 7
