REMARK  Name = ZINC67414165
REMARK  9 active torsions:
REMARK  status: ('A' for Active; 'I' for Inactive)
REMARK    1  A    between atoms: C_1  and  C_2
REMARK    2  A    between atoms: C_5  and  N_9
REMARK    3  A    between atoms: C_6  and  C_8
REMARK    4  A    between atoms: C_13  and  C_15
REMARK    5  A    between atoms: C_15  and  C_17
REMARK    6  A    between atoms: C_15  and  N_18
REMARK    7  A    between atoms: C_22  and  C_25
REMARK    8  A    between atoms: C_25  and  N_26
REMARK    9  A    between atoms: C_27  and  C_29
REMARK                            x       y       z     vdW  Elec       q    Type
REMARK                         _______ _______ _______ _____ _____    ______ ____
ROOT
ATOM      1  N   UNL     1      -0.198  -4.113  -0.098  0.00  0.00    -0.269 N 
ATOM      2  C   UNL     1      -0.414  -4.816  -1.227  0.00  0.00    +0.310 C 
ATOM      3  O   UNL     1      -0.744  -4.242  -2.247  0.00  0.00    -0.252 OA
ATOM      4  N   UNL     1      -0.266  -6.156  -1.226  0.00  0.00    -0.241 N 
ATOM      5  C   UNL     1      -0.483  -6.859  -2.355  0.00  0.00    +0.207 C 
ATOM      6  O   UNL     1      -0.811  -6.287  -3.372  0.00  0.00    -0.277 OA
ATOM      7  H   UNL     1       0.138  -4.559   0.695  0.00  0.00    +0.156 HD
ATOM      8  H   UNL     1      -0.003  -6.614  -0.412  0.00  0.00    +0.159 HD
ENDROOT
BRANCH   1  13
ATOM      9  C   UNL     1      -1.251   1.461   0.017  0.00  0.00    +0.044 C 
ATOM     10  C   UNL     1      -0.971  -0.020  -0.014  0.00  0.00    -0.050 A 
ATOM     11  C   UNL     1      -0.506  -0.610  -1.174  0.00  0.00    +0.005 A 
ATOM     12  C   UNL     1      -0.249  -1.967  -1.206  0.00  0.00    +0.024 A 
ATOM     13  C   UNL     1      -0.457  -2.738  -0.070  0.00  0.00    +0.038 A 
ATOM     14  C   UNL     1      -0.924  -2.142   1.094  0.00  0.00    -0.029 A 
ATOM     15  C   UNL     1      -1.175  -0.784   1.121  0.00  0.00    +0.008 A 
ATOM     16  C   UNL     1      -1.152  -2.975   2.329  0.00  0.00    +0.045 C 
ENDBRANCH   1  13
BRANCH   5  17
ATOM     17  C   UNL     1      -0.317  -8.357  -2.353  0.00  0.00    +0.017 C 
ATOM     18  C   UNL     1      -1.485  -8.998  -1.603  0.00  0.00    -0.004 C 
BRANCH  17  19
ATOM     19  N   UNL     1      -0.294  -8.848  -3.737  0.00  0.00    +0.387 N 
ATOM     20  C   UNL     1      -0.274 -10.316  -3.733  0.00  0.00    -0.078 C 
ATOM     21  C   UNL     1      -0.332 -10.835  -5.171  0.00  0.00    -0.018 C 
ATOM     22  C   UNL     1       0.878 -10.308  -5.948  0.00  0.00    +0.001 C 
ATOM     23  C   UNL     1       0.887  -8.778  -5.883  0.00  0.00    -0.011 C 
ATOM     24  C   UNL     1       0.901  -8.336  -4.418  0.00  0.00    -0.073 C 
ATOM     25  H   UNL     1      -1.119  -8.527  -4.221  0.00  0.00    -0.081 HD
BRANCH  23  26
ATOM     26  C   UNL     1       2.135  -8.244  -6.590  0.00  0.00    +0.105 C 
BRANCH  26  27
ATOM     27  N   UNL     1       2.065  -8.570  -8.016  0.00  0.00    -0.315 N 
ATOM     28  C   UNL     1       3.061  -8.197  -8.843  0.00  0.00    +0.210 C 
ATOM     29  O   UNL     1       4.016  -7.590  -8.406  0.00  0.00    -0.276 OA
ATOM     30  C   UNL     1       2.989  -8.532 -10.310  0.00  0.00    +0.109 C 
ATOM     31  H   UNL     1       1.301  -9.056  -8.366  0.00  0.00    +0.149 HD
ENDBRANCH  26  27
ENDBRANCH  23  26
ENDBRANCH  17  19
ENDBRANCH   5  17
TORSDOF 5
