REMARK  Name = ZINC09673308
REMARK  11 active torsions:
REMARK  status: ('A' for Active; 'I' for Inactive)
REMARK    1  A    between atoms: C_1  and  C_2
REMARK    2  A    between atoms: C_7  and  C_8
REMARK    3  A    between atoms: C_8  and  N_9
REMARK    4  A    between atoms: C_10  and  C_31
REMARK    5  A    between atoms: C_11  and  N_15
REMARK    6  A    between atoms: C_12  and  C_14
REMARK    7  A    between atoms: C_16  and  C_18
REMARK    8  A    between atoms: C_18  and  C_19
REMARK    9  A    between atoms: C_19  and  C_20
REMARK   10  A    between atoms: C_20  and  N_21
REMARK   11  A    between atoms: C_22  and  C_30
REMARK                            x       y       z     vdW  Elec       q    Type
REMARK                         _______ _______ _______ _____ _____    ______ ____
ROOT
ATOM      1  N   UNL     1       2.189   3.168   0.033  0.00  0.00    -0.283 N 
ATOM      2  C   UNL     1       1.394   4.229   0.274  0.00  0.00    +0.217 C 
ATOM      3  O   UNL     1       0.231   4.059   0.576  0.00  0.00    -0.275 OA
ATOM      4  H   UNL     1       3.135   3.299  -0.135  0.00  0.00    +0.155 HD
ENDROOT
BRANCH   1   7
ATOM      5  N   UNL     1       1.424  -0.302   0.224  0.00  0.00    -0.262 N 
ATOM      6  C   UNL     1       2.297   0.728   0.369  0.00  0.00    +0.058 A 
ATOM      7  C   UNL     1       1.647   1.869   0.025  0.00  0.00    +0.077 A 
ATOM      8  C   UNL     1       0.338   1.523  -0.341  0.00  0.00    +0.081 A 
ATOM      9  N   UNL     1       0.206   0.227  -0.221  0.00  0.00    -0.174 NA
ATOM     10  C   UNL     1      -0.733   2.480  -0.799  0.00  0.00    +0.069 C 
ATOM     11  C   UNL     1       3.729   0.624   0.830  0.00  0.00    +0.067 C 
BRANCH   5  12
ATOM     12  C   UNL     1       1.706  -1.715   0.488  0.00  0.00    +0.179 C 
BRANCH  12  19
ATOM     13  C   UNL     1       0.053  -2.544  -1.732  0.00  0.00    +0.044 C 
ATOM     14  C   UNL     1       1.547  -2.734  -1.793  0.00  0.00    -0.046 A 
ATOM     15  C   UNL     1       2.127  -3.301  -2.912  0.00  0.00    +0.004 A 
ATOM     16  C   UNL     1       3.496  -3.479  -2.966  0.00  0.00    +0.000 A 
ATOM     17  C   UNL     1       4.287  -3.087  -1.902  0.00  0.00    +0.000 A 
ATOM     18  C   UNL     1       3.708  -2.516  -0.784  0.00  0.00    +0.006 A 
ATOM     19  C   UNL     1       2.338  -2.337  -0.731  0.00  0.00    -0.023 A 
ENDBRANCH  12  19
ENDBRANCH   5  12
ENDBRANCH   1   7
BRANCH   2  20
ATOM     20  C   UNL     1       1.949   5.626   0.170  0.00  0.00    +0.098 C 
BRANCH  20  21
ATOM     21  C   UNL     1       0.847   6.638   0.490  0.00  0.00    +0.032 C 
BRANCH  21  22
ATOM     22  C   UNL     1       1.411   8.056   0.384  0.00  0.00    +0.144 C 
BRANCH  22  23
ATOM     23  N   UNL     1       0.356   9.025   0.691  0.00  0.00    -0.265 N 
ATOM     24  C   UNL     1       0.062   9.519   1.913  0.00  0.00    +0.057 A 
ATOM     25  C   UNL     1      -0.972  10.382   1.771  0.00  0.00    +0.112 A 
ATOM     26  C   UNL     1      -1.321  10.416   0.416  0.00  0.00    +0.254 A 
ATOM     27  N   UNL     1      -0.522   9.607  -0.232  0.00  0.00    -0.145 NA
ATOM     28  N   UNL     1      -2.402  11.232  -0.181  0.00  0.00    +0.078 N 
ATOM     29  O   UNL     1      -3.079  11.956   0.526  0.00  0.00    -0.125 OA
ATOM     30  O   UNL     1      -2.614  11.179  -1.379  0.00  0.00    -0.125 OA
ATOM     31 CL   UNL     1      -1.730  11.286   3.044  0.00  0.00    -0.078 Cl
ATOM     32  C   UNL     1       0.759   9.172   3.203  0.00  0.00    +0.067 C 
ENDBRANCH  22  23
ENDBRANCH  21  22
ENDBRANCH  20  21
ENDBRANCH   2  20
TORSDOF 7
