REMARK  Name = ZINC67325994
REMARK  6 active torsions:
REMARK  status: ('A' for Active; 'I' for Inactive)
REMARK    1  A    between atoms: C_1  and  C_2
REMARK    2  A    between atoms: C_2  and  O_3
REMARK    3  A    between atoms: O_3  and  C_4
REMARK    4  A    between atoms: C_9  and  N_10
REMARK    5  A    between atoms: N_16  and  C_19
REMARK    6  A    between atoms: C_22  and  N_25
REMARK                            x       y       z     vdW  Elec       q    Type
REMARK                         _______ _______ _______ _____ _____    ______ ____
ROOT
ATOM      1  N   UNL     1       1.940  -1.448   3.363  0.00  0.00    -0.266 N 
ATOM      2  C   UNL     1       2.539  -1.959   4.457  0.00  0.00    +0.307 C 
ATOM      3  O   UNL     1       2.681  -3.161   4.567  0.00  0.00    -0.252 OA
ATOM      4  N   UNL     1       2.981  -1.137   5.429  0.00  0.00    -0.282 N 
ATOM      5  C   UNL     1       2.700   0.305   5.375  0.00  0.00    +0.128 C 
ATOM      6  C   UNL     1       2.003   0.717   6.678  0.00  0.00    +0.124 C 
ATOM      7  N   UNL     1       2.774   0.189   7.811  0.00  0.00    -0.327 N 
ATOM      8  C   UNL     1       3.056  -1.253   7.865  0.00  0.00    +0.124 C 
ATOM      9  C   UNL     1       3.748  -1.666   6.566  0.00  0.00    +0.128 C 
ATOM     10  H   UNL     1       1.879  -0.487   3.248  0.00  0.00    +0.156 HD
ENDROOT
BRANCH   1  16
ATOM     11  C   UNL     1       0.322  -1.896   1.619  0.00  0.00    +0.142 A 
ATOM     12  C   UNL     1      -0.199  -2.744   0.656  0.00  0.00    +0.050 A 
ATOM     13  C   UNL     1       0.352  -3.998   0.467  0.00  0.00    +0.042 A 
ATOM     14  C   UNL     1       1.426  -4.410   1.239  0.00  0.00    +0.125 A 
ATOM     15  C   UNL     1       1.951  -3.567   2.203  0.00  0.00    +0.065 A 
ATOM     16  C   UNL     1       1.406  -2.306   2.392  0.00  0.00    +0.079 A 
ATOM     17  F   UNL     1       1.961  -5.636   1.050  0.00  0.00    -0.205 F 
BRANCH  11  18
ATOM     18  O   UNL     1      -0.220  -0.662   1.806  0.00  0.00    -0.490 OA
BRANCH  18  20
ATOM     19  C   UNL     1      -1.800   1.103   1.330  0.00  0.00    +0.048 C 
ATOM     20  C   UNL     1      -1.329  -0.309   0.977  0.00  0.00    +0.226 C 
ENDBRANCH  18  20
ENDBRANCH  11  18
ENDBRANCH   1  16
BRANCH   7  21
ATOM     21  C   UNL     1       3.232   1.041   8.818  0.00  0.00    +0.030 A 
ATOM     22  C   UNL     1       3.111   2.417   8.674  0.00  0.00    +0.025 A 
ATOM     23  C   UNL     1       3.565   3.257   9.673  0.00  0.00    +0.034 A 
ATOM     24  C   UNL     1       4.139   2.729  10.815  0.00  0.00    +0.126 A 
ATOM     25  C   UNL     1       4.261   1.359  10.961  0.00  0.00    +0.034 A 
ATOM     26  C   UNL     1       3.805   0.514   9.969  0.00  0.00    +0.025 A 
BRANCH  24  27
ATOM     27  N   UNL     1       4.624   3.632  11.882  0.00  0.00    +0.056 N 
ATOM     28  O   UNL     1       4.519   4.830  11.755  0.00  0.00    -0.126 OA
ATOM     29  O   UNL     1       5.126   3.172  12.881  0.00  0.00    -0.126 OA
ENDBRANCH  24  27
ENDBRANCH   7  21
TORSDOF 5
