REMARK  Name = ZINC40916915
REMARK  6 active torsions:
REMARK  status: ('A' for Active; 'I' for Inactive)
REMARK    1  A    between atoms: C_1  and  C_2
REMARK    2  A    between atoms: C_3  and  C_28
REMARK    3  A    between atoms: C_4  and  C_12
REMARK    4  A    between atoms: C_17  and  O_18
REMARK    5  A    between atoms: O_18  and  C_19
REMARK    6  A    between atoms: C_19  and  C_20
REMARK                            x       y       z     vdW  Elec       q    Type
REMARK                         _______ _______ _______ _____ _____    ______ ____
ROOT
ATOM      1  C   UNL     1      -0.018   1.503   0.010  0.00  0.00    +0.061 C 
ATOM      2  C   UNL     1       0.002  -0.004   0.002  0.00  0.00    +0.018 C 
ATOM      3  C   UNL     1      -1.163  -0.668   0.004  0.00  0.00    +0.060 C 
ATOM      4  C   UNL     1      -1.253  -2.171   0.008  0.00  0.00    +0.181 C 
ATOM      5  N   UNL     1       0.061  -2.737  -0.281  0.00  0.00    -0.221 N 
ATOM      6  C   UNL     1       1.208  -2.013  -0.279  0.00  0.00    +0.218 A 
ATOM      7  N   UNL     1       2.193  -2.818  -0.568  0.00  0.00    -0.201 NA
ATOM      8  C   UNL     1       1.720  -4.052  -0.765  0.00  0.00    +0.247 A 
ATOM      9  N   UNL     1       0.420  -4.046  -0.600  0.00  0.00    -0.156 NA
ATOM     10  N   UNL     1       1.213  -0.651  -0.013  0.00  0.00    -0.287 N 
ATOM     11  H   UNL     1       2.041  -0.176   0.159  0.00  0.00    +0.155 HD
ENDROOT
BRANCH   4  12
ATOM     12  C   UNL     1      -1.716  -2.642   1.363  0.00  0.00    +0.024 A 
ATOM     13  C   UNL     1      -0.973  -2.345   2.489  0.00  0.00    +0.025 A 
ATOM     14  C   UNL     1      -1.398  -2.777   3.733  0.00  0.00    +0.018 A 
ATOM     15  C   UNL     1      -2.566  -3.509   3.851  0.00  0.00    +0.019 A 
ATOM     16  C   UNL     1      -3.312  -3.808   2.727  0.00  0.00    +0.047 A 
ATOM     17  C   UNL     1      -2.890  -3.371   1.480  0.00  0.00    +0.127 A 
ATOM     18 BR   UNL     1      -0.380  -2.369   5.273  0.00  0.00    -0.050 Br
BRANCH  17  19
ATOM     19  O   UNL     1      -3.625  -3.660   0.373  0.00  0.00    -0.487 OA
BRANCH  19  20
ATOM     20  C   UNL     1      -4.823  -4.413   0.569  0.00  0.00    +0.264 C 
BRANCH  20  21
ATOM     21  C   UNL     1      -5.499  -4.636  -0.759  0.00  0.00    -0.010 A 
ATOM     22  C   UNL     1      -6.421  -3.719  -1.228  0.00  0.00    +0.008 A 
ATOM     23  C   UNL     1      -7.041  -3.922  -2.446  0.00  0.00    +0.020 A 
ATOM     24  C   UNL     1      -6.739  -5.045  -3.197  0.00  0.00    +0.041 A 
ATOM     25  C   UNL     1      -5.816  -5.962  -2.728  0.00  0.00    +0.020 A 
ATOM     26  C   UNL     1      -5.193  -5.755  -1.512  0.00  0.00    +0.008 A 
ATOM     27 CL   UNL     1      -7.518  -5.301  -4.727  0.00  0.00    -0.084 Cl
ENDBRANCH  20  21
ENDBRANCH  19  20
ENDBRANCH  17  19
ENDBRANCH   4  12
BRANCH   3  28
ATOM     28  C   UNL     1      -2.365   0.080   0.003  0.00  0.00    +0.241 C 
ATOM     29  O   UNL     1      -2.325   1.297  -0.001  0.00  0.00    -0.271 OA
ATOM     30  N   UNL     1      -3.553  -0.556   0.005  0.00  0.00    -0.325 N 
ATOM     31  H   UNL     1      -3.585  -1.525   0.007  0.00  0.00    +0.145 HD
ATOM     32  H   UNL     1      -4.377  -0.044   0.004  0.00  0.00    +0.145 HD
ENDBRANCH   3  28
TORSDOF 5
