REMARK  Name = ZINC35274476
REMARK  8 active torsions:
REMARK  status: ('A' for Active; 'I' for Inactive)
REMARK    1  A    between atoms: C_1  and  C_2
REMARK    2  A    between atoms: C_2  and  C_3
REMARK    3  A    between atoms: C_2  and  C_4
REMARK    4  A    between atoms: C_2  and  N_5
REMARK    5  A    between atoms: C_6  and  C_8
REMARK    6  A    between atoms: C_10  and  C_22
REMARK    7  A    between atoms: N_12  and  C_13
REMARK    8  A    between atoms: C_16  and  N_19
REMARK                            x       y       z     vdW  Elec       q    Type
REMARK                         _______ _______ _______ _____ _____    ______ ____
ROOT
ATOM      1  C   UNL     1       2.627  -0.527  -2.684  0.00  0.00    +0.130 A 
ATOM      2  C   UNL     1       3.928  -0.252  -3.061  0.00  0.00    +0.063 A 
ATOM      3  C   UNL     1       4.067  -0.806  -4.347  0.00  0.00    +0.097 A 
ATOM      4  N   UNL     1       2.916  -1.357  -4.670  0.00  0.00    -0.166 NA
ATOM      5  N   UNL     1       2.060  -1.216  -3.723  0.00  0.00    -0.227 N 
ENDROOT
BRANCH   3   6
ATOM      6  C   UNL     1       5.290  -0.775  -5.186  0.00  0.00    +0.037 A 
ATOM      7  C   UNL     1       6.447  -0.159  -4.715  0.00  0.00    +0.013 A 
ATOM      8  C   UNL     1       7.582  -0.133  -5.500  0.00  0.00    +0.001 A 
ATOM      9  C   UNL     1       7.573  -0.717  -6.754  0.00  0.00    +0.003 A 
ATOM     10  C   UNL     1       6.429  -1.330  -7.229  0.00  0.00    +0.039 A 
ATOM     11  C   UNL     1       5.288  -1.368  -6.449  0.00  0.00    +0.133 A 
ATOM     12  F   UNL     1       4.172  -1.973  -6.912  0.00  0.00    -0.205 F 
ENDBRANCH   3   6
BRANCH   5  13
ATOM     13  C   UNL     1       0.745  -1.693  -3.749  0.00  0.00    +0.066 A 
ATOM     14  C   UNL     1      -0.302  -0.871  -3.349  0.00  0.00    +0.030 A 
ATOM     15  C   UNL     1      -1.599  -1.344  -3.377  0.00  0.00    +0.035 A 
ATOM     16  C   UNL     1      -1.857  -2.635  -3.802  0.00  0.00    +0.126 A 
ATOM     17  C   UNL     1      -0.817  -3.455  -4.200  0.00  0.00    +0.035 A 
ATOM     18  C   UNL     1       0.481  -2.986  -4.181  0.00  0.00    +0.030 A 
BRANCH  16  19
ATOM     19  N   UNL     1      -3.248  -3.139  -3.831  0.00  0.00    +0.056 N 
ATOM     20  O   UNL     1      -4.158  -2.422  -3.482  0.00  0.00    -0.126 OA
ATOM     21  O   UNL     1      -3.475  -4.266  -4.202  0.00  0.00    -0.126 OA
ENDBRANCH  16  19
ENDBRANCH   5  13
BRANCH   1  23
ATOM     22  N   UNL     1       2.631   0.624  -0.530  0.00  0.00    -0.305 N 
ATOM     23  C   UNL     1       1.980  -0.158  -1.415  0.00  0.00    +0.263 C 
ATOM     24  O   UNL     1       0.859  -0.557  -1.165  0.00  0.00    -0.269 OA
ATOM     25  H   UNL     1       3.550   0.883  -0.696  0.00  0.00    +0.150 HD
BRANCH  22  27
ATOM     26  C   UNL     1       1.513  -0.131   1.510  0.00  0.00    +0.031 C 
ATOM     27  C   UNL     1       1.948   1.080   0.684  0.00  0.00    +0.027 C 
ATOM     28  C   UNL     1       0.718   1.904   0.298  0.00  0.00    +0.031 C 
ATOM     29  C   UNL     1       2.902   1.945   1.510  0.00  0.00    +0.031 C 
ENDBRANCH  22  27
ENDBRANCH   1  23
TORSDOF 5
