REMARK  Name = ZINC09042216
REMARK  10 active torsions:
REMARK  status: ('A' for Active; 'I' for Inactive)
REMARK    1  A    between atoms: C_2  and  C_3
REMARK    2  A    between atoms: C_3  and  O_4
REMARK    3  A    between atoms: O_4  and  C_5
REMARK    4  A    between atoms: C_8  and  C_11
REMARK    5  A    between atoms: C_14  and  C_15
REMARK    6  A    between atoms: C_14  and  O_20
REMARK    7  A    between atoms: N_25  and  C_26
REMARK    8  A    between atoms: C_26  and  C_27
REMARK    9  A    between atoms: C_27  and  C_28
REMARK   10  A    between atoms: C_28  and  N_61
REMARK                            x       y       z     vdW  Elec       q    Type
REMARK                         _______ _______ _______ _____ _____    ______ ____
ROOT
ATOM      1  C   UNL     1      -0.671   3.423   0.334  0.00  0.00    +0.145 C 
ATOM      2  C   UNL     1      -1.181   2.001   0.290  0.00  0.00    +0.074 C 
ATOM      3  C   UNL     1      -2.478   1.589   0.021  0.00  0.00    +0.168 C 
ATOM      4  C   UNL     1      -0.083   1.183   0.577  0.00  0.00    +0.249 C 
ATOM      5  O   UNL     1      -0.096  -0.034   0.637  0.00  0.00    -0.282 OA
ATOM      6  C   UNL     1       1.103   2.054   0.791  0.00  0.00    +0.288 C 
ATOM      7  O   UNL     1       2.219   1.656   1.055  0.00  0.00    -0.266 OA
ATOM      8  N   UNL     1       0.759   3.345   0.649  0.00  0.00    -0.284 N 
ENDROOT
BRANCH   1  12
ATOM      9  C   UNL     1      -2.720   5.638   3.360  0.00  0.00    +0.121 A 
ATOM     10  C   UNL     1      -3.058   5.808   2.025  0.00  0.00    +0.046 A 
ATOM     11  C   UNL     1      -2.394   5.091   1.048  0.00  0.00    +0.009 A 
ATOM     12  C   UNL     1      -1.393   4.204   1.401  0.00  0.00    -0.022 A 
ATOM     13  C   UNL     1      -1.058   4.029   2.731  0.00  0.00    +0.009 A 
ATOM     14  C   UNL     1      -1.715   4.748   3.710  0.00  0.00    +0.046 A 
BRANCH   9  15
ATOM     15  O   UNL     1      -3.371   6.343   4.322  0.00  0.00    -0.488 OA
BRANCH  15  16
ATOM     16  C   UNL     1      -2.970   6.117   5.675  0.00  0.00    +0.256 C 
BRANCH  16  18
ATOM     17  C   UNL     1      -4.305   6.470   7.689  0.00  0.00    +0.007 C 
ATOM     18  C   UNL     1      -3.797   6.979   6.594  0.00  0.00    +0.006 C 
ENDBRANCH  16  18
ENDBRANCH  15  16
ENDBRANCH   9  15
ENDBRANCH   1  12
BRANCH   3  19
ATOM     19  C   UNL     1      -2.774   0.209  -0.092  0.00  0.00    +0.169 A 
ATOM     20  C   UNL     1      -3.818  -0.453   0.524  0.00  0.00    +0.053 A 
ATOM     21  C   UNL     1      -3.726  -1.795   0.132  0.00  0.00    +0.042 A 
ATOM     22  C   UNL     1      -2.656  -1.900  -0.689  0.00  0.00    +0.196 A 
ATOM     23  O   UNL     1      -2.090  -0.694  -0.826  0.00  0.00    -0.460 OA
ENDBRANCH   3  19
BRANCH   3  24
ATOM     24  O   UNL     1      -3.460   2.506  -0.134  0.00  0.00    -0.503 OA
ATOM     25  H   UNL     1      -4.325   2.040  -0.321  0.00  0.00    +0.292 HD
ENDBRANCH   3  24
BRANCH   8  26
ATOM     26  C   UNL     1       1.664   4.488   0.787  0.00  0.00    +0.107 C 
BRANCH  26  27
ATOM     27  C   UNL     1       2.287   4.813  -0.572  0.00  0.00    +0.000 C 
BRANCH  27  28
ATOM     28  C   UNL     1       3.232   6.007  -0.428  0.00  0.00    -0.077 C 
BRANCH  28  34
ATOM     29  C   UNL     1       4.714   5.233  -2.181  0.00  0.00    -0.050 C 
ATOM     30  C   UNL     1       5.266   5.571  -3.568  0.00  0.00    +0.141 C 
ATOM     31  O   UNL     1       5.941   6.831  -3.513  0.00  0.00    -0.383 OA
ATOM     32  C   UNL     1       5.110   7.911  -3.081  0.00  0.00    +0.141 C 
ATOM     33  C   UNL     1       4.556   7.597  -1.689  0.00  0.00    -0.050 C 
ATOM     34  N   UNL     1       3.811   6.322  -1.752  0.00  0.00    +0.383 N 
ATOM     35  H   UNL     1       3.050   6.413  -2.436  0.00  0.00    -0.082 HD
ENDBRANCH  28  34
ENDBRANCH  27  28
ENDBRANCH  26  27
ENDBRANCH   8  26
TORSDOF 10
