REMARK  Name = ZINC16693834
REMARK  8 active torsions:
REMARK  status: ('A' for Active; 'I' for Inactive)
REMARK    1  A    between atoms: C_1  and  C_2
REMARK    2  A    between atoms: C_3  and  C_30
REMARK    3  A    between atoms: N_6  and  C_23
REMARK    4  A    between atoms: C_10  and  N_11
REMARK    5  A    between atoms: N_11  and  N_12
REMARK    6  A    between atoms: C_13  and  C_15
REMARK    7  A    between atoms: C_20  and  O_21
REMARK    8  A    between atoms: C_23  and  C_24
REMARK                            x       y       z     vdW  Elec       q    Type
REMARK                         _______ _______ _______ _____ _____    ______ ____
ROOT
ATOM      1  C   UNL     1      -0.214   1.429  -0.025  0.00  0.00    +0.046 C 
ATOM      2  C   UNL     1       0.141  -0.036   0.004  0.00  0.00    -0.015 C 
ATOM      3  C   UNL     1       0.374  -0.730  -1.174  0.00  0.00    +0.118 C 
ATOM      4  C   UNL     1       0.717  -2.152  -1.119  0.00  0.00    +0.264 C 
ATOM      5  O   UNL     1       0.921  -2.761  -2.153  0.00  0.00    -0.269 OA
ATOM      6  N   UNL     1       0.808  -2.793   0.059  0.00  0.00    -0.229 N 
ATOM      7  C   UNL     1       0.590  -2.155   1.222  0.00  0.00    +0.255 C 
ATOM      8  O   UNL     1       0.681  -2.763   2.272  0.00  0.00    -0.269 OA
ATOM      9  C   UNL     1       0.247  -0.727   1.232  0.00  0.00    +0.057 C 
ATOM     10  C   UNL     1       0.025  -0.063   2.435  0.00  0.00    +0.101 C 
ENDROOT
BRANCH  10  11
ATOM     11  N   UNL     1      -0.056  -0.761   3.582  0.00  0.00    -0.271 N 
ATOM     12  H   UNL     1      -0.043  -1.730   3.562  0.00  0.00    +0.169 HD
BRANCH  11  13
ATOM     13  N   UNL     1      -0.159  -0.086   4.806  0.00  0.00    -0.233 N 
ATOM     14  C   UNL     1      -0.241  -0.785   5.955  0.00  0.00    +0.264 C 
ATOM     15  O   UNL     1      -0.224  -2.001   5.930  0.00  0.00    -0.269 OA
ATOM     16  H   UNL     1      -0.173   0.883   4.825  0.00  0.00    +0.173 HD
BRANCH  14  17
ATOM     17  C   UNL     1      -0.350  -0.075   7.244  0.00  0.00    +0.081 A 
ATOM     18  C   UNL     1      -0.375   1.321   7.277  0.00  0.00    +0.032 A 
ATOM     19  C   UNL     1      -0.478   1.979   8.484  0.00  0.00    +0.019 A 
ATOM     20  C   UNL     1      -0.556   1.260   9.667  0.00  0.00    +0.019 A 
ATOM     21  C   UNL     1      -0.532  -0.120   9.648  0.00  0.00    +0.047 A 
ATOM     22  C   UNL     1      -0.435  -0.798   8.441  0.00  0.00    +0.129 A 
ATOM     23 BR   UNL     1      -0.512   3.869   8.527  0.00  0.00    -0.050 Br
BRANCH  22  24
ATOM     24  O   UNL     1      -0.417  -2.154   8.421  0.00  0.00    -0.506 OA
ATOM     25  H   UNL     1       0.469  -2.537   8.484  0.00  0.00    +0.292 HD
ENDBRANCH  22  24
ENDBRANCH  14  17
ENDBRANCH  11  13
ENDBRANCH  10  11
BRANCH   3  26
ATOM     26  C   UNL     1       0.279  -0.059  -2.436  0.00  0.00    +0.105 C 
ATOM     27  N   UNL     1       0.204   0.472  -3.437  0.00  0.00    -0.191 NA
ENDBRANCH   3  26
BRANCH   6  28
ATOM     28  C   UNL     1       1.154  -4.217   0.075  0.00  0.00    +0.152 C 
BRANCH  28  29
ATOM     29  C   UNL     1       2.651  -4.370   0.156  0.00  0.00    -0.030 A 
ATOM     30  C   UNL     1       3.403  -4.433  -1.002  0.00  0.00    +0.005 A 
ATOM     31  C   UNL     1       4.776  -4.573  -0.928  0.00  0.00    +0.000 A 
ATOM     32  C   UNL     1       5.397  -4.650   0.304  0.00  0.00    +0.000 A 
ATOM     33  C   UNL     1       4.646  -4.586   1.462  0.00  0.00    +0.000 A 
ATOM     34  C   UNL     1       3.273  -4.441   1.388  0.00  0.00    +0.005 A 
ENDBRANCH  28  29
ENDBRANCH   6  28
TORSDOF 7
