REMARK  Name = ZINC32803558
REMARK  8 active torsions:
REMARK  status: ('A' for Active; 'I' for Inactive)
REMARK    1  A    between atoms: C_4  and  O_7
REMARK    2  A    between atoms: O_7  and  C_8
REMARK    3  A    between atoms: C_8  and  C_9
REMARK    4  A    between atoms: C_12  and  C_14
REMARK    5  A    between atoms: N_16  and  N_17
REMARK    6  A    between atoms: N_20  and  C_21
REMARK    7  A    between atoms: C_21  and  C_22
REMARK    8  A    between atoms: C_22  and  C_23
REMARK                            x       y       z     vdW  Elec       q    Type
REMARK                         _______ _______ _______ _____ _____    ______ ____
ROOT
ATOM      1  N   UNL     1       1.608   6.801   0.024  0.00  0.00    -0.218 N 
ATOM      2  C   UNL     1       1.007   8.007   0.036  0.00  0.00    +0.316 C 
ATOM      3  O   UNL     1       1.678   9.021   0.036  0.00  0.00    -0.251 OA
ATOM      4  N   UNL     1      -0.338   8.089   0.049  0.00  0.00    -0.298 N 
ATOM      5  H   UNL     1       2.706   6.734   0.014  0.00  0.00    +0.174 HD
ATOM      6  H   UNL     1      -0.946   7.172   0.050  0.00  0.00    +0.150 HD
ENDROOT
BRANCH   1   9
ATOM      7  C   UNL     1       1.436   4.427   0.013  0.00  0.00    +0.295 C 
ATOM      8  O   UNL     1       2.651   4.352   0.001  0.00  0.00    -0.265 OA
ATOM      9  N   UNL     1       0.835   5.633   0.025  0.00  0.00    -0.227 N 
ATOM     10  H   UNL     1      -0.263   5.700   0.035  0.00  0.00    +0.173 HD
BRANCH   7  14
ATOM     11  C   UNL     1      -1.110   1.864   0.017  0.00  0.00    +0.143 A 
ATOM     12  C   UNL     1      -0.013   1.076   0.008  0.00  0.00    +0.049 A 
ATOM     13  C   UNL     1       1.105   1.925   0.002  0.00  0.00    +0.055 A 
ATOM     14  C   UNL     1       0.627   3.204   0.013  0.00  0.00    +0.191 A 
ATOM     15  O   UNL     1      -0.721   3.145   0.026  0.00  0.00    -0.452 OA
BRANCH  11  16
ATOM     16  C   UNL     1      -2.538   1.380   0.020  0.00  0.00    +0.303 C 
BRANCH  16  17
ATOM     17  O   UNL     1      -2.983   1.220   1.368  0.00  0.00    -0.484 OA
BRANCH  17  21
ATOM     18  C   UNL     1      -6.854  -0.096   1.918  0.00  0.00    +0.000 A 
ATOM     19  C   UNL     1      -6.053   0.168   3.013  0.00  0.00    +0.004 A 
ATOM     20  C   UNL     1      -4.757   0.609   2.832  0.00  0.00    +0.045 A 
ATOM     21  C   UNL     1      -4.258   0.786   1.549  0.00  0.00    +0.121 A 
ATOM     22  C   UNL     1      -5.066   0.526   0.452  0.00  0.00    +0.045 A 
ATOM     23  C   UNL     1      -6.360   0.080   0.638  0.00  0.00    +0.004 A 
ENDBRANCH  17  21
ENDBRANCH  16  17
ENDBRANCH  11  16
ENDBRANCH   7  14
ENDBRANCH   1   9
BRANCH   4  24
ATOM     24  C   UNL     1      -0.992   9.400   0.062  0.00  0.00    +0.112 C 
BRANCH  24  25
ATOM     25  C   UNL     1      -2.510   9.213   0.075  0.00  0.00    +0.073 C 
BRANCH  25  26
ATOM     26  C   UNL     1      -3.183  10.562   0.089  0.00  0.00    +0.035 A 
ATOM     27  C   UNL     1      -4.101  10.998  -0.797  0.00  0.00    +0.108 A 
ATOM     28  N   UNL     1      -4.444  12.261  -0.416  0.00  0.00    -0.336 N 
ATOM     29  C   UNL     1      -3.718  12.562   0.687  0.00  0.00    +0.087 A 
ATOM     30  N   UNL     1      -2.968  11.541   0.983  0.00  0.00    -0.347 N 
ATOM     31  C   UNL     1      -3.802  13.881   1.418  0.00  0.00    +0.072 C 
ATOM     32  C   UNL     1      -4.494  14.896   0.499  0.00  0.00    +0.009 C 
ATOM     33  C   UNL     1      -5.774  14.273  -0.066  0.00  0.00    +0.022 C 
ATOM     34  C   UNL     1      -5.409  13.160  -1.054  0.00  0.00    +0.123 C 
ATOM     35  H   UNL     1      -2.246  11.393   1.798  0.00  0.00    +0.167 HD
ENDBRANCH  25  26
ENDBRANCH  24  25
ENDBRANCH   4  24
TORSDOF 8
