REMARK  Name = ZINC41008864
REMARK  7 active torsions:
REMARK  status: ('A' for Active; 'I' for Inactive)
REMARK    1  A    between atoms: C_1  and  C_2
REMARK    2  A    between atoms: C_5  and  O_9
REMARK    3  A    between atoms: C_7  and  C_8
REMARK    4  A    between atoms: O_9  and  C_10
REMARK    5  A    between atoms: C_10  and  C_12
REMARK    6  A    between atoms: C_10  and  C_13
REMARK    7  A    between atoms: C_19  and  C_24
REMARK                            x       y       z     vdW  Elec       q    Type
REMARK                         _______ _______ _______ _____ _____    ______ ____
ROOT
ATOM      1  C   UNL     1      -0.840  -6.048  -1.143  0.00  0.00    +0.259 C 
ATOM      2  O   UNL     1      -1.266  -6.375  -0.056  0.00  0.00    -0.271 OA
ATOM      3  N   UNL     1      -1.071  -6.827  -2.219  0.00  0.00    -0.260 N 
ATOM      4  C   UNL     1      -1.797  -8.004  -2.082  0.00  0.00    +0.188 A 
ATOM      5  N   UNL     1      -2.116  -8.882  -2.994  0.00  0.00    -0.140 NA
ATOM      6  N   UNL     1      -2.855 -10.014  -2.677  0.00  0.00    -0.184 N 
ATOM      7  C   UNL     1      -3.385 -11.140  -3.292  0.00  0.00    +0.192 A 
ATOM      8  N   UNL     1      -4.005 -11.845  -2.369  0.00  0.00    -0.126 NA
ATOM      9  N   UNL     1      -3.906 -11.256  -1.229  0.00  0.00    -0.120 NA
ATOM     10  C   UNL     1      -3.227 -10.156  -1.363  0.00  0.00    +0.220 A 
ATOM     11  S   UNL     1      -2.528  -8.707  -0.612  0.00  0.00    -0.011 S 
ATOM     12  H   UNL     1      -0.731  -6.566  -3.089  0.00  0.00    +0.157 HD
ENDROOT
BRANCH   7  13
ATOM     13  C   UNL     1      -3.275 -11.483  -4.719  0.00  0.00    +0.058 A 
ATOM     14  C   UNL     1      -3.526 -12.680  -5.342  0.00  0.00    +0.019 A 
ATOM     15  C   UNL     1      -3.351 -12.763  -6.706  0.00  0.00    +0.008 A 
ATOM     16  C   UNL     1      -2.938 -11.665  -7.389  0.00  0.00    +0.046 A 
ATOM     17  S   UNL     1      -2.788 -10.449  -6.090  0.00  0.00    -0.093 S 
ENDBRANCH   7  13
BRANCH   1  18
ATOM     18  C   UNL     1      -0.052  -4.772  -1.292  0.00  0.00    +0.256 C 
ATOM     19  C   UNL     1       1.346  -5.095  -1.822  0.00  0.00    +0.062 C 
BRANCH  18  20
ATOM     20  O   UNL     1       0.057  -4.129  -0.021  0.00  0.00    -0.480 OA
BRANCH  20  25
ATOM     21  C   UNL     1       0.868   1.445  -0.036  0.00  0.00    +0.044 C 
ATOM     22  C   UNL     1       0.651  -0.047  -0.032  0.00  0.00    -0.047 A 
ATOM     23  C   UNL     1       0.649  -0.747  -1.224  0.00  0.00    +0.007 A 
ATOM     24  C   UNL     1       0.450  -2.114  -1.223  0.00  0.00    +0.046 A 
ATOM     25  C   UNL     1       0.253  -2.784  -0.024  0.00  0.00    +0.122 A 
ATOM     26  C   UNL     1       0.256  -2.079   1.170  0.00  0.00    +0.049 A 
ATOM     27  C   UNL     1       0.460  -0.713   1.164  0.00  0.00    -0.044 A 
ATOM     28  C   UNL     1       0.469   0.053   2.462  0.00  0.00    +0.044 C 
ENDBRANCH  20  25
ENDBRANCH  18  20
ENDBRANCH   1  18
TORSDOF 4
