REMARK  Name = ZINC21736450
REMARK  10 active torsions:
REMARK  status: ('A' for Active; 'I' for Inactive)
REMARK    1  A    between atoms: C_1  and  C_2
REMARK    2  A    between atoms: C_2  and  C_4
REMARK    3  A    between atoms: C_2  and  O_16
REMARK    4  A    between atoms: N_6  and  C_7
REMARK    5  A    between atoms: C_12  and  N_13
REMARK    6  A    between atoms: O_16  and  C_17
REMARK    7  A    between atoms: C_17  and  C_19
REMARK    8  A    between atoms: C_19  and  N_20
REMARK    9  A    between atoms: C_21  and  C_23
REMARK   10  A    between atoms: C_26  and  C_29
REMARK                            x       y       z     vdW  Elec       q    Type
REMARK                         _______ _______ _______ _____ _____    ______ ____
ROOT
ATOM      1  C   UNL     1       3.573   2.198  -0.083  0.00  0.00    +0.325 C 
ATOM      2  O   UNL     1       3.341   3.384  -0.088  0.00  0.00    -0.249 OA
ENDROOT
BRANCH   1   3
ATOM      3  O   UNL     1       4.842   1.762  -0.078  0.00  0.00    -0.451 OA
BRANCH   3   5
ATOM      4  C   UNL     1       6.257   3.120  -1.522  0.00  0.00    +0.062 C 
ATOM      5  C   UNL     1       5.886   2.771  -0.079  0.00  0.00    +0.259 C 
BRANCH   5   6
ATOM      6  C   UNL     1       7.101   2.239   0.637  0.00  0.00    +0.258 C 
ATOM      7  O   UNL     1       7.122   1.089   1.022  0.00  0.00    -0.271 OA
ATOM      8  N   UNL     1       8.164   3.040   0.848  0.00  0.00    -0.281 N 
ATOM      9  H   UNL     1       8.174   4.060   0.436  0.00  0.00    +0.155 HD
BRANCH   8  10
ATOM     10  C   UNL     1       9.253   2.575   1.593  0.00  0.00    +0.064 A 
ATOM     11  C   UNL     1       9.638   1.244   1.506  0.00  0.00    +0.025 A 
ATOM     12  C   UNL     1      10.717   0.789   2.238  0.00  0.00    +0.002 A 
ATOM     13  C   UNL     1      11.408   1.656   3.065  0.00  0.00    +0.002 A 
ATOM     14  C   UNL     1      11.024   2.981   3.159  0.00  0.00    +0.034 A 
ATOM     15  C   UNL     1       9.948   3.443   2.425  0.00  0.00    +0.147 A 
BRANCH  15  16
ATOM     16  N   UNL     1       9.537   4.862   2.526  0.00  0.00    +0.058 N 
ATOM     17  O   UNL     1      10.206   5.644   3.177  0.00  0.00    -0.126 OA
ATOM     18  O   UNL     1       8.531   5.246   1.957  0.00  0.00    -0.126 OA
ENDBRANCH  15  16
ENDBRANCH   8  10
ENDBRANCH   5   6
ENDBRANCH   3   5
ENDBRANCH   1   3
BRANCH   1  19
ATOM     19  C   UNL     1       2.436   1.208  -0.082  0.00  0.00    +0.225 C 
BRANCH  19  20
ATOM     20  N   UNL     1       1.161   1.929  -0.088  0.00  0.00    -0.301 N 
ATOM     21  C   UNL     1       0.000   1.245  -0.088  0.00  0.00    +0.245 C 
ATOM     22  O   UNL     1       0.011   0.029  -0.084  0.00  0.00    -0.270 OA
ATOM     23  H   UNL     1       1.151   3.029  -0.093  0.00  0.00    +0.150 HD
BRANCH  21  24
ATOM     24  C   UNL     1      -1.286   1.972  -0.101  0.00  0.00    +0.037 A 
ATOM     25  C   UNL     1      -1.299   3.369  -0.101  0.00  0.00    +0.013 A 
ATOM     26  C   UNL     1      -2.498   4.045  -0.118  0.00  0.00    +0.009 A 
ATOM     27  C   UNL     1      -3.699   3.336  -0.124  0.00  0.00    -0.018 A 
ATOM     28  C   UNL     1      -3.687   1.942  -0.119  0.00  0.00    +0.009 A 
ATOM     29  C   UNL     1      -2.490   1.263  -0.107  0.00  0.00    +0.013 A 
BRANCH  27  30
ATOM     30  C   UNL     1      -4.990   4.066  -0.137  0.00  0.00    -0.018 A 
ATOM     31  C   UNL     1      -6.192   3.361  -0.148  0.00  0.00    +0.008 A 
ATOM     32  C   UNL     1      -7.391   4.045  -0.153  0.00  0.00    +0.001 A 
ATOM     33  C   UNL     1      -7.400   5.429  -0.159  0.00  0.00    +0.000 A 
ATOM     34  C   UNL     1      -6.210   6.134  -0.153  0.00  0.00    +0.001 A 
ATOM     35  C   UNL     1      -5.006   5.460  -0.142  0.00  0.00    +0.008 A 
ENDBRANCH  27  30
ENDBRANCH  21  24
ENDBRANCH  19  20
ENDBRANCH   1  19
TORSDOF 9
