REMARK  Name = ZINC20356334
REMARK  9 active torsions:
REMARK  status: ('A' for Active; 'I' for Inactive)
REMARK    1  A    between atoms: C_1  and  C_2
REMARK    2  A    between atoms: C_3  and  N_15
REMARK    3  A    between atoms: N_6  and  C_9
REMARK    4  A    between atoms: N_7  and  C_8
REMARK    5  A    between atoms: N_15  and  C_16
REMARK    6  A    between atoms: C_16  and  N_18
REMARK    7  A    between atoms: N_18  and  N_19
REMARK    8  A    between atoms: C_20  and  C_21
REMARK    9  A    between atoms: C_26  and  O_27
REMARK                            x       y       z     vdW  Elec       q    Type
REMARK                         _______ _______ _______ _____ _____    ______ ____
ROOT
ATOM      1  N   UNL     1       0.465   1.023  -1.949  0.00  0.00    -0.290 N 
ATOM      2  H   UNL     1      -0.266   1.219  -2.556  0.00  0.00    +0.154 HD
ENDROOT
BRANCH   1   5
ATOM      3  C   UNL     1      -0.778   3.248  -0.242  0.00  0.00    +0.067 C 
ATOM      4  C   UNL     1      -0.320   1.889   0.220  0.00  0.00    +0.059 A 
ATOM      5  C   UNL     1       0.225   0.932  -0.563  0.00  0.00    +0.121 A 
ATOM      6  C   UNL     1       0.518  -0.216   0.295  0.00  0.00    +0.293 A 
ATOM      7  O   UNL     1       1.016  -1.272  -0.052  0.00  0.00    -0.264 OA
ATOM      8  N   UNL     1       0.133   0.118   1.544  0.00  0.00    -0.216 N 
ATOM      9  N   UNL     1      -0.381   1.420   1.506  0.00  0.00    -0.282 N 
ATOM     10  C   UNL     1      -0.903   2.160   2.657  0.00  0.00    +0.171 C 
BRANCH   8  11
ATOM     11  C   UNL     1       0.234  -0.692   2.679  0.00  0.00    +0.067 A 
ATOM     12  C   UNL     1      -0.874  -0.890   3.494  0.00  0.00    +0.028 A 
ATOM     13  C   UNL     1      -0.771  -1.691   4.614  0.00  0.00    +0.002 A 
ATOM     14  C   UNL     1       0.433  -2.296   4.925  0.00  0.00    +0.000 A 
ATOM     15  C   UNL     1       1.538  -2.100   4.117  0.00  0.00    +0.002 A 
ATOM     16  C   UNL     1       1.440  -1.305   2.992  0.00  0.00    +0.028 A 
ENDBRANCH   8  11
ENDBRANCH   1   5
BRANCH   1  17
ATOM     17  C   UNL     1       1.709   0.836  -2.431  0.00  0.00    +0.154 C 
ATOM     18  S   UNL     1       3.021   0.619  -1.353  0.00  0.00    -0.017 S 
BRANCH  17  19
ATOM     19  N   UNL     1       1.921   0.820  -3.762  0.00  0.00    -0.218 N 
ATOM     20  H   UNL     1       2.817   0.686  -4.109  0.00  0.00    +0.176 HD
BRANCH  19  21
ATOM     21  N   UNL     1       0.848   0.998  -4.645  0.00  0.00    -0.188 NA
ATOM     22  C   UNL     1       1.031   0.872  -5.923  0.00  0.00    +0.141 C 
BRANCH  22  23
ATOM     23  C   UNL     1       2.315   0.363  -6.437  0.00  0.00    +0.036 A 
ATOM     24  C   UNL     1       3.102  -0.481  -5.650  0.00  0.00    +0.013 A 
ATOM     25  C   UNL     1       4.302  -0.954  -6.137  0.00  0.00    +0.001 A 
ATOM     26  C   UNL     1       4.732  -0.596  -7.403  0.00  0.00    +0.004 A 
ATOM     27  C   UNL     1       3.962   0.239  -8.192  0.00  0.00    +0.046 A 
ATOM     28  C   UNL     1       2.751   0.718  -7.721  0.00  0.00    +0.125 A 
BRANCH  28  29
ATOM     29  O   UNL     1       1.992   1.534  -8.498  0.00  0.00    -0.506 OA
ATOM     30  H   UNL     1       2.237   2.468  -8.444  0.00  0.00    +0.292 HD
ENDBRANCH  28  29
ENDBRANCH  22  23
ENDBRANCH  19  21
ENDBRANCH  17  19
ENDBRANCH   1  17
TORSDOF 7
