REMARK  Name = ZINC59170497
REMARK  8 active torsions:
REMARK  status: ('A' for Active; 'I' for Inactive)
REMARK    1  A    between atoms: C_1  and  O_2
REMARK    2  A    between atoms: O_2  and  C_3
REMARK    3  A    between atoms: C_6  and  N_9
REMARK    4  A    between atoms: C_10  and  C_12
REMARK    5  A    between atoms: C_16  and  N_33
REMARK    6  A    between atoms: N_22  and  C_23
REMARK    7  A    between atoms: C_26  and  S_29
REMARK    8  A    between atoms: S_29  and  N_32
REMARK                            x       y       z     vdW  Elec       q    Type
REMARK                         _______ _______ _______ _____ _____    ______ ____
ROOT
ATOM      1  C   UNL     1       3.041  -4.486   5.528  0.00  0.00    +0.098 A 
ATOM      2  C   UNL     1       3.122  -5.871   5.593  0.00  0.00    +0.030 A 
ATOM      3  C   UNL     1       3.761  -6.452   6.776  0.00  0.00    +0.020 A 
ATOM      4  C   UNL     1       4.122  -7.805   6.803  0.00  0.00    +0.044 A 
ATOM      5  C   UNL     1       4.720  -8.324   7.917  0.00  0.00    +0.127 A 
ATOM      6  C   UNL     1       4.973  -7.521   9.021  0.00  0.00    +0.036 A 
ATOM      7  C   UNL     1       4.624  -6.185   9.014  0.00  0.00    +0.049 A 
ATOM      8  C   UNL     1       4.014  -5.638   7.895  0.00  0.00    +0.138 A 
ATOM      9  O   UNL     1       3.657  -4.330   7.873  0.00  0.00    -0.439 OA
ATOM     10  C   UNL     1       3.614  -3.725   6.656  0.00  0.00    +0.212 A 
ATOM     11  N   UNL     1       4.063  -2.500   6.489  0.00  0.00    -0.325 N 
ATOM     12  H   UNL     1       4.122  -2.123   5.597  0.00  0.00    +0.169 HD
ENDROOT
BRANCH  11  13
ATOM     13  C   UNL     1       4.447  -1.758   7.572  0.00  0.00    +0.042 A 
ATOM     14  C   UNL     1       3.653  -1.732   8.721  0.00  0.00    +0.027 A 
ATOM     15  C   UNL     1       4.046  -0.982   9.809  0.00  0.00    +0.030 A 
ATOM     16  C   UNL     1       5.224  -0.257   9.765  0.00  0.00    +0.105 A 
ATOM     17  C   UNL     1       6.016  -0.279   8.630  0.00  0.00    +0.030 A 
ATOM     18  C   UNL     1       5.638  -1.029   7.536  0.00  0.00    +0.027 A 
BRANCH  16  19
ATOM     19  S   UNL     1       5.718   0.699  11.161  0.00  0.00    +0.056 S 
ATOM     20  O   UNL     1       6.579   1.718  10.671  0.00  0.00    -0.153 OA
ATOM     21  O   UNL     1       4.536   0.989  11.894  0.00  0.00    -0.153 OA
BRANCH  19  22
ATOM     22  N   UNL     1       6.644  -0.281  12.123  0.00  0.00    -0.204 NA
ATOM     23  H   UNL     1       6.813  -1.199  11.859  0.00  0.00    +0.144 HD
ATOM     24  H   UNL     1       7.016   0.063  12.950  0.00  0.00    +0.144 HD
ENDBRANCH  19  22
ENDBRANCH  16  19
ENDBRANCH  11  13
BRANCH   1  26
ATOM     25  N   UNL     1       2.231  -2.471   4.407  0.00  0.00    -0.281 N 
ATOM     26  C   UNL     1       2.417  -3.806   4.380  0.00  0.00    +0.253 C 
ATOM     27  O   UNL     1       2.070  -4.449   3.408  0.00  0.00    -0.270 OA
ATOM     28  H   UNL     1       2.556  -1.952   5.159  0.00  0.00    +0.155 HD
BRANCH  25  32
ATOM     29  C   UNL     1       0.260  -0.576   1.260  0.00  0.00    +0.120 A 
ATOM     30  C   UNL     1       0.097  -0.115   2.558  0.00  0.00    +0.047 A 
ATOM     31  C   UNL     1       0.750  -0.742   3.601  0.00  0.00    +0.027 A 
ATOM     32  C   UNL     1       1.569  -1.835   3.350  0.00  0.00    +0.034 A 
ATOM     33  C   UNL     1       1.731  -2.296   2.051  0.00  0.00    +0.027 A 
ATOM     34  C   UNL     1       1.074  -1.671   1.010  0.00  0.00    +0.047 A 
BRANCH  29  36
ATOM     35  C   UNL     1      -1.204   1.163   0.564  0.00  0.00    +0.277 C 
ATOM     36  O   UNL     1      -0.383   0.042   0.234  0.00  0.00    -0.495 OA
ENDBRANCH  29  36
ENDBRANCH  25  32
ENDBRANCH   1  26
BRANCH   5  37
ATOM     37  N   UNL     1       5.102  -9.754   7.947  0.00  0.00    +0.056 N 
ATOM     38  O   UNL     1       4.884 -10.457   6.989  0.00  0.00    -0.126 OA
ATOM     39  O   UNL     1       5.631 -10.218   8.930  0.00  0.00    -0.126 OA
ENDBRANCH   5  37
TORSDOF 7
