REMARK  Name = ZINC57531094
REMARK  3 active torsions:
REMARK  status: ('A' for Active; 'I' for Inactive)
REMARK    1  A    between atoms: C_1  and  C_2
REMARK    2  A    between atoms: C_5  and  C_8
REMARK    3  A    between atoms: C_23  and  C_26
REMARK                            x       y       z     vdW  Elec       q    Type
REMARK                         _______ _______ _______ _____ _____    ______ ____
ROOT
ATOM      1  C   UNL     1       0.060  -4.254  -0.022  0.00  0.00    -0.001 A 
ATOM      2  C   UNL     1      -0.836  -4.984  -0.806  0.00  0.00    +0.029 A 
ATOM      3  C   UNL     1      -0.776  -6.366  -0.798  0.00  0.00    +0.114 A 
ATOM      4  N   UNL     1       0.105  -7.020  -0.069  0.00  0.00    -0.235 NA
ATOM      5  C   UNL     1       0.986  -6.386   0.701  0.00  0.00    +0.169 A 
ATOM      6  C   UNL     1       0.994  -4.973   0.743  0.00  0.00    +0.091 A 
ATOM      7  C   UNL     1       1.981  -4.304   1.595  0.00  0.00    +0.263 A 
ATOM      8  O   UNL     1       2.029  -3.090   1.673  0.00  0.00    -0.267 OA
ATOM      9  N   UNL     1       2.836  -5.088   2.293  0.00  0.00    -0.294 N 
ATOM     10  H   UNL     1       3.503  -4.682   2.868  0.00  0.00    +0.172 HD
ATOM     11  C   UNL     1       2.765  -6.446   2.191  0.00  0.00    +0.200 A 
ATOM     12  N   UNL     1       1.883  -7.063   1.444  0.00  0.00    -0.196 NA
ATOM     13  N   UNL     1       3.650  -7.202   2.915  0.00  0.00    -0.301 N 
ATOM     14  C   UNL     1       3.534  -8.666   2.945  0.00  0.00    +0.108 C 
ATOM     15  C   UNL     1       4.880  -9.276   2.541  0.00  0.00    +0.032 C 
ATOM     16  C   UNL     1       5.981  -8.714   3.442  0.00  0.00    +0.078 C 
ATOM     17  C   UNL     1       6.065  -7.196   3.263  0.00  0.00    +0.032 C 
ATOM     18  C   UNL     1       4.736  -6.564   3.671  0.00  0.00    +0.108 C 
ENDROOT
BRANCH   1  23
ATOM     19  C   UNL     1      -0.056   1.502   0.055  0.00  0.00    +0.044 C 
ATOM     20  C   UNL     1      -0.025  -0.005   0.035  0.00  0.00    -0.050 A 
ATOM     21  C   UNL     1      -0.009  -0.677  -1.174  0.00  0.00    +0.004 A 
ATOM     22  C   UNL     1       0.019  -2.057  -1.199  0.00  0.00    +0.009 A 
ATOM     23  C   UNL     1       0.031  -2.773  -0.002  0.00  0.00    -0.017 A 
ATOM     24  C   UNL     1       0.014  -2.089   1.213  0.00  0.00    +0.009 A 
ATOM     25  C   UNL     1      -0.008  -0.710   1.225  0.00  0.00    +0.004 A 
ENDBRANCH   1  23
BRANCH  16  26
ATOM     26  C   UNL     1       7.302  -9.337   3.070  0.00  0.00    +0.214 C 
ATOM     27  O   UNL     1       7.356 -10.150   2.171  0.00  0.00    -0.276 OA
ATOM     28  N   UNL     1       8.422  -8.991   3.734  0.00  0.00    -0.329 N 
ATOM     29  H   UNL     1       8.378  -8.340   4.452  0.00  0.00    +0.145 HD
ATOM     30  H   UNL     1       9.272  -9.392   3.494  0.00  0.00    +0.145 HD
ENDBRANCH  16  26
TORSDOF 2
