REMARK  Name = ZINC64613182
REMARK  8 active torsions:
REMARK  status: ('A' for Active; 'I' for Inactive)
REMARK    1  A    between atoms: C_1  and  C_2
REMARK    2  A    between atoms: C_2  and  C_3
REMARK    3  A    between atoms: C_3  and  C_4
REMARK    4  A    between atoms: C_4  and  O_5
REMARK    5  A    between atoms: O_5  and  C_6
REMARK    6  A    between atoms: C_9  and  C_12
REMARK    7  A    between atoms: C_14  and  C_18
REMARK    8  A    between atoms: C_21  and  C_24
REMARK                            x       y       z     vdW  Elec       q    Type
REMARK                         _______ _______ _______ _____ _____    ______ ____
ROOT
ATOM      1  C   UNL     1      -3.413  -8.132  -0.008  0.00  0.00    +0.091 C 
ATOM      2  C   UNL     1      -4.602  -8.765  -0.010  0.00  0.00    +0.037 C 
ATOM      3  C   UNL     1      -4.230 -10.237  -0.017  0.00  0.00    +0.215 C 
ATOM      4  N   UNL     1      -2.758 -10.211  -0.018  0.00  0.00    -0.174 NA
ATOM      5  N   UNL     1      -2.396  -9.033  -0.018  0.00  0.00    -0.154 NA
ENDROOT
BRANCH   1   9
ATOM      6  C   UNL     1      -2.913  -3.907   0.009  0.00  0.00    +0.121 A 
ATOM      7  C   UNL     1      -1.800  -4.737  -0.000  0.00  0.00    +0.046 A 
ATOM      8  C   UNL     1      -1.958  -6.107  -0.006  0.00  0.00    +0.013 A 
ATOM      9  C   UNL     1      -3.239  -6.658  -0.002  0.00  0.00    +0.002 A 
ATOM     10  C   UNL     1      -4.354  -5.823   0.007  0.00  0.00    +0.013 A 
ATOM     11  C   UNL     1      -4.189  -4.454   0.018  0.00  0.00    +0.046 A 
BRANCH   6  12
ATOM     12  O   UNL     1      -2.753  -2.558   0.015  0.00  0.00    -0.492 OA
BRANCH  12  13
ATOM     13  C   UNL     1      -1.413  -2.063   0.004  0.00  0.00    +0.229 C 
BRANCH  13  14
ATOM     14  C   UNL     1      -1.433  -0.534   0.013  0.00  0.00    +0.041 C 
BRANCH  14  16
ATOM     15  C   UNL     1      -0.019   1.526   0.010  0.00  0.00    +0.004 C 
ATOM     16  C   UNL     1       0.002  -0.004   0.002  0.00  0.00    -0.000 C 
ENDBRANCH  14  16
ENDBRANCH  13  14
ENDBRANCH  12  13
ENDBRANCH   6  12
ENDBRANCH   1   9
BRANCH   3  17
ATOM     17  C   UNL     1      -4.763 -10.923  -1.277  0.00  0.00    +0.322 C 
ATOM     18  N   UNL     1      -4.434 -12.357  -1.259  0.00  0.00    -0.287 N 
ATOM     19  C   UNL     1      -5.635 -13.042  -1.273  0.00  0.00    +0.168 C 
ATOM     20  N   UNL     1      -6.639 -12.227  -1.296  0.00  0.00    -0.067 NA
ATOM     21  O   UNL     1      -6.197 -10.880  -1.303  0.00  0.00    -0.367 OA
ATOM     22  H   UNL     1      -3.546 -12.746  -1.242  0.00  0.00    +0.151 HD
BRANCH  19  23
ATOM     23  C   UNL     1      -5.756 -14.517  -1.262  0.00  0.00    +0.022 A 
ATOM     24  C   UNL     1      -4.610 -15.312  -1.230  0.00  0.00    +0.015 A 
ATOM     25  C   UNL     1      -4.724 -16.686  -1.220  0.00  0.00    +0.050 A 
ATOM     26  C   UNL     1      -5.976 -17.283  -1.241  0.00  0.00    +0.166 A 
ATOM     27  C   UNL     1      -7.125 -16.493  -1.273  0.00  0.00    +0.167 A 
ATOM     28  C   UNL     1      -7.016 -15.115  -1.277  0.00  0.00    +0.061 A 
ATOM     29  O   UNL     1      -8.217 -17.313  -1.289  0.00  0.00    -0.453 OA
ATOM     30  C   UNL     1      -7.720 -18.606  -1.680  0.00  0.00    +0.466 C 
ATOM     31  O   UNL     1      -6.350 -18.595  -1.237  0.00  0.00    -0.453 OA
ENDBRANCH  19  23
ENDBRANCH   3  17
TORSDOF 7
