REMARK  Name = ZINC10997172
REMARK  14 active torsions:
REMARK  status: ('A' for Active; 'I' for Inactive)
REMARK    1  A    between atoms: C_1  and  C_2
REMARK    2  A    between atoms: C_2  and  C_3
REMARK    3  A    between atoms: C_2  and  C_4
REMARK    4  A    between atoms: C_4  and  N_5
REMARK    5  A    between atoms: C_6  and  N_33
REMARK    6  A    between atoms: C_7  and  C_14
REMARK    7  A    between atoms: C_14  and  C_16
REMARK    8  A    between atoms: C_16  and  S_17
REMARK    9  A    between atoms: S_17  and  C_18
REMARK   10  A    between atoms: C_21  and  C_23
REMARK   11  A    between atoms: C_26  and  C_29
REMARK   12  A    between atoms: C_29  and  C_30
REMARK   13  A    between atoms: C_29  and  C_31
REMARK   14  A    between atoms: C_29  and  C_32
REMARK                            x       y       z     vdW  Elec       q    Type
REMARK                         _______ _______ _______ _____ _____    ______ ____
ROOT
ATOM      1  C   UNL     1      -1.231   2.107   0.461  0.00  0.00    +0.182 C 
ATOM      2  O   UNL     1      -1.242   3.316   0.570  0.00  0.00    -0.291 OA
ENDROOT
BRANCH   1   5
ATOM      3  N   UNL     1       2.362   1.420   0.005  0.00  0.00    -0.281 N 
ATOM      4  C   UNL     1       1.212   2.117   0.241  0.00  0.00    +0.116 A 
ATOM      5  C   UNL     1      -0.015   1.430   0.228  0.00  0.00    +0.120 A 
ATOM      6  C   UNL     1       0.010  -0.013  -0.043  0.00  0.00    +0.266 A 
ATOM      7  O   UNL     1      -1.022  -0.659  -0.066  0.00  0.00    -0.267 OA
ATOM      8  N   UNL     1       1.200  -0.609  -0.264  0.00  0.00    -0.274 N 
ATOM      9  H   UNL     1       1.234  -1.591  -0.449  0.00  0.00    +0.173 HD
ATOM     10  C   UNL     1       2.340   0.100  -0.239  0.00  0.00    +0.331 A 
ATOM     11  O   UNL     1       3.392  -0.475  -0.444  0.00  0.00    -0.246 OA
BRANCH   4  12
ATOM     12  N   UNL     1       1.252   3.455   0.485  0.00  0.00    -0.344 N 
ATOM     13  H   UNL     1       0.538   3.878   0.988  0.00  0.00    +0.144 HD
ATOM     14  H   UNL     1       1.994   3.986   0.157  0.00  0.00    +0.144 HD
ENDBRANCH   4  12
BRANCH   3  15
ATOM     15  C   UNL     1       3.645   2.127   0.016  0.00  0.00    +0.131 C 
BRANCH  15  17
ATOM     16  C   UNL     1       5.235   3.479  -1.357  0.00  0.00    +0.009 C 
ATOM     17  C   UNL     1       3.959   2.636  -1.392  0.00  0.00    +0.003 C 
ATOM     18  C   UNL     1       4.162   1.445  -2.331  0.00  0.00    +0.009 C 
ENDBRANCH  15  17
ENDBRANCH   3  15
ENDBRANCH   1   5
BRANCH   1  19
ATOM     19  C   UNL     1      -2.517   1.328   0.574  0.00  0.00    +0.158 C 
BRANCH  19  20
ATOM     20  S   UNL     1      -3.889   2.470   0.870  0.00  0.00    -0.058 S 
BRANCH  20  21
ATOM     21  C   UNL     1      -5.226   1.325   0.958  0.00  0.00    +0.278 A 
ATOM     22  N   UNL     1      -5.143   0.022   0.825  0.00  0.00    -0.101 NA
ATOM     23  N   UNL     1      -6.313  -0.497   0.951  0.00  0.00    -0.106 NA
ATOM     24  C   UNL     1      -7.191   0.454   1.160  0.00  0.00    +0.249 A 
ATOM     25  O   UNL     1      -6.521   1.627   1.169  0.00  0.00    -0.411 OA
BRANCH  24  26
ATOM     26  C   UNL     1      -8.645   0.275   1.351  0.00  0.00    +0.039 A 
ATOM     27  C   UNL     1      -9.465   1.383   1.573  0.00  0.00    +0.013 A 
ATOM     28  C   UNL     1     -10.822   1.209   1.746  0.00  0.00    +0.005 A 
ATOM     29  C   UNL     1     -11.370  -0.060   1.711  0.00  0.00    -0.042 A 
ATOM     30  C   UNL     1     -10.563  -1.164   1.496  0.00  0.00    +0.005 A 
ATOM     31  C   UNL     1      -9.205  -1.004   1.317  0.00  0.00    +0.013 A 
BRANCH  29  32
ATOM     32  C   UNL     1     -12.854  -0.243   1.907  0.00  0.00    -0.013 C 
ATOM     33  C   UNL     1     -13.101  -1.128   3.131  0.00  0.00    +0.015 C 
ATOM     34  C   UNL     1     -13.511   1.121   2.124  0.00  0.00    +0.015 C 
ATOM     35  C   UNL     1     -13.454  -0.908   0.667  0.00  0.00    +0.015 C 
ENDBRANCH  29  32
ENDBRANCH  24  26
ENDBRANCH  20  21
ENDBRANCH  19  20
ENDBRANCH   1  19
TORSDOF 9
