REMARK  Name = ZINC09404775
REMARK  16 active torsions:
REMARK  status: ('A' for Active; 'I' for Inactive)
REMARK    1  A    between atoms: C_1  and  C_2
REMARK    2  A    between atoms: C_2  and  O_3
REMARK    3  A    between atoms: O_3  and  C_4
REMARK    4  A    between atoms: C_4  and  C_6
REMARK    5  A    between atoms: C_7  and  C_34
REMARK    6  A    between atoms: C_8  and  C_29
REMARK    7  A    between atoms: C_10  and  N_11
REMARK    8  A    between atoms: N_11  and  N_12
REMARK    9  A    between atoms: C_13  and  C_14
REMARK   10  A    between atoms: C_13  and  C_17
REMARK   11  A    between atoms: C_14  and  C_16
REMARK   12  A    between atoms: N_19  and  C_20
REMARK   13  A    between atoms: C_23  and  N_26
REMARK   14  A    between atoms: C_29  and  O_31
REMARK   15  A    between atoms: O_31  and  C_32
REMARK   16  A    between atoms: C_32  and  C_33
REMARK                            x       y       z     vdW  Elec       q    Type
REMARK                         _______ _______ _______ _____ _____    ______ ____
ROOT
ATOM      1  N   UNL     1       3.807  -2.202   1.407  0.00  0.00    -0.229 N 
ATOM      2  H   UNL     1       3.511  -1.830   0.562  0.00  0.00    +0.175 HD
ENDROOT
BRANCH   1   7
ATOM      3  C   UNL     1       1.583  -1.921   2.503  0.00  0.00    +0.092 A 
ATOM      4  C   UNL     1       0.891  -2.124   3.688  0.00  0.00    -0.013 A 
ATOM      5  C   UNL     1       1.603  -2.680   4.720  0.00  0.00    +0.102 A 
ATOM      6  S   UNL     1       3.220  -2.903   4.004  0.00  0.00    -0.065 S 
ATOM      7  C   UNL     1       2.926  -2.301   2.464  0.00  0.00    +0.100 A 
ATOM      8  C   UNL     1      -0.562  -1.755   3.835  0.00  0.00    +0.046 C 
BRANCH   3   9
ATOM      9  C   UNL     1       0.924  -1.333   1.330  0.00  0.00    +0.342 C 
ATOM     10  O   UNL     1       0.370  -2.052   0.520  0.00  0.00    -0.245 OA
BRANCH   9  11
ATOM     11  O   UNL     1       0.933   0.003   1.151  0.00  0.00    -0.461 OA
BRANCH  11  13
ATOM     12  C   UNL     1       0.387   2.031  -0.044  0.00  0.00    +0.048 C 
ATOM     13  C   UNL     1       0.272   0.506  -0.012  0.00  0.00    +0.229 C 
ENDBRANCH  11  13
ENDBRANCH   9  11
ENDBRANCH   3   9
BRANCH   5  14
ATOM     14  C   UNL     1       1.149  -3.008   6.072  0.00  0.00    +0.346 C 
ATOM     15  O   UNL     1      -0.002  -2.786   6.397  0.00  0.00    -0.244 OA
BRANCH  14  16
ATOM     16  O   UNL     1       2.007  -3.556   6.957  0.00  0.00    -0.461 OA
BRANCH  16  17
ATOM     17  C   UNL     1       1.496  -3.850   8.259  0.00  0.00    +0.229 C 
ATOM     18  C   UNL     1       2.605  -4.461   9.117  0.00  0.00    +0.048 C 
ENDBRANCH  16  17
ENDBRANCH  14  16
ENDBRANCH   5  14
ENDBRANCH   1   7
BRANCH   1  19
ATOM     19  N   UNL     1       5.025  -2.604   1.544  0.00  0.00    -0.173 NA
ATOM     20  C   UNL     1       5.840  -2.603   0.506  0.00  0.00    +0.185 C 
BRANCH  20  21
ATOM     21  C   UNL     1       7.196  -3.163   0.634  0.00  0.00    +0.272 C 
ATOM     22  O   UNL     1       7.947  -3.162  -0.323  0.00  0.00    -0.268 OA
ATOM     23  N   UNL     1       7.604  -3.678   1.811  0.00  0.00    -0.280 N 
ATOM     24  H   UNL     1       6.982  -3.748   2.551  0.00  0.00    +0.155 HD
BRANCH  23  25
ATOM     25  C   UNL     1       8.925  -4.111   1.964  0.00  0.00    +0.034 A 
ATOM     26  C   UNL     1       9.208  -5.213   2.760  0.00  0.00    +0.025 A 
ATOM     27  C   UNL     1      10.514  -5.639   2.909  0.00  0.00    +0.034 A 
ATOM     28  C   UNL     1      11.538  -4.969   2.266  0.00  0.00    +0.126 A 
ATOM     29  C   UNL     1      11.260  -3.871   1.473  0.00  0.00    +0.034 A 
ATOM     30  C   UNL     1       9.956  -3.444   1.315  0.00  0.00    +0.025 A 
BRANCH  28  31
ATOM     31  N   UNL     1      12.936  -5.427   2.429  0.00  0.00    +0.056 N 
ATOM     32  O   UNL     1      13.181  -6.386   3.123  0.00  0.00    -0.126 OA
ATOM     33  O   UNL     1      13.833  -4.842   1.867  0.00  0.00    -0.126 OA
ENDBRANCH  28  31
ENDBRANCH  23  25
ENDBRANCH  20  21
BRANCH  20  34
ATOM     34  C   UNL     1       5.397  -2.044  -0.771  0.00  0.00    +0.185 C 
ATOM     35  O   UNL     1       5.654  -0.891  -1.051  0.00  0.00    -0.291 OA
ATOM     36  C   UNL     1       4.622  -2.900  -1.740  0.00  0.00    +0.093 C 
ENDBRANCH  20  34
ENDBRANCH   1  19
TORSDOF 12
