REMARK  Name = ZINC16797293
REMARK  9 active torsions:
REMARK  status: ('A' for Active; 'I' for Inactive)
REMARK    1  A    between atoms: C_1  and  C_2
REMARK    2  A    between atoms: C_2  and  O_3
REMARK    3  A    between atoms: O_3  and  C_4
REMARK    4  A    between atoms: C_4  and  C_6
REMARK    5  A    between atoms: C_7  and  C_19
REMARK    6  A    between atoms: C_12  and  C_14
REMARK    7  A    between atoms: C_19  and  O_20
REMARK    8  A    between atoms: O_20  and  C_21
REMARK    9  A    between atoms: C_21  and  C_23
REMARK                            x       y       z     vdW  Elec       q    Type
REMARK                         _______ _______ _______ _____ _____    ______ ____
ROOT
ATOM      1  C   UNL     1       2.867   4.866  -1.106  0.00  0.00    +0.084 C 
ATOM      2  C   UNL     1       2.383   4.345   0.042  0.00  0.00    +0.061 C 
ATOM      3  N   UNL     1       3.171   4.230   1.151  0.00  0.00    -0.269 N 
ATOM      4  C   UNL     1       4.451   4.618   1.196  0.00  0.00    +0.305 C 
ATOM      5  O   UNL     1       5.073   4.475   2.230  0.00  0.00    -0.252 OA
ATOM      6  N   UNL     1       5.073   5.162   0.131  0.00  0.00    -0.285 N 
ATOM      7  C   UNL     1       4.309   5.330  -1.117  0.00  0.00    +0.179 C 
ATOM      8  H   UNL     1       2.781   3.845   1.952  0.00  0.00    +0.156 HD
ATOM      9  H   UNL     1       6.002   5.437   0.186  0.00  0.00    +0.151 HD
ENDROOT
BRANCH   7  10
ATOM     10  C   UNL     1       4.330   6.792  -1.481  0.00  0.00    +0.130 A 
ATOM     11  C   UNL     1       4.472   7.292  -2.721  0.00  0.00    +0.047 A 
ATOM     12  C   UNL     1       4.432   8.700  -2.603  0.00  0.00    +0.041 A 
ATOM     13  C   UNL     1       4.276   8.977  -1.296  0.00  0.00    +0.195 A 
ATOM     14  O   UNL     1       4.214   7.817  -0.621  0.00  0.00    -0.466 OA
ENDBRANCH   7  10
BRANCH   1  15
ATOM     15  C   UNL     1       2.053   4.981  -2.258  0.00  0.00    +0.339 C 
ATOM     16  O   UNL     1       2.157   4.170  -3.159  0.00  0.00    -0.245 OA
BRANCH  15  17
ATOM     17  O   UNL     1       1.162   5.989  -2.357  0.00  0.00    -0.462 OA
BRANCH  17  19
ATOM     18  C   UNL     1      -0.571   7.245  -3.479  0.00  0.00    +0.048 C 
ATOM     19  C   UNL     1       0.374   6.043  -3.547  0.00  0.00    +0.229 C 
ENDBRANCH  17  19
ENDBRANCH  15  17
ENDBRANCH   1  15
BRANCH   2  20
ATOM     20  C   UNL     1       0.951   3.876   0.097  0.00  0.00    +0.283 C 
BRANCH  20  21
ATOM     21  O   UNL     1       0.920   2.439   0.302  0.00  0.00    -0.458 OA
BRANCH  21  22
ATOM     22  C   UNL     1      -0.289   1.860   0.375  0.00  0.00    +0.314 C 
ATOM     23  O   UNL     1      -1.288   2.531   0.266  0.00  0.00    -0.250 OA
BRANCH  22  24
ATOM     24  C   UNL     1      -0.400   0.372   0.586  0.00  0.00    +0.139 C 
ATOM     25  C   UNL     1      -1.875  -0.029   0.661  0.00  0.00    +0.057 C 
ATOM     26  C   UNL     1      -1.991  -1.447   1.162  0.00  0.00    -0.003 A 
ATOM     27  C   UNL     1      -3.179  -2.130   0.960  0.00  0.00    +0.027 A 
ATOM     28  C   UNL     1      -3.323  -3.427   1.414  0.00  0.00    +0.041 A 
ATOM     29  C   UNL     1      -2.276  -4.049   2.073  0.00  0.00    +0.023 A 
ATOM     30  C   UNL     1      -1.091  -3.373   2.274  0.00  0.00    +0.047 A 
ATOM     31  C   UNL     1      -0.942  -2.068   1.817  0.00  0.00    +0.124 A 
ATOM     32  O   UNL     1       0.242  -1.437   2.031  0.00  0.00    -0.491 OA
ATOM     33  C   UNL     1       0.272  -0.014   1.909  0.00  0.00    +0.244 C 
ATOM     34 CL   UNL     1      -4.815  -4.277   1.157  0.00  0.00    -0.084 Cl
ENDBRANCH  22  24
ENDBRANCH  21  22
ENDBRANCH  20  21
ENDBRANCH   2  20
TORSDOF 8
