REMARK  Name = ZINC12606637
REMARK  5 active torsions:
REMARK  status: ('A' for Active; 'I' for Inactive)
REMARK    1  A    between atoms: C_3  and  N_23
REMARK    2  A    between atoms: C_4  and  N_20
REMARK    3  A    between atoms: C_6  and  C_7
REMARK    4  A    between atoms: N_9  and  C_10
REMARK    5  A    between atoms: N_14  and  C_15
REMARK                            x       y       z     vdW  Elec       q    Type
REMARK                         _______ _______ _______ _____ _____    ______ ____
ROOT
ATOM      1  C   UNL     1      -1.214   1.747   0.017  0.00  0.00    +0.015 A 
ATOM      2  C   UNL     1      -0.013   1.076   0.008  0.00  0.00    +0.026 A 
ATOM      3  C   UNL     1       1.184   1.787   0.000  0.00  0.00    +0.060 A 
ATOM      4  C   UNL     1       1.169   3.180   0.007  0.00  0.00    +0.148 A 
ATOM      5  C   UNL     1      -0.029   3.857   0.023  0.00  0.00    +0.047 A 
ATOM      6  C   UNL     1      -1.232   3.145   0.031  0.00  0.00    +0.039 A 
ENDROOT
BRANCH   3   7
ATOM      7  N   UNL     1       2.396   1.106  -0.015  0.00  0.00    -0.328 N 
ATOM      8  C   UNL     1       2.551   0.335  -1.255  0.00  0.00    +0.105 C 
ATOM      9  C   UNL     1       3.951  -0.281  -1.302  0.00  0.00    +0.019 C 
ATOM     10  C   UNL     1       4.144  -1.191  -0.086  0.00  0.00    +0.003 C 
ATOM     11  C   UNL     1       3.930  -0.375   1.191  0.00  0.00    +0.019 C 
ATOM     12  C   UNL     1       2.530   0.245   1.167  0.00  0.00    +0.105 C 
ENDBRANCH   3   7
BRANCH   6  13
ATOM     13  C   UNL     1      -2.518   3.867   0.047  0.00  0.00    +0.249 C 
ATOM     14  O   UNL     1      -2.532   5.083   0.053  0.00  0.00    -0.270 OA
ATOM     15  N   UNL     1      -3.677   3.179   0.055  0.00  0.00    -0.267 N 
ATOM     16  H   UNL     1      -3.666   2.210   0.050  0.00  0.00    +0.157 HD
BRANCH  15  17
ATOM     17  C   UNL     1      -4.892   3.862   0.070  0.00  0.00    +0.124 A 
ATOM     18  C   UNL     1      -5.056   5.214   0.084  0.00  0.00    +0.065 A 
ATOM     19  C   UNL     1      -6.428   5.478   0.093  0.00  0.00    +0.136 A 
ATOM     20  N   UNL     1      -7.070   4.338   0.094  0.00  0.00    -0.178 NA
ATOM     21  N   UNL     1      -6.129   3.301   0.079  0.00  0.00    -0.247 N 
BRANCH  21  22
ATOM     22  C   UNL     1      -6.426   1.866   0.074  0.00  0.00    +0.109 C 
ATOM     23  C   UNL     1      -7.299   1.511  -1.147  0.00  0.00    +0.027 C 
ATOM     24  C   UNL     1      -8.272   0.429  -0.615  0.00  0.00    +0.002 C 
ATOM     25  C   UNL     1      -8.585   0.924   0.819  0.00  0.00    +0.002 C 
ATOM     26  C   UNL     1      -7.242   1.493   1.324  0.00  0.00    +0.027 C 
ENDBRANCH  21  22
ENDBRANCH  15  17
ENDBRANCH   6  13
BRANCH   4  27
ATOM     27  N   UNL     1       2.444   3.933  -0.001  0.00  0.00    +0.058 N 
ATOM     28  O   UNL     1       2.432   5.150   0.006  0.00  0.00    -0.126 OA
ATOM     29  O   UNL     1       3.504   3.334  -0.014  0.00  0.00    -0.126 OA
ENDBRANCH   4  27
TORSDOF 5
