REMARK  Name = ZINC62929466
REMARK  9 active torsions:
REMARK  status: ('A' for Active; 'I' for Inactive)
REMARK    1  A    between atoms: C_1  and  C_2
REMARK    2  A    between atoms: C_6  and  C_8
REMARK    3  A    between atoms: C_8  and  C_9
REMARK    4  A    between atoms: C_8  and  C_10
REMARK    5  A    between atoms: C_8  and  C_11
REMARK    6  A    between atoms: C_11  and  N_12
REMARK    7  A    between atoms: C_13  and  C_15
REMARK    8  A    between atoms: C_15  and  N_16
REMARK    9  A    between atoms: C_23  and  N_27
REMARK                            x       y       z     vdW  Elec       q    Type
REMARK                         _______ _______ _______ _____ _____    ______ ____
ROOT
ATOM      1  N   UNL     1       0.088  -5.086   3.465  0.00  0.00    -0.313 N 
ATOM      2  C   UNL     1       0.105  -6.434   3.458  0.00  0.00    +0.231 C 
ATOM      3  O   UNL     1       0.108  -7.035   2.404  0.00  0.00    -0.274 OA
ATOM      4  H   UNL     1       0.086  -4.606   4.308  0.00  0.00    +0.149 HD
ENDROOT
BRANCH   1   5
ATOM      5  C   UNL     1       0.072  -4.347   2.201  0.00  0.00    +0.115 C 
BRANCH   5   6
ATOM      6  C   UNL     1       0.054  -2.845   2.489  0.00  0.00    +0.006 C 
ATOM      7  C   UNL     1       1.302  -2.463   3.286  0.00  0.00    +0.017 C 
ATOM      8  C   UNL     1      -1.196  -2.495   3.299  0.00  0.00    +0.017 C 
BRANCH   6  14
ATOM      9  C   UNL     1      -0.018   1.503   0.010  0.00  0.00    +0.044 C 
ATOM     10  C   UNL     1       0.002  -0.004   0.002  0.00  0.00    -0.050 A 
ATOM     11  C   UNL     1       0.006  -0.689  -1.199  0.00  0.00    +0.003 A 
ATOM     12  C   UNL     1       0.025  -2.071  -1.207  0.00  0.00    +0.001 A 
ATOM     13  C   UNL     1       0.040  -2.768  -0.013  0.00  0.00    +0.004 A 
ATOM     14  C   UNL     1       0.037  -2.084   1.188  0.00  0.00    -0.040 A 
ATOM     15  C   UNL     1       0.023  -0.702   1.195  0.00  0.00    +0.007 A 
ENDBRANCH   6  14
ENDBRANCH   5   6
ENDBRANCH   1   5
BRANCH   2  16
ATOM     16  C   UNL     1       0.122  -7.194   4.759  0.00  0.00    +0.212 C 
BRANCH  16  17
ATOM     17  N   UNL     1       0.139  -8.633   4.483  0.00  0.00    -0.225 N 
ATOM     18  C   UNL     1      -0.961  -9.394   4.340  0.00  0.00    +0.254 C 
ATOM     19  O   UNL     1      -2.108  -9.003   4.417  0.00  0.00    -0.270 OA
ATOM     20  C   UNL     1      -0.540 -10.785   4.072  0.00  0.00    +0.052 A 
ATOM     21  C   UNL     1      -1.215 -11.974   3.846  0.00  0.00    +0.014 A 
ATOM     22  C   UNL     1      -0.498 -13.139   3.622  0.00  0.00    +0.003 A 
ATOM     23  C   UNL     1       0.884 -13.123   3.622  0.00  0.00    +0.033 A 
ATOM     24  C   UNL     1       1.572 -11.941   3.846  0.00  0.00    +0.139 A 
ATOM     25  C   UNL     1       0.869 -10.768   4.072  0.00  0.00    +0.080 A 
ATOM     26  C   UNL     1       1.257  -9.367   4.334  0.00  0.00    +0.256 C 
ATOM     27  O   UNL     1       2.394  -8.947   4.406  0.00  0.00    -0.269 OA
BRANCH  24  28
ATOM     28  N   UNL     1       3.053 -11.931   3.844  0.00  0.00    +0.057 N 
ATOM     29  O   UNL     1       3.663 -12.956   3.647  0.00  0.00    -0.126 OA
ATOM     30  O   UNL     1       3.651 -10.899   4.040  0.00  0.00    -0.126 OA
ENDBRANCH  24  28
ENDBRANCH  16  17
ENDBRANCH   2  16
TORSDOF 6
