REMARK  Name = ZINC67585069
REMARK  10 active torsions:
REMARK  status: ('A' for Active; 'I' for Inactive)
REMARK    1  A    between atoms: C_1  and  C_2
REMARK    2  A    between atoms: C_2  and  C_3
REMARK    3  A    between atoms: C_3  and  C_4
REMARK    4  A    between atoms: N_6  and  C_7
REMARK    5  A    between atoms: C_11  and  N_14
REMARK    6  A    between atoms: C_12  and  C_13
REMARK    7  A    between atoms: N_17  and  C_18
REMARK    8  A    between atoms: C_21  and  C_29
REMARK    9  A    between atoms: C_21  and  C_30
REMARK   10  A    between atoms: C_26  and  C_28
REMARK                            x       y       z     vdW  Elec       q    Type
REMARK                         _______ _______ _______ _____ _____    ______ ____
ROOT
ATOM      1  N   UNL     1      -4.874  -6.831  -0.402  0.00  0.00    -0.269 N 
ATOM      2  C   UNL     1      -4.863  -8.179  -0.404  0.00  0.00    +0.304 C 
ATOM      3  O   UNL     1      -3.805  -8.778  -0.402  0.00  0.00    -0.252 OA
ATOM      4  N   UNL     1      -6.024  -8.862  -0.407  0.00  0.00    -0.292 N 
ATOM      5  H   UNL     1      -5.715  -6.353  -0.473  0.00  0.00    +0.156 HD
ATOM      6  H   UNL     1      -6.868  -8.384  -0.408  0.00  0.00    +0.151 HD
ENDROOT
BRANCH   4   7
ATOM      7  C   UNL     1      -6.013 -10.327  -0.409  0.00  0.00    +0.109 C 
ATOM      8  C   UNL     1      -7.322 -10.854  -1.012  0.00  0.00    +0.034 C 
ATOM      9  C   UNL     1      -7.423 -12.362  -0.770  0.00  0.00    -0.026 C 
ATOM     10  C   UNL     1      -7.655 -12.628   0.722  0.00  0.00    +0.081 C 
ATOM     11  C   UNL     1      -6.628 -11.854   1.511  0.00  0.00    +0.111 A 
ATOM     12  C   UNL     1      -5.901 -10.836   1.004  0.00  0.00    +0.014 A 
ATOM     13  C   UNL     1      -5.058 -10.375   2.032  0.00  0.00    +0.050 A 
ATOM     14  C   UNL     1      -5.317 -11.136   3.113  0.00  0.00    +0.103 A 
ATOM     15  O   UNL     1      -6.271 -12.029   2.788  0.00  0.00    -0.464 OA
ATOM     16  C   UNL     1      -4.650 -11.010   4.459  0.00  0.00    +0.086 C 
ATOM     17  C   UNL     1      -8.591 -12.930  -1.577  0.00  0.00    +0.011 C 
ATOM     18  C   UNL     1      -6.123 -13.037  -1.212  0.00  0.00    +0.011 C 
ENDBRANCH   4   7
BRANCH   1  23
ATOM     19  C   UNL     1      -2.439  -4.221   0.498  0.00  0.00    +0.038 A 
ATOM     20  C   UNL     1      -1.288  -4.723  -0.097  0.00  0.00    +0.024 A 
ATOM     21  C   UNL     1      -1.331  -5.918  -0.788  0.00  0.00    +0.004 A 
ATOM     22  C   UNL     1      -2.518  -6.619  -0.890  0.00  0.00    +0.024 A 
ATOM     23  C   UNL     1      -3.672  -6.122  -0.297  0.00  0.00    +0.039 A 
ATOM     24  C   UNL     1      -3.631  -4.924   0.402  0.00  0.00    -0.008 A 
ATOM     25  C   UNL     1      -4.879  -4.386   1.052  0.00  0.00    +0.047 C 
BRANCH  19  28
ATOM     26  C   UNL     1      -1.232  -2.582   1.730  0.00  0.00    +0.217 C 
ATOM     27  O   UNL     1      -0.249  -3.291   1.690  0.00  0.00    -0.275 OA
ATOM     28  N   UNL     1      -2.394  -3.010   1.198  0.00  0.00    -0.285 N 
ATOM     29  H   UNL     1      -3.200  -2.479   1.300  0.00  0.00    +0.155 HD
BRANCH  26  30
ATOM     30  C   UNL     1      -1.155  -1.221   2.374  0.00  0.00    +0.096 C 
BRANCH  30  32
ATOM     31  C   UNL     1       0.343   0.398   3.547  0.00  0.00    +0.004 C 
ATOM     32  C   UNL     1       0.264  -0.983   2.893  0.00  0.00    +0.006 C 
ENDBRANCH  30  32
ENDBRANCH  26  30
ENDBRANCH  19  28
ENDBRANCH   1  23
TORSDOF 5
