REMARK  Name = ZINC05413770
REMARK  5 active torsions:
REMARK  status: ('A' for Active; 'I' for Inactive)
REMARK    1  A    between atoms: C_3  and  S_6
REMARK    2  A    between atoms: S_6  and  N_9
REMARK    3  A    between atoms: N_9  and  C_10
REMARK    4  A    between atoms: C_20  and  N_22
REMARK    5  A    between atoms: C_27  and  C_29
REMARK                            x       y       z     vdW  Elec       q    Type
REMARK                         _______ _______ _______ _____ _____    ______ ____
ROOT
ATOM      1  C   UNL     1      -2.283   2.102  -2.415  0.00  0.00    +0.133 C 
ATOM      2  C   UNL     1      -3.815   2.167  -2.561  0.00  0.00    +0.183 C 
ATOM      3  O   UNL     1      -4.087   2.978  -3.708  0.00  0.00    -0.370 OA
ATOM      4  C   UNL     1      -2.939   3.063  -4.546  0.00  0.00    +0.171 C 
ATOM      5  C   UNL     1      -1.782   2.292  -3.865  0.00  0.00    +0.170 C 
ATOM      6  O   UNL     1      -1.750   0.993  -4.495  0.00  0.00    -0.370 OA
ATOM      7  C   UNL     1      -2.063   1.215  -5.886  0.00  0.00    +0.185 C 
ATOM      8  C   UNL     1      -3.175   2.287  -5.873  0.00  0.00    +0.130 C 
ENDROOT
BRANCH   8   9
ATOM      9  N   UNL     1      -3.030   3.190  -7.018  0.00  0.00    -0.306 N 
ATOM     10  C   UNL     1      -3.601   2.861  -8.235  0.00  0.00    +0.216 A 
ATOM     11  N   UNL     1      -4.271   1.723  -8.348  0.00  0.00    -0.223 NA
ATOM     12  C   UNL     1      -4.836   1.375  -9.493  0.00  0.00    +0.116 A 
ATOM     13  C   UNL     1      -4.714   2.210 -10.589  0.00  0.00    +0.048 A 
ATOM     14  C   UNL     1      -3.998   3.401 -10.442  0.00  0.00    +0.076 A 
ATOM     15  N   UNL     1      -3.460   3.689  -9.258  0.00  0.00    -0.214 NA
ATOM     16  H   UNL     1      -2.534   4.018  -6.923  0.00  0.00    +0.149 HD
BRANCH  14  17
ATOM     17  C   UNL     1      -3.839   4.330 -11.586  0.00  0.00    +0.004 A 
ATOM     18  C   UNL     1      -4.492   4.072 -12.791  0.00  0.00    +0.014 A 
ATOM     19  C   UNL     1      -4.344   4.937 -13.855  0.00  0.00    +0.050 A 
ATOM     20  C   UNL     1      -3.547   6.066 -13.731  0.00  0.00    +0.166 A 
ATOM     21  C   UNL     1      -2.892   6.329 -12.528  0.00  0.00    +0.167 A 
ATOM     22  C   UNL     1      -3.041   5.466 -11.458  0.00  0.00    +0.059 A 
ATOM     23  O   UNL     1      -2.180   7.486 -12.664  0.00  0.00    -0.453 OA
ATOM     24  C   UNL     1      -2.077   7.709 -14.082  0.00  0.00    +0.466 C 
ATOM     25  O   UNL     1      -3.244   7.058 -14.617  0.00  0.00    -0.453 OA
ENDBRANCH  14  17
ENDBRANCH   8   9
BRANCH   1  26
ATOM     26  N   UNL     1      -1.799   3.183  -1.554  0.00  0.00    -0.182 NA
ATOM     27  H   UNL     1      -1.708   4.082  -1.908  0.00  0.00    +0.149 HD
BRANCH  26  28
ATOM     28  S   UNL     1      -1.406   2.872   0.025  0.00  0.00    +0.065 S 
ATOM     29  O   UNL     1      -2.493   2.143   0.578  0.00  0.00    -0.153 OA
ATOM     30  O   UNL     1      -0.951   4.098   0.579  0.00  0.00    -0.153 OA
BRANCH  28  33
ATOM     31  C   UNL     1       2.220   1.048  -0.013  0.00  0.00    +0.010 A 
ATOM     32  C   UNL     1       1.300   2.079   0.001  0.00  0.00    +0.036 A 
ATOM     33  C   UNL     1      -0.022   1.781   0.012  0.00  0.00    +0.142 A 
ATOM     34  S   UNL     1       0.002  -0.004   0.002  0.00  0.00    -0.077 S 
ATOM     35  C   UNL     1       1.773  -0.232  -0.016  0.00  0.00    +0.047 A 
ENDBRANCH  28  33
ENDBRANCH  26  28
ENDBRANCH   1  26
TORSDOF 5
