REMARK  Name = ZINC27664565
REMARK  8 active torsions:
REMARK  status: ('A' for Active; 'I' for Inactive)
REMARK    1  A    between atoms: C_5  and  C_7
REMARK    2  A    between atoms: C_7  and  N_8
REMARK    3  A    between atoms: C_9  and  C_26
REMARK    4  A    between atoms: C_12  and  C_19
REMARK    5  A    between atoms: C_24  and  O_25
REMARK    6  A    between atoms: C_29  and  O_32
REMARK    7  A    between atoms: O_32  and  C_33
REMARK    8  A    between atoms: C_33  and  C_34
REMARK                            x       y       z     vdW  Elec       q    Type
REMARK                         _______ _______ _______ _____ _____    ______ ____
ROOT
ATOM      1  N   UNL     1       1.466  -2.530   1.420  0.00  0.00    -0.281 N 
ATOM      2  C   UNL     1       2.810  -2.791   1.952  0.00  0.00    +0.142 C 
ATOM      3  C   UNL     1       2.610  -3.343   3.337  0.00  0.00    +0.035 A 
ATOM      4  C   UNL     1       3.199  -3.836   4.506  0.00  0.00    +0.102 A 
ATOM      5  N   UNL     1       2.224  -4.139   5.341  0.00  0.00    -0.173 NA
ATOM      6  N   UNL     1       1.079  -3.887   4.814  0.00  0.00    -0.272 N 
ATOM      7  H   UNL     1       0.223  -4.031   5.247  0.00  0.00    +0.189 HD
ATOM      8  C   UNL     1       1.247  -3.384   3.555  0.00  0.00    +0.126 A 
ATOM      9  C   UNL     1       0.567  -2.873   2.360  0.00  0.00    +0.266 C 
ATOM     10  O   UNL     1      -0.639  -2.775   2.235  0.00  0.00    -0.268 OA
ENDROOT
BRANCH   4  11
ATOM     11  C   UNL     1       4.653  -3.989   4.761  0.00  0.00    +0.044 A 
ATOM     12  C   UNL     1       5.530  -2.951   4.457  0.00  0.00    +0.014 A 
ATOM     13  C   UNL     1       6.881  -3.098   4.696  0.00  0.00    +0.001 A 
ATOM     14  C   UNL     1       7.369  -4.275   5.236  0.00  0.00    +0.004 A 
ATOM     15  C   UNL     1       6.508  -5.312   5.540  0.00  0.00    +0.046 A 
ATOM     16  C   UNL     1       5.148  -5.175   5.311  0.00  0.00    +0.126 A 
BRANCH  16  17
ATOM     17  O   UNL     1       4.299  -6.192   5.614  0.00  0.00    -0.506 OA
ATOM     18  H   UNL     1       4.161  -6.818   4.890  0.00  0.00    +0.292 HD
ENDBRANCH  16  17
ENDBRANCH   4  11
BRANCH   2  19
ATOM     19  C   UNL     1       3.523  -3.799   1.088  0.00  0.00    -0.022 A 
ATOM     20  C   UNL     1       2.838  -4.896   0.598  0.00  0.00    +0.009 A 
ATOM     21  C   UNL     1       3.489  -5.822  -0.193  0.00  0.00    +0.046 A 
ATOM     22  C   UNL     1       4.832  -5.650  -0.497  0.00  0.00    +0.121 A 
ATOM     23  C   UNL     1       5.517  -4.549  -0.005  0.00  0.00    +0.046 A 
ATOM     24  C   UNL     1       4.860  -3.623   0.782  0.00  0.00    +0.009 A 
BRANCH  22  25
ATOM     25  O   UNL     1       5.475  -6.560  -1.276  0.00  0.00    -0.483 OA
BRANCH  25  26
ATOM     26  C   UNL     1       6.857  -6.320  -1.548  0.00  0.00    +0.324 C 
BRANCH  26  27
ATOM     27  C   UNL     1       7.397  -7.424  -2.419  0.00  0.00    +0.248 C 
ATOM     28  O   UNL     1       6.670  -8.329  -2.772  0.00  0.00    -0.272 OA
ATOM     29  N   UNL     1       8.688  -7.408  -2.806  0.00  0.00    -0.327 N 
ATOM     30  H   UNL     1       9.269  -6.684  -2.523  0.00  0.00    +0.145 HD
ATOM     31  H   UNL     1       9.036  -8.119  -3.366  0.00  0.00    +0.145 HD
ENDBRANCH  26  27
ENDBRANCH  25  26
ENDBRANCH  22  25
ENDBRANCH   2  19
BRANCH   1  32
ATOM     32  C   UNL     1       1.158  -1.984   0.096  0.00  0.00    +0.145 C 
BRANCH  32  37
ATOM     33  C   UNL     1      -0.165   1.545   0.320  0.00  0.00    +0.000 A 
ATOM     34  C   UNL     1       1.006   2.280   0.312  0.00  0.00    +0.001 A 
ATOM     35  C   UNL     1       2.226   1.636   0.235  0.00  0.00    +0.020 A 
ATOM     36  C   UNL     1       2.276   0.255   0.165  0.00  0.00    +0.046 A 
ATOM     37  C   UNL     1       1.105  -0.480   0.173  0.00  0.00    -0.012 A 
ATOM     38  C   UNL     1      -0.116   0.165   0.250  0.00  0.00    +0.006 A 
ATOM     39 CL   UNL     1       3.809  -0.554   0.067  0.00  0.00    -0.083 Cl
ENDBRANCH  32  37
ENDBRANCH   1  32
TORSDOF 8
