REMARK  Name = ZINC07821381
REMARK  7 active torsions:
REMARK  status: ('A' for Active; 'I' for Inactive)
REMARK    1  A    between atoms: C_1  and  C_2
REMARK    2  A    between atoms: C_5  and  O_11
REMARK    3  A    between atoms: C_6  and  N_8
REMARK    4  A    between atoms: O_11  and  C_12
REMARK    5  A    between atoms: C_12  and  C_14
REMARK    6  A    between atoms: C_12  and  C_15
REMARK    7  A    between atoms: N_17  and  C_18
REMARK                            x       y       z     vdW  Elec       q    Type
REMARK                         _______ _______ _______ _____ _____    ______ ____
ROOT
ATOM      1  C   UNL     1      -0.946   1.709   1.156  0.00  0.00    +0.256 C 
ATOM      2  C   UNL     1      -0.457   1.626  -0.291  0.00  0.00    +0.062 C 
ENDROOT
BRANCH   1   3
ATOM      3  C   UNL     1      -2.348   1.162   1.245  0.00  0.00    +0.258 C 
ATOM      4  O   UNL     1      -2.567   0.155   1.884  0.00  0.00    -0.271 OA
ATOM      5  N   UNL     1      -3.358   1.792   0.613  0.00  0.00    -0.282 N 
ATOM      6  H   UNL     1      -3.173   2.553   0.040  0.00  0.00    +0.155 HD
BRANCH   5   7
ATOM      7  C   UNL     1      -4.675   1.349   0.784  0.00  0.00    +0.036 A 
ATOM      8  C   UNL     1      -5.586   1.458  -0.259  0.00  0.00    +0.026 A 
ATOM      9  C   UNL     1      -6.884   1.015  -0.091  0.00  0.00    +0.043 A 
ATOM     10  C   UNL     1      -7.281   0.473   1.119  0.00  0.00    +0.159 A 
ATOM     11  C   UNL     1      -6.375   0.368   2.164  0.00  0.00    +0.160 A 
ATOM     12  C   UNL     1      -5.074   0.805   1.997  0.00  0.00    +0.064 A 
ATOM     13  F   UNL     1      -6.764  -0.162   3.344  0.00  0.00    -0.202 F 
ATOM     14  F   UNL     1      -8.552   0.045   1.282  0.00  0.00    -0.202 F 
ENDBRANCH   5   7
ENDBRANCH   1   3
BRANCH   1  15
ATOM     15  O   UNL     1      -0.082   0.941   1.996  0.00  0.00    -0.478 OA
BRANCH  15  20
ATOM     16  C   UNL     1       4.589   3.480   3.858  0.00  0.00    +0.044 C 
ATOM     17  C   UNL     1       3.339   2.801   3.361  0.00  0.00    -0.048 A 
ATOM     18  C   UNL     1       2.515   3.448   2.458  0.00  0.00    +0.007 A 
ATOM     19  C   UNL     1       1.372   2.825   1.995  0.00  0.00    +0.048 A 
ATOM     20  C   UNL     1       1.045   1.554   2.446  0.00  0.00    +0.152 A 
ATOM     21  C   UNL     1       1.873   0.908   3.352  0.00  0.00    +0.168 A 
ATOM     22  C   UNL     1       3.018   1.532   3.807  0.00  0.00    +0.039 A 
BRANCH  21  23
ATOM     23  N   UNL     1       1.530  -0.450   3.830  0.00  0.00    +0.060 N 
ATOM     24  O   UNL     1       2.257  -1.018   4.625  0.00  0.00    -0.126 OA
ATOM     25  O   UNL     1       0.520  -1.001   3.428  0.00  0.00    -0.126 OA
ENDBRANCH  21  23
ENDBRANCH  15  20
ENDBRANCH   1  15
TORSDOF 5
