REMARK  Name = ZINC50934510
REMARK  11 active torsions:
REMARK  status: ('A' for Active; 'I' for Inactive)
REMARK    1  A    between atoms: C_1  and  C_2
REMARK    2  A    between atoms: C_2  and  C_3
REMARK    3  A    between atoms: C_3  and  C_4
REMARK    4  A    between atoms: C_4  and  N_5
REMARK    5  A    between atoms: C_6  and  C_8
REMARK    6  A    between atoms: N_13  and  C_15
REMARK    7  A    between atoms: C_18  and  C_24
REMARK    8  A    between atoms: C_20  and  N_21
REMARK    9  A    between atoms: N_26  and  C_27
REMARK   10  A    between atoms: C_27  and  C_28
REMARK   11  A    between atoms: C_27  and  C_29
REMARK                            x       y       z     vdW  Elec       q    Type
REMARK                         _______ _______ _______ _____ _____    ______ ____
ROOT
ATOM      1  C   UNL     1      -6.314  -7.348  -0.759  0.00  0.00    +0.060 A 
ATOM      2  C   UNL     1      -6.969  -6.882  -1.896  0.00  0.00    +0.026 A 
ATOM      3  C   UNL     1      -7.492  -7.774  -2.804  0.00  0.00    +0.015 A 
ATOM      4  C   UNL     1      -7.364  -9.149  -2.584  0.00  0.00    +0.039 A 
ATOM      5  C   UNL     1      -6.705  -9.613  -1.442  0.00  0.00    +0.047 A 
ATOM      6  C   UNL     1      -6.180  -8.716  -0.540  0.00  0.00    +0.148 A 
ENDROOT
BRANCH   1  11
ATOM      7  C   UNL     1      -4.429  -4.420   0.021  0.00  0.00    +0.092 C 
ATOM      8  C   UNL     1      -5.146  -3.929   1.280  0.00  0.00    +0.016 C 
ATOM      9  C   UNL     1      -6.591  -4.431   1.276  0.00  0.00    +0.020 C 
ATOM     10  C   UNL     1      -6.596  -5.963   1.284  0.00  0.00    +0.105 C 
ATOM     11  N   UNL     1      -5.786  -6.444   0.156  0.00  0.00    -0.327 N 
ATOM     12  C   UNL     1      -4.409  -5.952   0.014  0.00  0.00    +0.118 C 
BRANCH   7  14
ATOM     13  N   UNL     1      -2.787  -2.571   0.015  0.00  0.00    -0.315 N 
ATOM     14  C   UNL     1      -3.015  -3.899   0.010  0.00  0.00    +0.218 C 
ATOM     15  O   UNL     1      -2.083  -4.674  -0.003  0.00  0.00    -0.275 OA
ATOM     16  H   UNL     1      -3.533  -1.950   0.025  0.00  0.00    +0.149 HD
BRANCH  13  17
ATOM     17  C   UNL     1      -1.413  -2.063   0.004  0.00  0.00    +0.104 C 
BRANCH  17  18
ATOM     18  C   UNL     1      -1.433  -0.534   0.013  0.00  0.00    +0.018 C 
BRANCH  18  20
ATOM     19  C   UNL     1      -0.019   1.526   0.010  0.00  0.00    +0.004 C 
ATOM     20  C   UNL     1       0.002  -0.004   0.002  0.00  0.00    -0.002 C 
ENDBRANCH  18  20
ENDBRANCH  17  18
ENDBRANCH  13  17
ENDBRANCH   7  14
ENDBRANCH   1  11
BRANCH   4  21
ATOM     21  C   UNL     1      -7.923 -10.108  -3.556  0.00  0.00    +0.244 C 
ATOM     22  O   UNL     1      -7.811 -11.303  -3.364  0.00  0.00    -0.270 OA
ATOM     23  N   UNL     1      -8.559  -9.659  -4.656  0.00  0.00    -0.309 N 
ATOM     24  H   UNL     1      -8.648  -8.705  -4.810  0.00  0.00    +0.149 HD
BRANCH  23  25
ATOM     25  C   UNL     1      -9.114 -10.611  -5.621  0.00  0.00    +0.067 C 
ATOM     26  C   UNL     1     -10.261  -9.950  -6.388  0.00  0.00    +0.027 C 
ATOM     27  C   UNL     1      -8.022 -11.037  -6.604  0.00  0.00    +0.027 C 
ENDBRANCH  23  25
ENDBRANCH   4  21
BRANCH   6  28
ATOM     28  N   UNL     1      -5.477  -9.206   0.666  0.00  0.00    +0.058 N 
ATOM     29  O   UNL     1      -5.361 -10.395   0.857  0.00  0.00    -0.126 OA
ATOM     30  O   UNL     1      -5.020  -8.419   1.462  0.00  0.00    -0.126 OA
ENDBRANCH   6  28
TORSDOF 8
