REMARK  Name = ZINC09414244
REMARK  12 active torsions:
REMARK  status: ('A' for Active; 'I' for Inactive)
REMARK    1  A    between atoms: C_1  and  C_2
REMARK    2  A    between atoms: C_2  and  C_4
REMARK    3  A    between atoms: C_2  and  S_17
REMARK    4  A    between atoms: C_4  and  C_6
REMARK    5  A    between atoms: C_7  and  N_16
REMARK    6  A    between atoms: N_8  and  C_15
REMARK    7  A    between atoms: N_11  and  C_14
REMARK    8  A    between atoms: S_17  and  C_18
REMARK    9  A    between atoms: C_21  and  C_26
REMARK   10  A    between atoms: N_22  and  C_23
REMARK   11  A    between atoms: C_26  and  O_27
REMARK   12  A    between atoms: O_27  and  C_28
REMARK                            x       y       z     vdW  Elec       q    Type
REMARK                         _______ _______ _______ _____ _____    ______ ____
ROOT
ATOM      1  S   UNL     1       1.147  -4.299   0.726  0.00  0.00    -0.075 S 
ENDROOT
BRANCH   1   2
ATOM      2  C   UNL     1      -0.280  -5.087   1.394  0.00  0.00    +0.193 A 
ATOM      3  N   UNL     1      -1.329  -4.492   1.915  0.00  0.00    -0.122 NA
ATOM      4  N   UNL     1      -2.181  -5.372   2.303  0.00  0.00    -0.130 NA
ATOM      5  C   UNL     1      -1.732  -6.570   2.056  0.00  0.00    +0.172 A 
ATOM      6  N   UNL     1      -0.508  -6.431   1.463  0.00  0.00    -0.300 N 
BRANCH   6   7
ATOM      7  C   UNL     1       0.377  -7.503   1.000  0.00  0.00    +0.091 C 
ATOM      8  C   UNL     1       1.846  -7.151   0.758  0.00  0.00    +0.027 C 
ATOM      9  C   UNL     1       0.915  -7.408  -0.429  0.00  0.00    +0.027 C 
ENDBRANCH   6   7
BRANCH   5  10
ATOM     10  C   UNL     1      -2.435  -7.867   2.361  0.00  0.00    +0.305 C 
BRANCH  10  11
ATOM     11  O   UNL     1      -3.243  -8.246   1.245  0.00  0.00    -0.483 OA
BRANCH  11  12
ATOM     12  C   UNL     1      -3.948  -9.402   1.357  0.00  0.00    +0.139 A 
ATOM     13  C   UNL     1      -3.861 -10.159   2.516  0.00  0.00    +0.047 A 
ATOM     14  C   UNL     1      -4.584 -11.331   2.631  0.00  0.00    +0.004 A 
ATOM     15  C   UNL     1      -5.385 -11.756   1.587  0.00  0.00    +0.002 A 
ATOM     16  C   UNL     1      -5.470 -11.007   0.428  0.00  0.00    +0.023 A 
ATOM     17  C   UNL     1      -4.753  -9.830   0.311  0.00  0.00    +0.083 A 
ATOM     18 CL   UNL     1      -4.860  -8.890  -1.145  0.00  0.00    -0.080 Cl
ENDBRANCH  11  12
ENDBRANCH  10  11
ENDBRANCH   5  10
ENDBRANCH   1   2
BRANCH   1  20
ATOM     19  C   UNL     1       0.614  -2.281   2.488  0.00  0.00    +0.028 C 
ATOM     20  C   UNL     1       0.700  -2.564   0.988  0.00  0.00    +0.122 C 
BRANCH  20  21
ATOM     21  C   UNL     1       1.748  -1.677   0.368  0.00  0.00    +0.185 C 
ATOM     22  O   UNL     1       2.881  -2.088   0.216  0.00  0.00    -0.291 OA
BRANCH  21  23
ATOM     23  C   UNL     1       1.414  -0.366  -0.037  0.00  0.00    +0.121 A 
ATOM     24  C   UNL     1       2.328   0.428  -0.751  0.00  0.00    +0.116 A 
ATOM     25  N   UNL     1       1.958   1.690  -1.121  0.00  0.00    -0.284 N 
ATOM     26  C   UNL     1       0.746   2.179  -0.816  0.00  0.00    +0.333 A 
ATOM     27  O   UNL     1       0.465   3.308  -1.169  0.00  0.00    -0.246 OA
ATOM     28  N   UNL     1      -0.168   1.467  -0.137  0.00  0.00    -0.263 N 
ATOM     29  C   UNL     1       0.099   0.210   0.274  0.00  0.00    +0.269 A 
ATOM     30  O   UNL     1      -0.731  -0.432   0.890  0.00  0.00    -0.267 OA
ATOM     31  C   UNL     1      -1.475   2.061   0.157  0.00  0.00    +0.157 C 
ATOM     32  C   UNL     1       2.903   2.525  -1.865  0.00  0.00    +0.155 C 
BRANCH  24  33
ATOM     33  N   UNL     1       3.561  -0.052  -1.067  0.00  0.00    -0.344 N 
ATOM     34  H   UNL     1       3.707  -1.009  -1.132  0.00  0.00    +0.144 HD
ATOM     35  H   UNL     1       4.293   0.562  -1.229  0.00  0.00    +0.144 HD
ENDBRANCH  24  33
ENDBRANCH  21  23
ENDBRANCH  20  21
ENDBRANCH   1  20
TORSDOF 9
