REMARK  Name = ZINC13053517
REMARK  7 active torsions:
REMARK  status: ('A' for Active; 'I' for Inactive)
REMARK    1  A    between atoms: C_7  and  N_12
REMARK    2  A    between atoms: C_13  and  C_15
REMARK    3  A    between atoms: C_15  and  S_16
REMARK    4  A    between atoms: S_16  and  C_17
REMARK    5  A    between atoms: C_21  and  C_35
REMARK    6  A    between atoms: N_27  and  C_28
REMARK    7  A    between atoms: C_28  and  C_29
REMARK                            x       y       z     vdW  Elec       q    Type
REMARK                         _______ _______ _______ _____ _____    ______ ____
ROOT
ATOM      1  C   UNL     1      -6.037   1.894   0.039  0.00  0.00    +0.173 A 
ATOM      2  N   UNL     1      -4.896   1.250   0.030  0.00  0.00    -0.223 NA
ATOM      3  C   UNL     1      -3.712   1.906   0.029  0.00  0.00    +0.080 A 
ATOM      4  C   UNL     1      -2.496   1.217   0.015  0.00  0.00    +0.043 A 
ATOM      5  C   UNL     1      -1.306   1.933   0.019  0.00  0.00    +0.065 A 
ATOM      6  C   UNL     1      -1.319   3.333   0.026  0.00  0.00    +0.016 A 
ATOM      7  C   UNL     1      -2.500   4.017   0.036  0.00  0.00    +0.016 A 
ATOM      8  C   UNL     1      -3.707   3.319   0.037  0.00  0.00    +0.065 A 
ATOM      9  C   UNL     1      -5.003   4.016   0.047  0.00  0.00    +0.262 A 
ATOM     10  O   UNL     1      -5.065   5.232   0.053  0.00  0.00    -0.267 OA
ATOM     11  N   UNL     1      -6.123   3.257   0.047  0.00  0.00    -0.285 N 
ENDROOT
BRANCH   5  12
ATOM     12  C   UNL     1      -0.014   1.210   0.009  0.00  0.00    +0.387 C 
ATOM     13  O   UNL     1       0.002  -0.004   0.002  0.00  0.00    -0.241 OA
ATOM     14  O   UNL     1       1.143   1.899   0.001  0.00  0.00    -0.241 OA
ENDBRANCH   5  12
BRANCH   1  15
ATOM     15  S   UNL     1      -7.530   0.959   0.039  0.00  0.00    -0.078 S 
BRANCH  15  16
ATOM     16  C   UNL     1      -6.850  -0.719   0.026  0.00  0.00    +0.173 C 
BRANCH  16  18
ATOM     17  N   UNL     1      -7.708  -3.039   0.015  0.00  0.00    -0.308 N 
ATOM     18  C   UNL     1      -7.978  -1.718   0.024  0.00  0.00    +0.224 C 
ATOM     19  O   UNL     1      -9.129  -1.334   0.031  0.00  0.00    -0.275 OA
ATOM     20  H   UNL     1      -6.788  -3.346   0.009  0.00  0.00    +0.149 HD
BRANCH  17  27
ATOM     21  C   UNL     1      -9.830  -3.317  -3.546  0.00  0.00    +0.001 A 
ATOM     22  C   UNL     1     -10.131  -4.583  -4.014  0.00  0.00    +0.004 A 
ATOM     23  C   UNL     1     -10.002  -5.674  -3.180  0.00  0.00    +0.046 A 
ATOM     24  C   UNL     1      -9.569  -5.506  -1.868  0.00  0.00    +0.125 A 
ATOM     25  C   UNL     1      -9.271  -4.238  -1.402  0.00  0.00    +0.014 A 
ATOM     26  C   UNL     1      -9.402  -3.146  -2.244  0.00  0.00    +0.009 A 
ATOM     27  C   UNL     1      -8.805  -4.010   0.013  0.00  0.00    +0.110 C 
ATOM     28  C   UNL     1      -8.316  -5.331   0.614  0.00  0.00    +0.068 C 
ATOM     29  C   UNL     1      -9.373  -6.407   0.334  0.00  0.00    +0.231 C 
ATOM     30  O   UNL     1      -9.451  -6.605  -1.079  0.00  0.00    -0.492 OA
ENDBRANCH  17  27
ENDBRANCH  16  18
ENDBRANCH  15  16
ENDBRANCH   1  15
BRANCH  11  31
ATOM     31  C   UNL     1      -7.438   3.902   0.057  0.00  0.00    +0.159 C 
BRANCH  31  32
ATOM     32  C   UNL     1      -7.890   4.119   1.502  0.00  0.00    +0.138 C 
ATOM     33  C   UNL     1      -9.323   4.692   1.523  0.00  0.00    +0.035 C 
ATOM     34  C   UNL     1      -9.248   5.723   2.683  0.00  0.00    +0.031 C 
ATOM     35  C   UNL     1      -7.790   6.227   2.535  0.00  0.00    +0.160 C 
ATOM     36  O   UNL     1      -7.033   5.072   2.142  0.00  0.00    -0.375 OA
ENDBRANCH  31  32
ENDBRANCH  11  31
TORSDOF 7
