REMARK  Name = ZINC63446132
REMARK  6 active torsions:
REMARK  status: ('A' for Active; 'I' for Inactive)
REMARK    1  A    between atoms: C_3  and  S_23
REMARK    2  A    between atoms: C_6  and  N_7
REMARK    3  A    between atoms: C_8  and  C_10
REMARK    4  A    between atoms: C_10  and  S_11
REMARK    5  A    between atoms: S_11  and  C_12
REMARK    6  A    between atoms: S_23  and  N_26
REMARK                            x       y       z     vdW  Elec       q    Type
REMARK                         _______ _______ _______ _____ _____    ______ ____
ROOT
ATOM      1  N   UNL     1      -1.199  -0.722   0.010  0.00  0.00    -0.285 N 
ATOM      2  C   UNL     1      -1.183  -2.065  -0.099  0.00  0.00    +0.227 C 
ATOM      3  O   UNL     1      -0.125  -2.659  -0.113  0.00  0.00    -0.275 OA
ATOM      4  H   UNL     1      -2.044  -0.253   0.098  0.00  0.00    +0.155 HD
ENDROOT
BRANCH   1  10
ATOM      5  C   UNL     1       1.072  -0.453  -0.766  0.00  0.00    +0.025 A 
ATOM      6  C   UNL     1       2.256   0.259  -0.778  0.00  0.00    +0.030 A 
ATOM      7  C   UNL     1       2.376   1.416  -0.032  0.00  0.00    +0.105 A 
ATOM      8  C   UNL     1       1.312   1.866   0.729  0.00  0.00    +0.030 A 
ATOM      9  C   UNL     1       0.126   1.160   0.744  0.00  0.00    +0.025 A 
ATOM     10  C   UNL     1       0.002  -0.004  -0.004  0.00  0.00    +0.034 A 
BRANCH   7  11
ATOM     11  S   UNL     1       3.889   2.320  -0.048  0.00  0.00    +0.056 S 
ATOM     12  O   UNL     1       3.928   3.069   1.159  0.00  0.00    -0.153 OA
ATOM     13  O   UNL     1       4.909   1.398  -0.406  0.00  0.00    -0.153 OA
BRANCH  11  14
ATOM     14  N   UNL     1       3.789   3.419  -1.284  0.00  0.00    -0.204 NA
ATOM     15  H   UNL     1       2.989   3.462  -1.831  0.00  0.00    +0.144 HD
ATOM     16  H   UNL     1       4.530   4.019  -1.460  0.00  0.00    +0.144 HD
ENDBRANCH  11  14
ENDBRANCH   7  11
ENDBRANCH   1  10
BRANCH   2  17
ATOM     17  C   UNL     1      -2.478  -2.828  -0.204  0.00  0.00    +0.169 C 
BRANCH  17  18
ATOM     18  S   UNL     1      -2.124  -4.603  -0.337  0.00  0.00    -0.106 S 
BRANCH  18  19
ATOM     19  C   UNL     1      -3.764  -5.369  -0.453  0.00  0.00    +0.237 C 
ATOM     20  N   UNL     1      -4.559  -5.041   0.737  0.00  0.00    -0.354 N 
ATOM     21  C   UNL     1      -5.611  -4.392   0.335  0.00  0.00    +0.081 A 
ATOM     22  C   UNL     1      -6.761  -3.808   1.048  0.00  0.00    +0.050 A 
ATOM     23  C   UNL     1      -7.709  -3.183   0.308  0.00  0.00    +0.061 A 
ATOM     24  C   UNL     1      -7.592  -3.098  -1.093  0.00  0.00    +0.133 A 
ATOM     25  N   UNL     1      -6.595  -3.599  -1.761  0.00  0.00    -0.235 NA
ATOM     26  C   UNL     1      -5.575  -4.251  -1.146  0.00  0.00    +0.152 A 
ATOM     27  N   UNL     1      -4.495  -4.824  -1.604  0.00  0.00    -0.340 N 
ATOM     28 CL   UNL     1      -9.085  -2.478   1.097  0.00  0.00    -0.082 Cl
ATOM     29  H   UNL     1      -4.224  -4.879  -2.534  0.00  0.00    +0.164 HD
ATOM     30  H   UNL     1      -4.340  -5.268   1.654  0.00  0.00    +0.163 HD
ENDBRANCH  18  19
ENDBRANCH  17  18
ENDBRANCH   2  17
TORSDOF 6
