REMARK  Name = ZINC63588652
REMARK  7 active torsions:
REMARK  status: ('A' for Active; 'I' for Inactive)
REMARK    1  A    between atoms: C_1  and  O_2
REMARK    2  A    between atoms: O_2  and  C_3
REMARK    3  A    between atoms: C_3  and  C_5
REMARK    4  A    between atoms: C_5  and  C_24
REMARK    5  A    between atoms: N_8  and  C_11
REMARK    6  A    between atoms: C_11  and  C_12
REMARK    7  A    between atoms: C_11  and  C_18
REMARK                            x       y       z     vdW  Elec       q    Type
REMARK                         _______ _______ _______ _____ _____    ______ ____
ROOT
ATOM      1  C   UNL     1      -1.244  -2.135   0.003  0.00  0.00    +0.095 C 
ATOM      2  C   UNL     1      -0.538  -2.681   1.247  0.00  0.00    +0.038 C 
ATOM      3  C   UNL     1      -1.271  -2.194   2.498  0.00  0.00    +0.087 C 
ATOM      4  N   UNL     1      -2.664  -2.656   2.462  0.00  0.00    -0.288 NA
ATOM      5  C   UNL     1      -3.376  -2.106   1.302  0.00  0.00    +0.087 C 
ATOM      6  C   UNL     1      -2.706  -2.591   0.014  0.00  0.00    +0.038 C 
ENDROOT
BRANCH   1   7
ATOM      7  C   UNL     1      -0.563  -2.660  -1.235  0.00  0.00    -0.031 A 
ATOM      8  C   UNL     1      -1.274  -3.419  -2.146  0.00  0.00    +0.005 A 
ATOM      9  C   UNL     1      -0.649  -3.900  -3.282  0.00  0.00    +0.000 A 
ATOM     10  C   UNL     1       0.686  -3.621  -3.507  0.00  0.00    +0.000 A 
ATOM     11  C   UNL     1       1.397  -2.861  -2.596  0.00  0.00    +0.000 A 
ATOM     12  C   UNL     1       0.771  -2.377  -1.463  0.00  0.00    +0.005 A 
ENDBRANCH   1   7
BRANCH   1  13
ATOM     13  C   UNL     1      -1.185  -0.630   0.010  0.00  0.00    +0.318 C 
ATOM     14  O   UNL     1      -2.208   0.015   0.023  0.00  0.00    -0.250 OA
BRANCH  13  16
ATOM     15  C   UNL     1      -0.017   1.425   0.010  0.00  0.00    +0.280 C 
ATOM     16  O   UNL     1       0.002  -0.004   0.002  0.00  0.00    -0.467 OA
ENDBRANCH  13  16
ENDBRANCH   1  13
BRANCH   4  17
ATOM     17  C   UNL     1      -3.361  -2.324   3.712  0.00  0.00    +0.174 C 
BRANCH  17  18
ATOM     18  C   UNL     1      -2.661  -2.990   4.869  0.00  0.00    +0.242 C 
ATOM     19  O   UNL     1      -1.679  -3.673   4.672  0.00  0.00    -0.273 OA
ATOM     20  N   UNL     1      -3.127  -2.826   6.123  0.00  0.00    -0.239 N 
ATOM     21  C   UNL     1      -2.501  -3.421   7.158  0.00  0.00    +0.303 C 
ATOM     22  O   UNL     1      -1.517  -4.106   6.960  0.00  0.00    -0.253 OA
ATOM     23  N   UNL     1      -2.967  -3.258   8.412  0.00  0.00    -0.313 N 
ATOM     24  H   UNL     1      -3.913  -2.280   6.281  0.00  0.00    +0.159 HD
ATOM     25  H   UNL     1      -3.753  -2.711   8.570  0.00  0.00    +0.146 HD
ATOM     26  H   UNL     1      -2.517  -3.686   9.156  0.00  0.00    +0.146 HD
ENDBRANCH  17  18
BRANCH  17  27
ATOM     27  C   UNL     1      -4.785  -2.813   3.638  0.00  0.00    -0.021 A 
ATOM     28  C   UNL     1      -5.066  -4.039   3.065  0.00  0.00    +0.005 A 
ATOM     29  C   UNL     1      -6.372  -4.487   2.997  0.00  0.00    +0.000 A 
ATOM     30  C   UNL     1      -7.397  -3.709   3.503  0.00  0.00    +0.000 A 
ATOM     31  C   UNL     1      -7.115  -2.484   4.077  0.00  0.00    +0.000 A 
ATOM     32  C   UNL     1      -5.809  -2.037   4.149  0.00  0.00    +0.005 A 
ENDBRANCH  17  27
ENDBRANCH   4  17
TORSDOF 6
