REMARK  Name = ZINC13044007
REMARK  10 active torsions:
REMARK  status: ('A' for Active; 'I' for Inactive)
REMARK    1  A    between atoms: C_1  and  C_2
REMARK    2  A    between atoms: C_2  and  C_3
REMARK    3  A    between atoms: C_3  and  C_4
REMARK    4  A    between atoms: C_4  and  N_5
REMARK    5  A    between atoms: C_11  and  C_31
REMARK    6  A    between atoms: C_15  and  S_16
REMARK    7  A    between atoms: S_16  and  C_17
REMARK    8  A    between atoms: C_17  and  C_18
REMARK    9  A    between atoms: N_20  and  C_21
REMARK   10  A    between atoms: C_21  and  C_22
REMARK                            x       y       z     vdW  Elec       q    Type
REMARK                         _______ _______ _______ _____ _____    ______ ____
ROOT
ATOM      1  N   UNL     1      12.235  -2.503  -0.138  0.00  0.00    -0.287 N 
ATOM      2  C   UNL     1      12.969  -2.895  -1.205  0.00  0.00    +0.262 A 
ATOM      3  O   UNL     1      14.167  -3.087  -1.109  0.00  0.00    -0.267 OA
ATOM      4  C   UNL     1      12.268  -3.074  -2.486  0.00  0.00    +0.065 A 
ATOM      5  C   UNL     1      12.942  -3.469  -3.641  0.00  0.00    +0.016 A 
ATOM      6  C   UNL     1      12.254  -3.623  -4.811  0.00  0.00    +0.016 A 
ATOM      7  C   UNL     1      10.874  -3.388  -4.863  0.00  0.00    +0.065 A 
ATOM      8  C   UNL     1      10.183  -2.993  -3.725  0.00  0.00    +0.043 A 
ATOM      9  C   UNL     1      10.876  -2.832  -2.522  0.00  0.00    +0.080 A 
ATOM     10  N   UNL     1      10.243  -2.448  -1.388  0.00  0.00    -0.223 NA
ATOM     11  C   UNL     1      10.891  -2.296  -0.259  0.00  0.00    +0.173 A 
ENDROOT
BRANCH   7  12
ATOM     12  C   UNL     1      10.148  -3.561  -6.141  0.00  0.00    +0.387 C 
ATOM     13  O   UNL     1       8.952  -3.357  -6.191  0.00  0.00    -0.241 OA
ATOM     14  O   UNL     1      10.814  -3.943  -7.247  0.00  0.00    -0.241 OA
ENDBRANCH   7  12
BRANCH   1  15
ATOM     15  C   UNL     1      12.887  -2.306   1.159  0.00  0.00    +0.127 C 
BRANCH  15  16
ATOM     16  C   UNL     1      12.870  -3.619   1.944  0.00  0.00    +0.021 C 
BRANCH  16  18
ATOM     17  C   UNL     1      13.535  -4.727   4.082  0.00  0.00    +0.004 C 
ATOM     18  C   UNL     1      13.551  -3.413   3.298  0.00  0.00    -0.002 C 
ENDBRANCH  16  18
ENDBRANCH  15  16
ENDBRANCH   1  15
BRANCH  11  19
ATOM     19  S   UNL     1       9.986  -1.794   1.167  0.00  0.00    -0.078 S 
BRANCH  19  20
ATOM     20  C   UNL     1       8.326  -1.665   0.457  0.00  0.00    +0.173 C 
BRANCH  20  21
ATOM     21  C   UNL     1       7.355  -1.236   1.526  0.00  0.00    +0.224 C 
ATOM     22  O   UNL     1       7.746  -1.037   2.657  0.00  0.00    -0.275 OA
ATOM     23  N   UNL     1       6.051  -1.073   1.226  0.00  0.00    -0.311 N 
ATOM     24  H   UNL     1       5.738  -1.231   0.322  0.00  0.00    +0.149 HD
BRANCH  23  25
ATOM     25  C   UNL     1       5.107  -0.655   2.265  0.00  0.00    +0.139 C 
BRANCH  25  26
ATOM     26  C   UNL     1       3.725  -0.548   1.674  0.00  0.00    -0.027 A 
ATOM     27  C   UNL     1       2.885  -1.646   1.677  0.00  0.00    +0.009 A 
ATOM     28  C   UNL     1       1.617  -1.553   1.135  0.00  0.00    +0.050 A 
ATOM     29  C   UNL     1       1.183  -0.356   0.589  0.00  0.00    +0.166 A 
ATOM     30  C   UNL     1       2.028   0.751   0.586  0.00  0.00    +0.167 A 
ATOM     31  C   UNL     1       3.298   0.650   1.131  0.00  0.00    +0.054 A 
ATOM     32  O   UNL     1       1.376   1.797  -0.001  0.00  0.00    -0.453 OA
ATOM     33  C   UNL     1      -0.018   1.436   0.010  0.00  0.00    +0.466 C 
ATOM     34  O   UNL     1       0.002  -0.004   0.002  0.00  0.00    -0.453 OA
ENDBRANCH  25  26
ENDBRANCH  23  25
ENDBRANCH  20  21
ENDBRANCH  19  20
ENDBRANCH  11  19
TORSDOF 9
