REMARK  Name = ZINC11052640
REMARK  11 active torsions:
REMARK  status: ('A' for Active; 'I' for Inactive)
REMARK    1  A    between atoms: C_1  and  C_2
REMARK    2  A    between atoms: C_3  and  C_35
REMARK    3  A    between atoms: C_11  and  C_13
REMARK    4  A    between atoms: C_13  and  C_15
REMARK    5  A    between atoms: C_13  and  O_16
REMARK    6  A    between atoms: O_16  and  C_17
REMARK    7  A    between atoms: C_17  and  C_19
REMARK    8  A    between atoms: C_19  and  C_20
REMARK    9  A    between atoms: C_20  and  N_21
REMARK   10  A    between atoms: N_21  and  S_22
REMARK   11  A    between atoms: S_22  and  C_25
REMARK                            x       y       z     vdW  Elec       q    Type
REMARK                         _______ _______ _______ _____ _____    ______ ____
ROOT
ATOM      1  C   UNL     1       2.274   0.831  -0.613  0.00  0.00    +0.309 C 
ATOM      2  O   UNL     1       1.955  -0.217  -1.123  0.00  0.00    -0.251 OA
ENDROOT
BRANCH   1   3
ATOM      3  O   UNL     1       1.349   1.588  -0.002  0.00  0.00    -0.454 OA
BRANCH   3   4
ATOM      4  C   UNL     1      -0.013   1.086   0.008  0.00  0.00    +0.239 C 
ATOM      5  C   UNL     1      -0.753   1.593  -1.232  0.00  0.00    +0.060 C 
BRANCH   4  16
ATOM      6  C   UNL     1      -2.631   2.593   5.993  0.00  0.00    +0.045 C 
ATOM      7  C   UNL     1      -2.785   3.066   4.570  0.00  0.00    -0.026 A 
ATOM      8  C   UNL     1      -3.645   4.052   4.271  0.00  0.00    -0.008 A 
ATOM      9  S   UNL     1      -3.463   4.238   2.508  0.00  0.00    -0.073 S 
ATOM     10  C   UNL     1      -2.237   2.986   2.224  0.00  0.00    +0.116 A 
ATOM     11  C   UNL     1      -2.005   2.460   3.507  0.00  0.00    +0.075 A 
ATOM     12  C   UNL     1      -1.035   1.407   3.578  0.00  0.00    +0.260 A 
ATOM     13  O   UNL     1      -0.763   0.886   4.646  0.00  0.00    -0.267 OA
ATOM     14  N   UNL     1      -0.428   1.003   2.446  0.00  0.00    -0.307 N 
ATOM     15  H   UNL     1       0.229   0.290   2.488  0.00  0.00    +0.170 HD
ATOM     16  C   UNL     1      -0.718   1.572   1.248  0.00  0.00    +0.152 A 
ATOM     17  N   UNL     1      -1.593   2.537   1.151  0.00  0.00    -0.223 NA
ATOM     18  C   UNL     1      -4.549   4.817   5.203  0.00  0.00    +0.052 C 
ENDBRANCH   4  16
ENDBRANCH   3   4
ENDBRANCH   1   3
BRANCH   1  19
ATOM     19  C   UNL     1       3.709   1.288  -0.664  0.00  0.00    +0.137 C 
BRANCH  19  20
ATOM     20  C   UNL     1       4.549   0.250  -1.411  0.00  0.00    +0.117 C 
BRANCH  20  21
ATOM     21  N   UNL     1       5.944   0.694  -1.460  0.00  0.00    -0.189 NA
ATOM     22  H   UNL     1       6.167   1.615  -1.253  0.00  0.00    +0.148 HD
BRANCH  21  23
ATOM     23  S   UNL     1       7.140  -0.376  -1.869  0.00  0.00    +0.058 S 
ATOM     24  O   UNL     1       8.360   0.353  -1.855  0.00  0.00    -0.153 OA
ATOM     25  O   UNL     1       6.936  -1.536  -1.075  0.00  0.00    -0.153 OA
BRANCH  23  26
ATOM     26  C   UNL     1       6.860  -0.855  -3.542  0.00  0.00    +0.106 A 
ATOM     27  C   UNL     1       6.062  -1.966  -3.813  0.00  0.00    +0.029 A 
ATOM     28  C   UNL     1       5.822  -2.360  -5.094  0.00  0.00    +0.010 A 
ATOM     29  C   UNL     1       6.394  -1.645  -6.160  0.00  0.00    -0.018 A 
ATOM     30  C   UNL     1       6.174  -2.026  -7.495  0.00  0.00    +0.008 A 
ATOM     31  C   UNL     1       6.745  -1.310  -8.502  0.00  0.00    +0.001 A 
ATOM     32  C   UNL     1       7.547  -0.203  -8.230  0.00  0.00    +0.001 A 
ATOM     33  C   UNL     1       7.783   0.195  -6.950  0.00  0.00    +0.008 A 
ATOM     34  C   UNL     1       7.210  -0.519  -5.884  0.00  0.00    -0.016 A 
ATOM     35  C   UNL     1       7.431  -0.140  -4.549  0.00  0.00    +0.037 A 
ENDBRANCH  23  26
ENDBRANCH  21  23
ENDBRANCH  20  21
ENDBRANCH  19  20
ENDBRANCH   1  19
TORSDOF 8
