REMARK  Name = ZINC63302876
REMARK  7 active torsions:
REMARK  status: ('A' for Active; 'I' for Inactive)
REMARK    1  A    between atoms: C_1  and  C_2
REMARK    2  A    between atoms: C_2  and  C_3
REMARK    3  A    between atoms: C_2  and  C_4
REMARK    4  A    between atoms: C_4  and  C_5
REMARK    5  A    between atoms: C_5  and  N_6
REMARK    6  A    between atoms: C_7  and  C_9
REMARK    7  A    between atoms: C_9  and  N_10
REMARK                            x       y       z     vdW  Elec       q    Type
REMARK                         _______ _______ _______ _____ _____    ______ ____
ROOT
ATOM      1  N   UNL     1      -4.418  -5.869  -0.338  0.00  0.00    -0.291 N 
ATOM      2  C   UNL     1      -5.576  -6.558  -0.349  0.00  0.00    +0.303 C 
ATOM      3  O   UNL     1      -6.629  -5.980  -0.162  0.00  0.00    -0.253 OA
ATOM      4  N   UNL     1      -5.567  -7.888  -0.568  0.00  0.00    -0.283 N 
ATOM      5  C   UNL     1      -4.287  -8.597  -0.674  0.00  0.00    +0.114 C 
ATOM      6  C   UNL     1      -4.210  -9.314  -2.035  0.00  0.00    +0.052 C 
ATOM      7  C   UNL     1      -5.537 -10.002  -2.236  0.00  0.00    -0.035 C 
ATOM      8  C   UNL     1      -5.837 -11.259  -2.541  0.00  0.00    +0.001 A 
ATOM      9  C   UNL     1      -4.991 -12.409  -2.899  0.00  0.00    +0.030 A 
ATOM     10  C   UNL     1      -5.639 -13.580  -3.136  0.00  0.00    +0.042 A 
ATOM     11  C   UNL     1      -7.029 -13.721  -3.053  0.00  0.00    +0.022 A 
ATOM     12  C   UNL     1      -7.884 -12.715  -2.738  0.00  0.00    +0.027 A 
ATOM     13  C   UNL     1      -7.321 -11.432  -2.476  0.00  0.00    +0.043 A 
ATOM     14  N   UNL     1      -7.897 -10.305  -2.179  0.00  0.00    -0.376 N 
ATOM     15  C   UNL     1      -6.866  -9.271  -2.081  0.00  0.00    +0.124 C 
ATOM     16  C   UNL     1      -6.841  -8.614  -0.692  0.00  0.00    +0.138 C 
ATOM     17 CL   UNL     1      -4.695 -14.973  -3.564  0.00  0.00    -0.084 Cl
ATOM     18  H   UNL     1      -3.573  -6.339  -0.415  0.00  0.00    +0.151 HD
ATOM     19  H   UNL     1      -8.848 -10.172  -2.046  0.00  0.00    +0.160 HD
ENDROOT
BRANCH   1  20
ATOM     20  C   UNL     1      -4.435  -4.409  -0.211  0.00  0.00    +0.201 C 
BRANCH  20  22
ATOM     21  N   UNL     1      -2.791  -2.563  -0.120  0.00  0.00    -0.314 N 
ATOM     22  C   UNL     1      -3.022  -3.887  -0.225  0.00  0.00    +0.230 C 
ATOM     23  O   UNL     1      -2.091  -4.658  -0.332  0.00  0.00    -0.274 OA
ATOM     24  H   UNL     1      -3.535  -1.947  -0.035  0.00  0.00    +0.149 HD
BRANCH  21  25
ATOM     25  C   UNL     1      -1.417  -2.056  -0.134  0.00  0.00    +0.104 C 
BRANCH  25  26
ATOM     26  C   UNL     1      -1.435  -0.531  -0.001  0.00  0.00    +0.022 C 
BRANCH  26  28
ATOM     27  C   UNL     1      -0.021   1.528  -0.009  0.00  0.00    +0.007 C 
ATOM     28  C   UNL     1      -0.000  -0.001  -0.016  0.00  0.00    -0.016 C 
ATOM     29  C   UNL     1       0.743  -0.507   1.222  0.00  0.00    +0.007 C 
ENDBRANCH  26  28
ENDBRANCH  25  26
ENDBRANCH  21  25
ENDBRANCH  20  22
ENDBRANCH   1  20
TORSDOF 5
