REMARK  Name = ZINC08716290
REMARK  8 active torsions:
REMARK  status: ('A' for Active; 'I' for Inactive)
REMARK    1  A    between atoms: C_1  and  C_2
REMARK    2  A    between atoms: C_9  and  C_14
REMARK    3  A    between atoms: C_14  and  O_16
REMARK    4  A    between atoms: O_16  and  C_17
REMARK    5  A    between atoms: C_17  and  C_19
REMARK    6  A    between atoms: C_17  and  C_20
REMARK    7  A    between atoms: N_22  and  C_23
REMARK    8  A    between atoms: C_28  and  N_29
REMARK                            x       y       z     vdW  Elec       q    Type
REMARK                         _______ _______ _______ _____ _____    ______ ____
ROOT
ATOM      1  O   UNL     1      -4.412   6.918   0.990  0.00  0.00    -0.449 OA
ENDROOT
BRANCH   1   2
ATOM      2  C   UNL     1      -4.197   5.589   0.952  0.00  0.00    +0.340 C 
ATOM      3  O   UNL     1      -5.065   4.822   1.319  0.00  0.00    -0.245 OA
BRANCH   2  11
ATOM      4  C   UNL     1       1.630   2.222   1.359  0.00  0.00    +0.029 C 
ATOM      5  C   UNL     1       1.224   1.903  -0.081  0.00  0.00    +0.134 C 
ATOM      6  C   UNL     1      -0.100   1.188  -0.085  0.00  0.00    +0.230 C 
ATOM      7  O   UNL     1      -0.095  -0.025  -0.106  0.00  0.00    -0.274 OA
ATOM      8  N   UNL     1      -1.275   1.811  -0.071  0.00  0.00    -0.284 N 
ATOM      9  C   UNL     1      -1.477   3.189  -0.029  0.00  0.00    +0.048 A 
ATOM     10  C   UNL     1      -2.687   3.686   0.427  0.00  0.00    +0.039 A 
ATOM     11  C   UNL     1      -2.909   5.065   0.466  0.00  0.00    +0.061 A 
ATOM     12  C   UNL     1      -1.910   5.949   0.045  0.00  0.00    +0.016 A 
ATOM     13  C   UNL     1      -0.707   5.455  -0.408  0.00  0.00    +0.017 A 
ATOM     14  C   UNL     1      -0.486   4.085  -0.446  0.00  0.00    +0.030 A 
ATOM     15  S   UNL     1       1.056   3.449  -1.023  0.00  0.00    -0.111 S 
ATOM     16  H   UNL     1      -2.067   1.252  -0.087  0.00  0.00    +0.155 HD
ENDBRANCH   2  11
ENDBRANCH   1   2
BRANCH   1  17
ATOM     17  C   UNL     1      -5.705   7.363   1.481  0.00  0.00    +0.259 C 
ATOM     18  C   UNL     1      -6.684   7.473   0.311  0.00  0.00    +0.062 C 
BRANCH  17  19
ATOM     19  C   UNL     1      -5.556   8.711   2.139  0.00  0.00    +0.258 C 
ATOM     20  O   UNL     1      -4.488   9.285   2.110  0.00  0.00    -0.271 OA
ATOM     21  N   UNL     1      -6.609   9.278   2.759  0.00  0.00    -0.281 N 
ATOM     22  H   UNL     1      -7.479   8.850   2.728  0.00  0.00    +0.155 HD
BRANCH  21  23
ATOM     23  C   UNL     1      -6.448  10.485   3.449  0.00  0.00    +0.064 A 
ATOM     24  C   UNL     1      -5.569  11.448   2.971  0.00  0.00    +0.025 A 
ATOM     25  C   UNL     1      -5.417  12.640   3.651  0.00  0.00    +0.002 A 
ATOM     26  C   UNL     1      -6.130  12.871   4.813  0.00  0.00    +0.002 A 
ATOM     27  C   UNL     1      -7.002  11.912   5.295  0.00  0.00    +0.034 A 
ATOM     28  C   UNL     1      -7.163  10.720   4.616  0.00  0.00    +0.147 A 
BRANCH  28  29
ATOM     29  N   UNL     1      -8.096   9.693   5.133  0.00  0.00    +0.058 N 
ATOM     30  O   UNL     1      -8.796   9.938   6.099  0.00  0.00    -0.126 OA
ATOM     31  O   UNL     1      -8.164   8.604   4.592  0.00  0.00    -0.126 OA
ENDBRANCH  28  29
ENDBRANCH  21  23
ENDBRANCH  17  19
ENDBRANCH   1  17
TORSDOF 6
