REMARK  Name = ZINC59381656
REMARK  5 active torsions:
REMARK  status: ('A' for Active; 'I' for Inactive)
REMARK    1  A    between atoms: C_3  and  N_9
REMARK    2  A    between atoms: C_6  and  N_7
REMARK    3  A    between atoms: N_9  and  N_10
REMARK    4  A    between atoms: N_9  and  O_19
REMARK    5  A    between atoms: N_11  and  C_12
REMARK                            x       y       z     vdW  Elec       q    Type
REMARK                         _______ _______ _______ _____ _____    ______ ____
ROOT
ATOM      1  N   UNL     1       3.560   2.130  -0.021  0.00  0.00    -0.121 N 
ENDROOT
BRANCH   1   4
ATOM      2  C   UNL     1      -0.017   1.409   0.010  0.00  0.00    +0.033 A 
ATOM      3  C   UNL     1       1.154   2.102   0.002  0.00  0.00    +0.032 A 
ATOM      4  C   UNL     1       2.374   1.419  -0.013  0.00  0.00    +0.092 A 
ATOM      5  C   UNL     1       2.402   0.021  -0.022  0.00  0.00    +0.032 A 
ATOM      6  C   UNL     1       1.240  -0.686  -0.014  0.00  0.00    +0.033 A 
ATOM      7  C   UNL     1       0.002  -0.004   0.002  0.00  0.00    +0.108 A 
BRANCH   7   8
ATOM      8  N   UNL     1      -1.140  -0.689   0.010  0.00  0.00    -0.031 NA
ATOM      9  O   UNL     1      -1.120  -1.907   0.003  0.00  0.00    -0.143 OA
ENDBRANCH   7   8
ENDBRANCH   1   4
BRANCH   1  10
ATOM     10  N   UNL     1       4.785   1.450  -0.037  0.00  0.00    -0.039 NA
ATOM     11  N   UNL     1       5.891   2.114  -0.045  0.00  0.00    -0.130 NA
BRANCH  11  12
ATOM     12  C   UNL     1       7.089   1.448  -0.060  0.00  0.00    +0.088 A 
ATOM     13  C   UNL     1       7.116   0.053  -0.074  0.00  0.00    +0.031 A 
ATOM     14  C   UNL     1       8.325  -0.611  -0.089  0.00  0.00    +0.017 A 
ATOM     15  C   UNL     1       9.511   0.104  -0.091  0.00  0.00    +0.018 A 
ATOM     16  C   UNL     1       9.491   1.488  -0.078  0.00  0.00    +0.017 A 
ATOM     17  C   UNL     1       8.288   2.164  -0.068  0.00  0.00    +0.031 A 
ATOM     18 BR   UNL     1      11.164  -0.814  -0.112  0.00  0.00    -0.050 Br
ENDBRANCH  11  12
ENDBRANCH   1  10
BRANCH   1  19
ATOM     19  O   UNL     1       3.536   3.546  -0.014  0.00  0.00    -0.265 OA
ATOM     20  H   UNL     1       4.413   3.954  -0.020  0.00  0.00    +0.247 HD
ENDBRANCH   1  19
TORSDOF 5
