REMARK  Name = ZINC67628873
REMARK  10 active torsions:
REMARK  status: ('A' for Active; 'I' for Inactive)
REMARK    1  A    between atoms: C_1  and  C_2
REMARK    2  A    between atoms: N_5  and  C_8
REMARK    3  A    between atoms: C_8  and  C_9
REMARK    4  A    between atoms: C_9  and  C_11
REMARK    5  A    between atoms: C_9  and  O_29
REMARK    6  A    between atoms: C_11  and  N_12
REMARK    7  A    between atoms: N_15  and  C_16
REMARK    8  A    between atoms: C_16  and  C_17
REMARK    9  A    between atoms: C_22  and  O_23
REMARK   10  A    between atoms: O_23  and  C_24
REMARK                            x       y       z     vdW  Elec       q    Type
REMARK                         _______ _______ _______ _____ _____    ______ ____
ROOT
ATOM      1  N   UNL     1       4.580  -5.863   2.202  0.00  0.00    -0.297 N 
ATOM      2  C   UNL     1       4.790  -7.194   2.165  0.00  0.00    +0.300 C 
ATOM      3  O   UNL     1       4.276  -7.867   1.294  0.00  0.00    -0.253 OA
ATOM      4  N   UNL     1       5.571  -7.778   3.095  0.00  0.00    -0.295 N 
ATOM      5  H   UNL     1       4.991  -5.326   2.897  0.00  0.00    +0.150 HD
ATOM      6  H   UNL     1       5.982  -7.241   3.791  0.00  0.00    +0.151 HD
ENDROOT
BRANCH   1   7
ATOM      7  C   UNL     1       3.731  -5.228   1.191  0.00  0.00    +0.135 C 
BRANCH   7   8
ATOM      8  C   UNL     1       3.659  -3.723   1.458  0.00  0.00    +0.115 C 
BRANCH   8   9
ATOM      9  O   UNL     1       3.105  -3.496   2.756  0.00  0.00    -0.392 OA
ATOM     10  H   UNL     1       2.212  -3.850   2.870  0.00  0.00    +0.210 HD
ENDBRANCH   8   9
BRANCH   8  11
ATOM     11  C   UNL     1       2.772  -3.059   0.402  0.00  0.00    -0.046 C 
BRANCH  11  16
ATOM     12  C   UNL     1       2.925   2.638   0.217  0.00  0.00    +0.007 C 
ATOM     13  C   UNL     1       3.013   1.158  -0.159  0.00  0.00    -0.018 C 
ATOM     14  C   UNL     1       4.031   0.459   0.746  0.00  0.00    -0.016 C 
ATOM     15  C   UNL     1       4.056  -1.035   0.419  0.00  0.00    -0.078 C 
ATOM     16  N   UNL     1       2.724  -1.611   0.643  0.00  0.00    +0.381 N 
ATOM     17  C   UNL     1       1.756  -0.996  -0.272  0.00  0.00    -0.078 C 
ATOM     18  C   UNL     1       1.643   0.500   0.028  0.00  0.00    -0.016 C 
ATOM     19  H   UNL     1       2.441  -1.440   1.596  0.00  0.00    -0.082 HD
ENDBRANCH  11  16
ENDBRANCH   8  11
ENDBRANCH   7   8
ENDBRANCH   1   7
BRANCH   4  20
ATOM     20  C   UNL     1       5.800  -9.225   3.056  0.00  0.00    +0.144 C 
BRANCH  20  21
ATOM     21  C   UNL     1       6.701  -9.622   4.197  0.00  0.00    +0.011 A 
ATOM     22  C   UNL     1       8.049  -9.829   3.974  0.00  0.00    +0.009 A 
ATOM     23  C   UNL     1       8.875 -10.194   5.020  0.00  0.00    +0.001 A 
ATOM     24  C   UNL     1       8.357 -10.353   6.292  0.00  0.00    +0.004 A 
ATOM     25  C   UNL     1       7.010 -10.146   6.520  0.00  0.00    +0.046 A 
ATOM     26  C   UNL     1       6.179  -9.774   5.473  0.00  0.00    +0.126 A 
BRANCH  26  27
ATOM     27  O   UNL     1       4.855  -9.565   5.696  0.00  0.00    -0.488 OA
BRANCH  27  28
ATOM     28  C   UNL     1       4.408  -9.628   7.052  0.00  0.00    +0.173 C 
ATOM     29  C   UNL     1       4.066 -11.084   7.429  0.00  0.00    +0.044 C 
ATOM     30  C   UNL     1       2.827 -10.958   8.349  0.00  0.00    +0.004 C 
ATOM     31  C   UNL     1       2.028  -9.807   7.690  0.00  0.00    +0.004 C 
ATOM     32  C   UNL     1       3.111  -8.816   7.218  0.00  0.00    +0.044 C 
ENDBRANCH  27  28
ENDBRANCH  26  27
ENDBRANCH  20  21
ENDBRANCH   4  20
TORSDOF 9
