REMARK  Name = ZINC09167363
REMARK  10 active torsions:
REMARK  status: ('A' for Active; 'I' for Inactive)
REMARK    1  A    between atoms: C_1  and  C_2
REMARK    2  A    between atoms: C_2  and  C_3
REMARK    3  A    between atoms: C_2  and  C_4
REMARK    4  A    between atoms: C_7  and  N_10
REMARK    5  A    between atoms: C_11  and  S_15
REMARK    6  A    between atoms: S_15  and  C_16
REMARK    7  A    between atoms: C_16  and  C_17
REMARK    8  A    between atoms: N_19  and  C_20
REMARK    9  A    between atoms: C_25  and  C_26
REMARK   10  A    between atoms: N_28  and  C_29
REMARK                            x       y       z     vdW  Elec       q    Type
REMARK                         _______ _______ _______ _____ _____    ______ ____
ROOT
ATOM      1  C   UNL     1       0.168   5.725   0.008  0.00  0.00    +0.228 C 
ATOM      2  O   UNL     1       1.278   6.215   0.019  0.00  0.00    -0.275 OA
ATOM      3  N   UNL     1      -0.920   6.519   0.029  0.00  0.00    -0.284 N 
ATOM      4  H   UNL     1      -1.806   6.131  -0.046  0.00  0.00    +0.155 HD
ENDROOT
BRANCH   3   5
ATOM      5  C   UNL     1      -0.773   7.899   0.157  0.00  0.00    +0.046 A 
ATOM      6  C   UNL     1       0.307   8.543  -0.432  0.00  0.00    +0.024 A 
ATOM      7  C   UNL     1       0.447   9.911  -0.308  0.00  0.00    +0.002 A 
ATOM      8  C   UNL     1      -0.478  10.648   0.412  0.00  0.00    +0.001 A 
ATOM      9  C   UNL     1      -1.553  10.025   1.008  0.00  0.00    +0.015 A 
ATOM     10  C   UNL     1      -1.712   8.643   0.887  0.00  0.00    +0.058 A 
BRANCH  10  11
ATOM     11  C   UNL     1      -2.860   7.969   1.523  0.00  0.00    +0.250 C 
ATOM     12  O   UNL     1      -2.943   6.756   1.499  0.00  0.00    -0.270 OA
ATOM     13  N   UNL     1      -3.817   8.698   2.131  0.00  0.00    -0.281 N 
ATOM     14  H   UNL     1      -3.718   9.660   2.208  0.00  0.00    +0.155 HD
BRANCH  13  15
ATOM     15  C   UNL     1      -4.952   8.068   2.651  0.00  0.00    +0.034 A 
ATOM     16  C   UNL     1      -6.183   8.708   2.610  0.00  0.00    +0.023 A 
ATOM     17  C   UNL     1      -7.303   8.080   3.119  0.00  0.00    +0.002 A 
ATOM     18  C   UNL     1      -7.197   6.820   3.679  0.00  0.00    +0.000 A 
ATOM     19  C   UNL     1      -5.971   6.183   3.727  0.00  0.00    +0.002 A 
ATOM     20  C   UNL     1      -4.848   6.802   3.214  0.00  0.00    +0.023 A 
ENDBRANCH  13  15
ENDBRANCH  10  11
ENDBRANCH   3   5
BRANCH   1  21
ATOM     21  C   UNL     1       0.007   4.227  -0.028  0.00  0.00    +0.173 C 
BRANCH  21  22
ATOM     22  S   UNL     1       1.639   3.445  -0.048  0.00  0.00    -0.075 S 
BRANCH  22  24
ATOM     23  N   UNL     1       1.998   0.678  -0.115  0.00  0.00    -0.187 N 
ATOM     24  C   UNL     1       1.165   1.748  -0.089  0.00  0.00    +0.214 A 
ATOM     25  N   UNL     1      -0.065   1.280  -0.100  0.00  0.00    -0.101 NA
ATOM     26  N   UNL     1      -0.057  -0.004  -0.131  0.00  0.00    -0.022 NA
ATOM     27  N   UNL     1       1.154  -0.446  -0.142  0.00  0.00    -0.038 NA
BRANCH  23  31
ATOM     28  C   UNL     1       6.167   0.714  -0.118  0.00  0.00    -0.045 A 
ATOM     29  C   UNL     1       5.486  -0.290   0.546  0.00  0.00    +0.006 A 
ATOM     30  C   UNL     1       4.105  -0.305   0.549  0.00  0.00    +0.028 A 
ATOM     31  C   UNL     1       3.401   0.690  -0.116  0.00  0.00    +0.070 A 
ATOM     32  C   UNL     1       4.087   1.693  -0.786  0.00  0.00    +0.028 A 
ATOM     33  C   UNL     1       5.468   1.706  -0.781  0.00  0.00    +0.006 A 
BRANCH  28  35
ATOM     34  C   UNL     1       8.184   0.640  -1.559  0.00  0.00    +0.012 C 
ATOM     35  C   UNL     1       7.674   0.727  -0.119  0.00  0.00    +0.013 C 
ATOM     36  C   UNL     1       8.174   2.023   0.521  0.00  0.00    +0.012 C 
ENDBRANCH  28  35
ENDBRANCH  23  31
ENDBRANCH  22  24
ENDBRANCH  21  22
ENDBRANCH   1  21
TORSDOF 8
