REMARK  Name = ZINC51677238
REMARK  6 active torsions:
REMARK  status: ('A' for Active; 'I' for Inactive)
REMARK    1  A    between atoms: C_1  and  O_2
REMARK    2  A    between atoms: O_2  and  C_3
REMARK    3  A    between atoms: C_6  and  C_9
REMARK    4  A    between atoms: C_9  and  C_11
REMARK    5  A    between atoms: C_9  and  N_17
REMARK    6  A    between atoms: C_24  and  C_27
REMARK                            x       y       z     vdW  Elec       q    Type
REMARK                         _______ _______ _______ _____ _____    ______ ____
ROOT
ATOM      1  C   UNL     1       2.506  -2.502  -4.381  0.00  0.00    +0.135 C 
ENDROOT
BRANCH   1   2
ATOM      2  N   UNL     1       3.266  -3.664  -3.913  0.00  0.00    -0.288 N 
ATOM      3  C   UNL     1       4.317  -4.114  -4.627  0.00  0.00    +0.303 C 
ATOM      4  O   UNL     1       4.578  -3.614  -5.704  0.00  0.00    -0.253 OA
ATOM      5  N   UNL     1       5.079  -5.116  -4.146  0.00  0.00    -0.280 N 
ATOM      6  C   UNL     1       4.716  -5.813  -2.902  0.00  0.00    +0.137 C 
ATOM      7  C   UNL     1       5.946  -5.842  -1.988  0.00  0.00    +0.180 C 
ATOM      8  O   UNL     1       7.059  -6.372  -2.712  0.00  0.00    -0.364 OA
ATOM      9  C   UNL     1       7.450  -5.588  -3.841  0.00  0.00    +0.221 C 
ATOM     10  C   UNL     1       6.293  -5.551  -4.854  0.00  0.00    +0.150 C 
ATOM     11  H   UNL     1       3.013  -4.110  -3.089  0.00  0.00    +0.151 HD
BRANCH   9  12
ATOM     12  C   UNL     1       8.663  -6.206  -4.487  0.00  0.00    +0.241 C 
ATOM     13  O   UNL     1       9.092  -7.266  -4.082  0.00  0.00    -0.273 OA
ATOM     14  N   UNL     1       9.272  -5.580  -5.514  0.00  0.00    -0.327 N 
ATOM     15  H   UNL     1       8.928  -4.733  -5.838  0.00  0.00    +0.145 HD
ATOM     16  H   UNL     1      10.053  -5.978  -5.930  0.00  0.00    +0.145 HD
ENDBRANCH   9  12
ENDBRANCH   1   2
BRANCH   1  20
ATOM     17  C   UNL     1       0.607  -0.608  -1.054  0.00  0.00    +0.120 A 
ATOM     18  C   UNL     1       1.175   0.160  -2.059  0.00  0.00    +0.046 A 
ATOM     19  C   UNL     1       1.788  -0.455  -3.134  0.00  0.00    +0.009 A 
ATOM     20  C   UNL     1       1.836  -1.834  -3.207  0.00  0.00    -0.023 A 
ATOM     21  C   UNL     1       1.270  -2.603  -2.207  0.00  0.00    +0.009 A 
ATOM     22  C   UNL     1       0.661  -1.993  -1.127  0.00  0.00    +0.046 A 
BRANCH  17  24
ATOM     23  C   UNL     1      -0.016   1.423   0.014  0.00  0.00    +0.277 C 
ATOM     24  O   UNL     1       0.003  -0.006   0.004  0.00  0.00    -0.495 OA
ENDBRANCH  17  24
ENDBRANCH   1  20
BRANCH   1  25
ATOM     25  C   UNL     1       1.459  -2.951  -5.368  0.00  0.00    -0.023 A 
ATOM     26  C   UNL     1       0.753  -4.119  -5.143  0.00  0.00    +0.006 A 
ATOM     27  C   UNL     1      -0.207  -4.530  -6.049  0.00  0.00    +0.000 A 
ATOM     28  C   UNL     1      -0.462  -3.775  -7.178  0.00  0.00    +0.000 A 
ATOM     29  C   UNL     1       0.244  -2.607  -7.402  0.00  0.00    +0.000 A 
ATOM     30  C   UNL     1       1.201  -2.193  -6.494  0.00  0.00    +0.006 A 
ENDBRANCH   1  25
TORSDOF 5
