REMARK  Name = ZINC65315311
REMARK  11 active torsions:
REMARK  status: ('A' for Active; 'I' for Inactive)
REMARK    1  A    between atoms: C_1  and  C_2
REMARK    2  A    between atoms: C_2  and  C_3
REMARK    3  A    between atoms: C_3  and  N_4
REMARK    4  A    between atoms: C_5  and  C_7
REMARK    5  A    between atoms: C_16  and  S_19
REMARK    6  A    between atoms: S_19  and  C_20
REMARK    7  A    between atoms: C_20  and  C_21
REMARK    8  A    between atoms: N_23  and  C_24
REMARK    9  A    between atoms: C_27  and  C_30
REMARK   10  A    between atoms: C_30  and  O_32
REMARK   11  A    between atoms: O_32  and  C_33
REMARK                            x       y       z     vdW  Elec       q    Type
REMARK                         _______ _______ _______ _____ _____    ______ ____
ROOT
ATOM      1  C   UNL     1      -2.582  -4.155   0.035  0.00  0.00    +0.078 C 
ATOM      2  C   UNL     1      -1.843  -4.658   1.277  0.00  0.00    +0.031 C 
ATOM      3  C   UNL     1      -1.782  -6.188   1.246  0.00  0.00    +0.107 C 
ATOM      4  N   UNL     1      -3.147  -6.713   1.102  0.00  0.00    -0.314 N 
ATOM      5  C   UNL     1      -3.978  -6.226  -0.007  0.00  0.00    +0.107 C 
ATOM      6  C   UNL     1      -4.014  -4.696   0.038  0.00  0.00    +0.031 C 
ATOM      7  C   UNL     1      -3.644  -7.654   2.002  0.00  0.00    +0.144 A 
ATOM      8  C   UNL     1      -2.843  -8.110   3.050  0.00  0.00    +0.048 A 
ATOM      9  C   UNL     1      -3.380  -9.045   3.918  0.00  0.00    +0.040 A 
ATOM     10  C   UNL     1      -4.690  -9.473   3.690  0.00  0.00    +0.120 A 
ATOM     11  N   UNL     1      -5.374  -8.985   2.668  0.00  0.00    -0.141 NA
ATOM     12  N   UNL     1      -4.877  -8.114   1.866  0.00  0.00    -0.133 NA
ENDROOT
BRANCH   1  14
ATOM     13  N   UNL     1      -1.462  -1.950   0.045  0.00  0.00    -0.315 N 
ATOM     14  C   UNL     1      -2.615  -2.648   0.045  0.00  0.00    +0.216 C 
ATOM     15  O   UNL     1      -3.678  -2.064   0.054  0.00  0.00    -0.276 OA
ATOM     16  H   UNL     1      -0.612  -2.417   0.038  0.00  0.00    +0.149 HD
BRANCH  13  17
ATOM     17  C   UNL     1      -1.493  -0.485   0.055  0.00  0.00    +0.104 C 
BRANCH  17  19
ATOM     18  C   UNL     1      -0.095   1.585   0.062  0.00  0.00    +0.005 C 
ATOM     19  C   UNL     1      -0.062   0.056   0.052  0.00  0.00    +0.015 C 
ENDBRANCH  17  19
ENDBRANCH  13  17
ENDBRANCH   1  14
BRANCH  10  20
ATOM     20  S   UNL     1      -5.429 -10.662   4.759  0.00  0.00    -0.095 S 
BRANCH  20  21
ATOM     21  C   UNL     1      -7.092 -10.895   4.075  0.00  0.00    +0.172 C 
BRANCH  21  22
ATOM     22  C   UNL     1      -7.842 -11.902   4.908  0.00  0.00    +0.227 C 
ATOM     23  O   UNL     1      -7.307 -12.412   5.869  0.00  0.00    -0.275 OA
ATOM     24  N   UNL     1      -9.108 -12.235   4.585  0.00  0.00    -0.285 N 
ATOM     25  H   UNL     1      -9.509 -11.886   3.773  0.00  0.00    +0.155 HD
BRANCH  24  26
ATOM     26  C   UNL     1      -9.840 -13.081   5.417  0.00  0.00    +0.033 A 
ATOM     27  C   UNL     1      -9.668 -13.016   6.796  0.00  0.00    +0.024 A 
ATOM     28  C   UNL     1     -10.389 -13.850   7.621  0.00  0.00    +0.017 A 
ATOM     29  C   UNL     1     -11.296 -14.761   7.071  0.00  0.00    +0.059 A 
ATOM     30  C   UNL     1     -11.466 -14.822   5.685  0.00  0.00    +0.017 A 
ATOM     31  C   UNL     1     -10.745 -13.983   4.867  0.00  0.00    +0.024 A 
BRANCH  29  32
ATOM     32  C   UNL     1     -12.070 -15.656   7.951  0.00  0.00    +0.339 C 
ATOM     33  O   UNL     1     -11.920 -15.601   9.156  0.00  0.00    -0.245 OA
BRANCH  32  34
ATOM     34  O   UNL     1     -12.943 -16.534   7.420  0.00  0.00    -0.464 OA
ATOM     35  C   UNL     1     -13.659 -17.369   8.332  0.00  0.00    +0.280 C 
ENDBRANCH  32  34
ENDBRANCH  29  32
ENDBRANCH  24  26
ENDBRANCH  21  22
ENDBRANCH  20  21
ENDBRANCH  10  20
TORSDOF 9
