REMARK  Name = ZINC02257020
REMARK  6 active torsions:
REMARK  status: ('A' for Active; 'I' for Inactive)
REMARK    1  A    between atoms: C_4  and  C_7
REMARK    2  A    between atoms: C_11  and  C_22
REMARK    3  A    between atoms: C_12  and  O_21
REMARK    4  A    between atoms: C_16  and  N_20
REMARK    5  A    between atoms: C_17  and  C_18
REMARK    6  A    between atoms: N_23  and  C_24
REMARK                            x       y       z     vdW  Elec       q    Type
REMARK                         _______ _______ _______ _____ _____    ______ ____
ROOT
ATOM      1  C   UNL     1      -0.064   5.643   0.032  0.00  0.00    +0.098 C 
ATOM      2  C   UNL     1      -0.051   4.137   0.024  0.00  0.00    +0.008 A 
ATOM      3  C   UNL     1       1.156   3.473   0.009  0.00  0.00    +0.021 A 
ATOM      4  C   UNL     1       1.189   2.075   0.002  0.00  0.00    +0.035 A 
ATOM      5  C   UNL     1      -0.016   1.353   0.009  0.00  0.00    +0.129 A 
ATOM      6  C   UNL     1      -1.221   2.031   0.019  0.00  0.00    +0.092 A 
ATOM      7  C   UNL     1      -1.243   3.421   0.032  0.00  0.00    +0.138 A 
ATOM      8  O   UNL     1      -2.436   4.062   0.049  0.00  0.00    -0.441 OA
ATOM      9  C   UNL     1      -2.503   5.345   0.442  0.00  0.00    +0.199 C 
ATOM     10  C   UNL     1      -1.414   6.149   0.457  0.00  0.00    +0.098 C 
ENDROOT
BRANCH   1  14
ATOM     11  C   UNL     1       0.815   7.085  -3.892  0.00  0.00    +0.000 A 
ATOM     12  C   UNL     1       1.634   7.423  -2.832  0.00  0.00    +0.000 A 
ATOM     13  C   UNL     1       1.350   6.957  -1.562  0.00  0.00    +0.004 A 
ATOM     14  C   UNL     1       0.246   6.152  -1.353  0.00  0.00    -0.035 A 
ATOM     15  C   UNL     1      -0.571   5.810  -2.414  0.00  0.00    +0.004 A 
ATOM     16  C   UNL     1      -0.289   6.280  -3.683  0.00  0.00    +0.000 A 
ENDBRANCH   1  14
BRANCH   9  17
ATOM     17  N   UNL     1      -3.713   5.856   0.841  0.00  0.00    -0.328 N 
ATOM     18  H   UNL     1      -3.778   6.781   1.128  0.00  0.00    +0.145 HD
ATOM     19  H   UNL     1      -4.503   5.293   0.836  0.00  0.00    +0.145 HD
ENDBRANCH   9  17
BRANCH  10  20
ATOM     20  C   UNL     1      -1.551   7.508   0.887  0.00  0.00    +0.101 C 
ATOM     21  N   UNL     1      -1.659   8.586   1.228  0.00  0.00    -0.191 NA
ENDBRANCH  10  20
BRANCH   5  22
ATOM     22  O   UNL     1       0.002  -0.004   0.002  0.00  0.00    -0.506 OA
ATOM     23  H   UNL     1       0.016  -0.402   0.883  0.00  0.00    +0.292 HD
ENDBRANCH   5  22
BRANCH   4  24
ATOM     24  C   UNL     1       2.475   1.366  -0.013  0.00  0.00    +0.123 C 
ATOM     25  N   UNL     1       2.501   0.062  -0.019  0.00  0.00    -0.255 NA
BRANCH  25  26
ATOM     26  C   UNL     1       3.699  -0.599  -0.033  0.00  0.00    +0.065 A 
ATOM     27  C   UNL     1       4.716  -0.189  -0.899  0.00  0.00    +0.029 A 
ATOM     28  C   UNL     1       5.924  -0.855  -0.904  0.00  0.00    +0.023 A 
ATOM     29  C   UNL     1       6.126  -1.935  -0.062  0.00  0.00    +0.059 A 
ATOM     30  C   UNL     1       5.120  -2.351   0.795  0.00  0.00    +0.061 A 
ATOM     31  C   UNL     1       3.908  -1.689   0.814  0.00  0.00    +0.049 A 
ATOM     32 CL   UNL     1       5.382  -3.707   1.847  0.00  0.00    -0.082 Cl
ATOM     33 CL   UNL     1       7.647  -2.772  -0.079  0.00  0.00    -0.082 Cl
ENDBRANCH  25  26
ENDBRANCH   4  24
TORSDOF 6
