REMARK  Name = ZINC58669510
REMARK  10 active torsions:
REMARK  status: ('A' for Active; 'I' for Inactive)
REMARK    1  A    between atoms: C_1  and  C_2
REMARK    2  A    between atoms: C_2  and  C_4
REMARK    3  A    between atoms: C_2  and  O_13
REMARK    4  A    between atoms: N_9  and  C_10
REMARK    5  A    between atoms: C_10  and  C_11
REMARK    6  A    between atoms: C_10  and  C_12
REMARK    7  A    between atoms: O_13  and  C_14
REMARK    8  A    between atoms: C_14  and  C_16
REMARK    9  A    between atoms: N_18  and  C_28
REMARK   10  A    between atoms: C_19  and  C_22
REMARK                            x       y       z     vdW  Elec       q    Type
REMARK                         _______ _______ _______ _____ _____    ______ ____
ROOT
ATOM      1  C   UNL     1       0.509  -1.131  -3.471  0.00  0.00    +0.145 C 
ATOM      2  N   UNL     1       1.769  -1.386  -3.629  0.00  0.00    -0.177 NA
ATOM      3  N   UNL     1       2.101  -1.823  -4.910  0.00  0.00    -0.216 N 
ATOM      4  C   UNL     1       0.881  -1.867  -5.731  0.00  0.00    +0.134 C 
ATOM      5  C   UNL     1      -0.226  -1.403  -4.764  0.00  0.00    +0.093 C 
ENDROOT
BRANCH   4   6
ATOM      6  C   UNL     1       0.998  -0.929  -6.905  0.00  0.00    -0.025 A 
ATOM      7  C   UNL     1       1.618   0.296  -6.751  0.00  0.00    +0.005 A 
ATOM      8  C   UNL     1       1.726   1.156  -7.828  0.00  0.00    +0.000 A 
ATOM      9  C   UNL     1       1.213   0.790  -9.059  0.00  0.00    +0.000 A 
ATOM     10  C   UNL     1       0.594  -0.436  -9.212  0.00  0.00    +0.000 A 
ATOM     11  C   UNL     1       0.490  -1.298  -8.137  0.00  0.00    +0.005 A 
ENDBRANCH   4   6
BRANCH   3  12
ATOM     12  C   UNL     1       3.384  -2.163  -5.344  0.00  0.00    +0.052 A 
ATOM     13  C   UNL     1       3.588  -2.582  -6.653  0.00  0.00    +0.025 A 
ATOM     14  C   UNL     1       4.858  -2.918  -7.079  0.00  0.00    +0.002 A 
ATOM     15  C   UNL     1       5.926  -2.839  -6.203  0.00  0.00    +0.000 A 
ATOM     16  C   UNL     1       5.726  -2.424  -4.899  0.00  0.00    +0.002 A 
ATOM     17  C   UNL     1       4.460  -2.080  -4.469  0.00  0.00    +0.025 A 
ENDBRANCH   3  12
BRANCH   1  18
ATOM     18  C   UNL     1      -0.089  -0.673  -2.269  0.00  0.00    +0.356 C 
ATOM     19  O   UNL     1      -1.288  -0.469  -2.225  0.00  0.00    -0.244 OA
BRANCH  18  20
ATOM     20  O   UNL     1       0.671  -0.465  -1.174  0.00  0.00    -0.448 OA
BRANCH  20  22
ATOM     21  C   UNL     1      -0.019   1.526   0.010  0.00  0.00    +0.062 C 
ATOM     22  C   UNL     1       0.002  -0.004   0.002  0.00  0.00    +0.259 C 
BRANCH  22  23
ATOM     23  C   UNL     1       0.731  -0.503   1.223  0.00  0.00    +0.261 C 
ATOM     24  O   UNL     1       1.774  -1.109   1.101  0.00  0.00    -0.271 OA
ATOM     25  N   UNL     1       0.223  -0.277   2.451  0.00  0.00    -0.237 N 
ATOM     26  C   UNL     1       0.875  -0.723   3.542  0.00  0.00    +0.306 C 
ATOM     27  O   UNL     1       1.921  -1.330   3.420  0.00  0.00    -0.252 OA
ATOM     28  N   UNL     1       0.367  -0.496   4.770  0.00  0.00    -0.297 N 
ATOM     29  H   UNL     1      -0.611   0.208   2.548  0.00  0.00    +0.159 HD
ATOM     30  H   UNL     1      -0.467  -0.011   4.868  0.00  0.00    +0.151 HD
BRANCH  28  31
ATOM     31  C   UNL     1       1.076  -0.981   5.957  0.00  0.00    +0.068 C 
ATOM     32  C   UNL     1       2.139   0.039   6.369  0.00  0.00    +0.027 C 
ATOM     33  C   UNL     1       0.080  -1.171   7.103  0.00  0.00    +0.027 C 
ENDBRANCH  28  31
ENDBRANCH  22  23
ENDBRANCH  20  22
ENDBRANCH  18  20
ENDBRANCH   1  18
TORSDOF 7
