REMARK  Name = ZINC03382271
REMARK  8 active torsions:
REMARK  status: ('A' for Active; 'I' for Inactive)
REMARK    1  A    between atoms: C_1  and  C_2
REMARK    2  A    between atoms: C_9  and  C_11
REMARK    3  A    between atoms: C_11  and  O_13
REMARK    4  A    between atoms: O_13  and  C_14
REMARK    5  A    between atoms: C_14  and  C_15
REMARK    6  A    between atoms: N_17  and  C_18
REMARK    7  A    between atoms: C_21  and  S_24
REMARK    8  A    between atoms: S_24  and  N_27
REMARK                            x       y       z     vdW  Elec       q    Type
REMARK                         _______ _______ _______ _____ _____    ______ ____
ROOT
ATOM      1  C   UNL     1      -4.787  -0.768   0.046  0.00  0.00    +0.255 C 
ATOM      2  O   UNL     1      -4.836   0.444   0.062  0.00  0.00    -0.272 OA
ATOM      3  N   UNL     1      -5.925  -1.489   0.051  0.00  0.00    -0.283 N 
ATOM      4  H   UNL     1      -5.888  -2.455  -0.029  0.00  0.00    +0.155 HD
ENDROOT
BRANCH   3   5
ATOM      5  C   UNL     1      -7.161  -0.844   0.172  0.00  0.00    +0.034 A 
ATOM      6  C   UNL     1      -8.197  -1.451   0.871  0.00  0.00    +0.025 A 
ATOM      7  C   UNL     1      -9.414  -0.809   0.994  0.00  0.00    +0.030 A 
ATOM      8  C   UNL     1      -9.605   0.431   0.413  0.00  0.00    +0.105 A 
ATOM      9  C   UNL     1      -8.577   1.035  -0.288  0.00  0.00    +0.030 A 
ATOM     10  C   UNL     1      -7.356   0.402  -0.410  0.00  0.00    +0.025 A 
BRANCH   8  11
ATOM     11  S   UNL     1     -11.161   1.243   0.566  0.00  0.00    +0.056 S 
ATOM     12  O   UNL     1     -11.781   0.716   1.731  0.00  0.00    -0.153 OA
ATOM     13  O   UNL     1     -10.912   2.632   0.398  0.00  0.00    -0.153 OA
BRANCH  11  14
ATOM     14  N   UNL     1     -12.089   0.770  -0.721  0.00  0.00    -0.204 NA
ATOM     15  H   UNL     1     -13.054   0.723  -0.632  0.00  0.00    +0.144 HD
ATOM     16  H   UNL     1     -11.668   0.539  -1.563  0.00  0.00    +0.144 HD
ENDBRANCH  11  14
ENDBRANCH   8  11
ENDBRANCH   3   5
BRANCH   1  17
ATOM     17  C   UNL     1      -3.452  -1.467   0.021  0.00  0.00    +0.328 C 
BRANCH  17  18
ATOM     18  O   UNL     1      -2.388  -0.479   0.019  0.00  0.00    -0.451 OA
BRANCH  18  19
ATOM     19  C   UNL     1      -1.121  -0.943  -0.002  0.00  0.00    +0.346 C 
ATOM     20  O   UNL     1      -0.913  -2.141  -0.020  0.00  0.00    -0.244 OA
BRANCH  19  28
ATOM     21  C   UNL     1       5.910   1.847  -0.359  0.00  0.00    +0.008 C 
ATOM     22  C   UNL     1       4.390   1.946  -0.499  0.00  0.00    -0.009 C 
ATOM     23  C   UNL     1       3.874   3.102   0.363  0.00  0.00    +0.009 C 
ATOM     24  C   UNL     1       2.403   3.363   0.009  0.00  0.00    +0.043 C 
ATOM     25  C   UNL     1       1.679   2.052   0.000  0.00  0.00    -0.006 A 
ATOM     26  C   UNL     1       2.235   0.804  -0.023  0.00  0.00    -0.036 A 
ATOM     27  C   UNL     1       1.360  -0.269  -0.025  0.00  0.00    +0.026 A 
ATOM     28  C   UNL     1       0.002  -0.005  -0.004  0.00  0.00    +0.097 A 
ATOM     29  S   UNL     1      -0.022   1.780   0.018  0.00  0.00    -0.086 S 
ATOM     30  C   UNL     1       3.752   0.632  -0.046  0.00  0.00    +0.039 C 
ENDBRANCH  19  28
ENDBRANCH  18  19
ENDBRANCH  17  18
ENDBRANCH   1  17
TORSDOF 7
