REMARK  Name = ZINC13655779
REMARK  15 active torsions:
REMARK  status: ('A' for Active; 'I' for Inactive)
REMARK    1  A    between atoms: C_1  and  C_2
REMARK    2  A    between atoms: C_2  and  C_3
REMARK    3  A    between atoms: C_2  and  C_4
REMARK    4  A    between atoms: C_4  and  C_5
REMARK    5  A    between atoms: C_5  and  C_7
REMARK    6  A    between atoms: C_5  and  N_20
REMARK    7  A    between atoms: N_9  and  C_10
REMARK    8  A    between atoms: C_10  and  C_11
REMARK    9  A    between atoms: C_14  and  C_17
REMARK   10  A    between atoms: C_21  and  C_23
REMARK   11  A    between atoms: C_34  and  O_36
REMARK   12  A    between atoms: O_36  and  C_37
REMARK   13  A    between atoms: C_37  and  C_38
REMARK   14  A    between atoms: C_37  and  C_39
REMARK   15  A    between atoms: C_37  and  C_40
REMARK                            x       y       z     vdW  Elec       q    Type
REMARK                         _______ _______ _______ _____ _____    ______ ____
ROOT
ATOM      1  N   UNL     1       2.513   1.180  -0.998  0.00  0.00    -0.302 N 
ATOM      2  C   UNL     1       2.542   1.794   0.202  0.00  0.00    +0.235 C 
ATOM      3  O   UNL     1       2.280   1.171   1.209  0.00  0.00    -0.274 OA
ATOM      4  H   UNL     1       2.791   1.658  -1.794  0.00  0.00    +0.150 HD
ENDROOT
BRANCH   2   5
ATOM      5  C   UNL     1       2.899   3.255   0.291  0.00  0.00    +0.170 C 
ATOM      6  C   UNL     1       3.798   3.494   1.504  0.00  0.00    +0.067 C 
ATOM      7  C   UNL     1       3.916   4.966   1.802  0.00  0.00    -0.040 A 
ATOM      8  C   UNL     1       4.997   5.383   2.570  0.00  0.00    +0.004 A 
ATOM      9  C   UNL     1       5.158   6.715   2.888  0.00  0.00    +0.000 A 
ATOM     10  C   UNL     1       4.237   7.645   2.443  0.00  0.00    +0.000 A 
ATOM     11  C   UNL     1       3.165   7.234   1.678  0.00  0.00    +0.005 A 
ATOM     12  C   UNL     1       3.005   5.894   1.352  0.00  0.00    -0.027 A 
ATOM     13  C   UNL     1       1.826   5.516   0.491  0.00  0.00    +0.147 C 
ATOM     14  N   UNL     1       1.677   4.057   0.468  0.00  0.00    -0.251 N 
ATOM     15  C   UNL     1       0.470   3.474   0.605  0.00  0.00    +0.404 C 
ATOM     16  O   UNL     1       0.384   2.263   0.672  0.00  0.00    -0.226 OA
BRANCH  15  17
ATOM     17  O   UNL     1      -0.641   4.232   0.668  0.00  0.00    -0.445 OA
BRANCH  17  18
ATOM     18  C   UNL     1      -1.887   3.547   0.813  0.00  0.00    +0.107 C 
ATOM     19  C   UNL     1      -1.872   2.731   2.107  0.00  0.00    +0.055 C 
ATOM     20  C   UNL     1      -3.026   4.566   0.866  0.00  0.00    +0.055 C 
ATOM     21  C   UNL     1      -2.095   2.609  -0.378  0.00  0.00    +0.055 C 
ENDBRANCH  17  18
ENDBRANCH  15  17
ENDBRANCH   2   5
BRANCH   1  22
ATOM     22  C   UNL     1       2.063  -0.211  -1.098  0.00  0.00    +0.159 C 
BRANCH  22  23
ATOM     23  C   UNL     1       2.756  -0.881  -2.256  0.00  0.00    +0.233 C 
ATOM     24  O   UNL     1       3.251  -0.210  -3.137  0.00  0.00    -0.274 OA
ATOM     25  N   UNL     1       2.825  -2.225  -2.314  0.00  0.00    -0.314 N 
ATOM     26  H   UNL     1       2.375  -2.763  -1.644  0.00  0.00    +0.149 HD
BRANCH  25  27
ATOM     27  C   UNL     1       3.579  -2.875  -3.389  0.00  0.00    +0.107 C 
BRANCH  27  28
ATOM     28  C   UNL     1       3.498  -4.394  -3.223  0.00  0.00    +0.006 C 
ATOM     29  C   UNL     1       4.203  -4.804  -1.929  0.00  0.00    +0.006 C 
ATOM     30  C   UNL     1       5.670  -4.375  -1.990  0.00  0.00    +0.015 C 
ATOM     31  C   UNL     1       6.352  -5.055  -3.179  0.00  0.00    +0.102 C 
ATOM     32  C   UNL     1       5.646  -4.645  -4.473  0.00  0.00    +0.015 C 
ATOM     33  C   UNL     1       4.179  -5.074  -4.413  0.00  0.00    +0.006 C 
BRANCH  31  34
ATOM     34  C   UNL     1       7.797  -4.633  -3.239  0.00  0.00    +0.359 C 
ATOM     35  O   UNL     1       8.659  -5.447  -3.522  0.00  0.00    -0.246 OA
ATOM     36  O   UNL     1       8.104  -3.477  -3.004  0.00  0.00    -0.246 OA
ENDBRANCH  31  34
ENDBRANCH  27  28
ENDBRANCH  25  27
ENDBRANCH  22  23
BRANCH  22  37
ATOM     37  C   UNL     1       0.550  -0.242  -1.321  0.00  0.00    +0.034 C 
BRANCH  37  39
ATOM     38  C   UNL     1       0.227  -2.284   0.082  0.00  0.00    +0.007 C 
ATOM     39  C   UNL     1       0.064  -1.693  -1.320  0.00  0.00    -0.015 C 
ATOM     40  C   UNL     1      -1.411  -1.737  -1.724  0.00  0.00    +0.007 C 
ENDBRANCH  37  39
ENDBRANCH  22  37
ENDBRANCH   1  22
TORSDOF 10
