REMARK  Name = ZINC63546966
REMARK  8 active torsions:
REMARK  status: ('A' for Active; 'I' for Inactive)
REMARK    1  A    between atoms: C_1  and  O_2
REMARK    2  A    between atoms: O_2  and  C_3
REMARK    3  A    between atoms: C_6  and  C_9
REMARK    4  A    between atoms: C_13  and  C_24
REMARK    5  A    between atoms: C_18  and  C_20
REMARK    6  A    between atoms: N_26  and  C_27
REMARK    7  A    between atoms: C_27  and  C_28
REMARK    8  A    between atoms: C_28  and  C_29
REMARK                            x       y       z     vdW  Elec       q    Type
REMARK                         _______ _______ _______ _____ _____    ______ ____
ROOT
ATOM      1  C   UNL     1      -4.961  -2.619   0.036  0.00  0.00    +0.070 C 
ATOM      2  N   UNL     1      -6.057  -1.900   0.040  0.00  0.00    -0.254 NA
ATOM      3  C   UNL     1      -7.365  -2.559   0.053  0.00  0.00    +0.246 C 
ATOM      4  C   UNL     1      -8.332  -1.831   0.958  0.00  0.00    +0.073 C 
ATOM      5  H   UNL     1      -8.477  -4.773   2.119  0.00  0.00    +0.170 HD
ATOM      6  C   UNL     1      -8.776  -2.732   1.860  0.00  0.00    +0.100 C 
ATOM      7  N   UNL     1      -8.208  -3.958   1.667  0.00  0.00    -0.269 N 
ATOM      8  N   UNL     1      -7.184  -3.874   0.708  0.00  0.00    -0.220 N 
ATOM      9  C   UNL     1      -6.142  -4.713   0.403  0.00  0.00    +0.132 C 
ATOM     10  C   UNL     1      -4.992  -4.084   0.034  0.00  0.00    +0.057 C 
ENDROOT
BRANCH   1  14
ATOM     11  C   UNL     1      -1.199  -0.637   0.010  0.00  0.00    +0.120 A 
ATOM     12  C   UNL     1      -2.373   0.105   0.020  0.00  0.00    +0.046 A 
ATOM     13  C   UNL     1      -3.594  -0.534   0.028  0.00  0.00    +0.013 A 
ATOM     14  C   UNL     1      -3.650  -1.928   0.027  0.00  0.00    +0.000 A 
ATOM     15  C   UNL     1      -2.469  -2.670   0.017  0.00  0.00    +0.013 A 
ATOM     16  C   UNL     1      -1.251  -2.025   0.003  0.00  0.00    +0.046 A 
BRANCH  11  18
ATOM     17  C   UNL     1      -0.017   1.425   0.010  0.00  0.00    +0.277 C 
ATOM     18  O   UNL     1       0.002  -0.004   0.002  0.00  0.00    -0.495 OA
ENDBRANCH  11  18
ENDBRANCH   1  14
BRANCH   9  19
ATOM     19  C   UNL     1      -6.262  -6.214   0.466  0.00  0.00    +0.432 C 
ATOM     20  F   UNL     1      -5.042  -6.795   0.103  0.00  0.00    -0.165 F 
ATOM     21  F   UNL     1      -6.593  -6.601   1.769  0.00  0.00    -0.165 F 
ATOM     22  F   UNL     1      -7.262  -6.639  -0.415  0.00  0.00    -0.165 F 
ENDBRANCH   9  19
BRANCH   4  23
ATOM     23  C   UNL     1      -8.700  -0.468   0.876  0.00  0.00    +0.245 C 
ATOM     24  O   UNL     1      -9.495  -0.003   1.673  0.00  0.00    -0.270 OA
ATOM     25  N   UNL     1      -8.171   0.316  -0.084  0.00  0.00    -0.311 N 
ATOM     26  H   UNL     1      -7.538  -0.054  -0.718  0.00  0.00    +0.149 HD
BRANCH  25  27
ATOM     27  C   UNL     1      -8.552   1.728  -0.169  0.00  0.00    +0.109 C 
BRANCH  27  28
ATOM     28  C   UNL     1      -7.814   2.386  -1.336  0.00  0.00    +0.052 C 
BRANCH  28  29
ATOM     29  C   UNL     1      -8.207   3.839  -1.424  0.00  0.00    -0.040 C 
ATOM     30  C   UNL     1      -7.547   4.892  -0.891  0.00  0.00    +0.000 A 
ATOM     31  C   UNL     1      -6.315   4.997  -0.101  0.00  0.00    +0.030 A 
ATOM     32  C   UNL     1      -5.894   6.220   0.300  0.00  0.00    +0.042 A 
ATOM     33  C   UNL     1      -6.606   7.386  -0.020  0.00  0.00    +0.022 A 
ATOM     34  C   UNL     1      -7.746   7.369  -0.742  0.00  0.00    +0.027 A 
ATOM     35  C   UNL     1      -8.279   6.138  -1.216  0.00  0.00    +0.043 A 
ATOM     36  N   UNL     1      -9.349   5.864  -1.921  0.00  0.00    -0.380 N 
ATOM     37  C   UNL     1      -9.414   4.413  -2.130  0.00  0.00    +0.144 C 
ATOM     38 CL   UNL     1      -4.438   6.348   1.235  0.00  0.00    -0.084 Cl
ATOM     39  H   UNL     1      -9.989   6.513  -2.254  0.00  0.00    +0.160 HD
ENDBRANCH  28  29
ENDBRANCH  27  28
ENDBRANCH  25  27
ENDBRANCH   4  23
TORSDOF 7
