REMARK  Name = ZINC21287021
REMARK  9 active torsions:
REMARK  status: ('A' for Active; 'I' for Inactive)
REMARK    1  A    between atoms: C_1  and  C_2
REMARK    2  A    between atoms: C_5  and  O_8
REMARK    3  A    between atoms: O_8  and  C_9
REMARK    4  A    between atoms: C_9  and  C_10
REMARK    5  A    between atoms: C_12  and  C_15
REMARK    6  A    between atoms: N_17  and  N_18
REMARK    7  A    between atoms: N_18  and  C_19
REMARK    8  A    between atoms: C_22  and  C_28
REMARK    9  A    between atoms: C_24  and  N_25
REMARK                            x       y       z     vdW  Elec       q    Type
REMARK                         _______ _______ _______ _____ _____    ______ ____
ROOT
ATOM      1  C   UNL     1      -5.855   4.283   2.115  0.00  0.00    +0.279 C 
ATOM      2  O   UNL     1      -6.974   4.722   1.936  0.00  0.00    -0.267 OA
ATOM      3  N   UNL     1      -5.305   4.320   3.345  0.00  0.00    -0.231 N 
ATOM      4  H   UNL     1      -4.292   3.923   3.507  0.00  0.00    +0.173 HD
ENDROOT
BRANCH   1   7
ATOM      5  C   UNL     1      -3.222   2.717   0.139  0.00  0.00    +0.116 A 
ATOM      6  N   UNL     1      -3.872   3.216   1.158  0.00  0.00    -0.236 NA
ATOM      7  C   UNL     1      -5.099   3.710   0.988  0.00  0.00    +0.134 A 
ATOM      8  C   UNL     1      -5.635   3.659  -0.274  0.00  0.00    +0.080 A 
ATOM      9  S   UNL     1      -4.348   2.910  -1.165  0.00  0.00    -0.076 S 
BRANCH   5  10
ATOM     10  C   UNL     1      -1.839   2.118   0.107  0.00  0.00    +0.291 C 
BRANCH  10  11
ATOM     11  O   UNL     1      -1.923   0.715   0.366  0.00  0.00    -0.485 OA
BRANCH  11  16
ATOM     12  C   UNL     1       2.912  -2.174   0.379  0.00  0.00    +0.044 C 
ATOM     13  C   UNL     1       1.619  -1.401   0.377  0.00  0.00    -0.050 A 
ATOM     14  C   UNL     1       0.424  -2.054   0.619  0.00  0.00    +0.007 A 
ATOM     15  C   UNL     1      -0.763  -1.347   0.618  0.00  0.00    +0.046 A 
ATOM     16  C   UNL     1      -0.756   0.019   0.373  0.00  0.00    +0.121 A 
ATOM     17  C   UNL     1       0.444   0.671   0.130  0.00  0.00    +0.046 A 
ATOM     18  C   UNL     1       1.629  -0.040   0.132  0.00  0.00    +0.007 A 
ENDBRANCH  11  16
ENDBRANCH  10  11
ENDBRANCH   5  10
ENDBRANCH   1   7
BRANCH   3  19
ATOM     19  N   UNL     1      -6.023   4.865   4.417  0.00  0.00    -0.262 N 
ATOM     20  H   UNL     1      -7.036   5.263   4.255  0.00  0.00    +0.170 HD
BRANCH  19  21
ATOM     21  C   UNL     1      -5.453   4.904   5.692  0.00  0.00    +0.075 A 
ATOM     22  C   UNL     1      -4.223   4.301   5.923  0.00  0.00    +0.027 A 
ATOM     23  C   UNL     1      -3.663   4.342   7.185  0.00  0.00    +0.014 A 
ATOM     24  C   UNL     1      -4.324   4.981   8.217  0.00  0.00    +0.057 A 
ATOM     25  C   UNL     1      -5.549   5.582   7.990  0.00  0.00    +0.047 A 
ATOM     26  C   UNL     1      -6.113   5.551   6.730  0.00  0.00    +0.149 A 
BRANCH  24  27
ATOM     27  C   UNL     1      -3.709   5.024   9.592  0.00  0.00    +0.417 C 
ATOM     28  F   UNL     1      -2.481   4.355   9.574  0.00  0.00    -0.166 F 
ATOM     29  F   UNL     1      -3.509   6.356   9.972  0.00  0.00    -0.166 F 
ATOM     30  F   UNL     1      -4.566   4.402  10.506  0.00  0.00    -0.166 F 
ENDBRANCH  24  27
BRANCH  26  31
ATOM     31  N   UNL     1      -7.420   6.200   6.486  0.00  0.00    +0.058 N 
ATOM     32  O   UNL     1      -7.628   6.774   5.432  0.00  0.00    -0.126 OA
ATOM     33  O   UNL     1      -8.288   6.160   7.340  0.00  0.00    -0.126 OA
ENDBRANCH  26  31
ENDBRANCH  19  21
ENDBRANCH   3  19
TORSDOF 8
