REMARK  Name = ZINC40598369
REMARK  4 active torsions:
REMARK  status: ('A' for Active; 'I' for Inactive)
REMARK    1  A    between atoms: C_5  and  N_7
REMARK    2  A    between atoms: C_14  and  N_26
REMARK    3  A    between atoms: C_15  and  N_19
REMARK    4  A    between atoms: N_19  and  C_20
REMARK                            x       y       z     vdW  Elec       q    Type
REMARK                         _______ _______ _______ _____ _____    ______ ____
ROOT
ATOM      1  N   UNL     1       0.560  -2.111   1.130  0.00  0.00    -0.325 N 
ATOM      2  C   UNL     1      -0.732  -2.791   1.298  0.00  0.00    +0.124 C 
ATOM      3  C   UNL     1      -0.941  -3.745   0.116  0.00  0.00    +0.125 C 
ATOM      4  N   UNL     1       0.271  -4.559  -0.050  0.00  0.00    -0.310 N 
ATOM      5  C   UNL     1       1.563  -3.880  -0.218  0.00  0.00    +0.125 C 
ATOM      6  C   UNL     1       1.772  -2.925   0.958  0.00  0.00    +0.124 C 
ATOM      7  C   UNL     1       0.197  -5.944  -0.048  0.00  0.00    +0.157 A 
ATOM      8  C   UNL     1       0.009  -6.643  -1.236  0.00  0.00    +0.205 A 
ATOM      9  C   UNL     1      -0.058  -8.031  -1.181  0.00  0.00    +0.155 A 
ATOM     10  N   UNL     1       0.059  -8.637  -0.001  0.00  0.00    -0.218 NA
ATOM     11  C   UNL     1       0.236  -7.940   1.103  0.00  0.00    +0.225 A 
ATOM     12  N   UNL     1       0.310  -6.625   1.091  0.00  0.00    -0.218 NA
ENDROOT
BRANCH   1  17
ATOM     13  C   UNL     1       0.583   1.367  -0.063  0.00  0.00    +0.002 A 
ATOM     14  C   UNL     1       0.784   2.050   1.122  0.00  0.00    +0.003 A 
ATOM     15  C   UNL     1       0.910   1.355   2.312  0.00  0.00    +0.040 A 
ATOM     16  C   UNL     1       0.837  -0.025   2.319  0.00  0.00    +0.144 A 
ATOM     17  C   UNL     1       0.635  -0.715   1.128  0.00  0.00    +0.065 A 
ATOM     18  C   UNL     1       0.508  -0.013  -0.064  0.00  0.00    +0.026 A 
ATOM     19  F   UNL     1       0.961  -0.704   3.480  0.00  0.00    -0.204 F 
ENDBRANCH   1  17
BRANCH   8  20
ATOM     20  N   UNL     1      -0.117  -5.927  -2.526  0.00  0.00    +0.063 N 
ATOM     21  O   UNL     1       0.868  -5.697  -3.189  0.00  0.00    -0.126 OA
ATOM     22  O   UNL     1      -1.205  -5.573  -2.917  0.00  0.00    -0.126 OA
ENDBRANCH   8  20
BRANCH   9  23
ATOM     23  N   UNL     1      -0.245  -8.773  -2.337  0.00  0.00    -0.324 N 
ATOM     24  H   UNL     1      -0.330  -8.325  -3.193  0.00  0.00    +0.148 HD
BRANCH  23  25
ATOM     25  C   UNL     1      -0.314 -10.235  -2.266  0.00  0.00    +0.072 C 
ATOM     26  C   UNL     1       1.102 -10.815  -2.298  0.00  0.00    +0.022 C 
ATOM     27  C   UNL     1       1.030 -12.341  -2.224  0.00  0.00    +0.002 C 
ATOM     28  C   UNL     1       0.234 -12.873  -3.418  0.00  0.00    +0.000 C 
ATOM     29  C   UNL     1      -1.181 -12.293  -3.386  0.00  0.00    +0.002 C 
ATOM     30  C   UNL     1      -1.109 -10.766  -3.460  0.00  0.00    +0.022 C 
ENDBRANCH  23  25
ENDBRANCH   9  23
TORSDOF 4
