REMARK  Name = ZINC13635175
REMARK  4 active torsions:
REMARK  status: ('A' for Active; 'I' for Inactive)
REMARK    1  A    between atoms: C_1  and  O_2
REMARK    2  A    between atoms: O_2  and  C_3
REMARK    3  A    between atoms: C_6  and  C_9
REMARK    4  A    between atoms: C_22  and  N_25
REMARK                            x       y       z     vdW  Elec       q    Type
REMARK                         _______ _______ _______ _____ _____    ______ ____
ROOT
ATOM      1  C   UNL     1       2.140   0.802   1.107  0.00  0.00    +0.105 C 
ATOM      2  C   UNL     1       1.657   1.554  -0.116  0.00  0.00    +0.029 C 
ATOM      3  C   UNL     1       2.184   1.139  -1.495  0.00  0.00    +0.033 C 
ATOM      4  C   UNL     1       1.010   1.524  -2.398  0.00  0.00    -0.030 C 
ATOM      5  C   UNL     1      -0.122   1.504  -1.703  0.00  0.00    -0.023 C 
ATOM      6  C   UNL     1       0.185   1.077  -0.316  0.00  0.00    +0.049 C 
ATOM      7  C   UNL     1      -0.584   1.575   0.846  0.00  0.00    -0.017 A 
ATOM      8  C   UNL     1      -1.911   1.938   0.734  0.00  0.00    +0.006 A 
ATOM      9  C   UNL     1      -2.609   2.389   1.838  0.00  0.00    +0.003 A 
ATOM     10  C   UNL     1      -1.971   2.478   3.062  0.00  0.00    +0.034 A 
ATOM     11  C   UNL     1      -0.645   2.126   3.179  0.00  0.00    +0.147 A 
ATOM     12  C   UNL     1       0.076   1.675   2.072  0.00  0.00    +0.062 A 
ATOM     13  N   UNL     1       1.418   1.353   2.265  0.00  0.00    -0.335 N 
ATOM     14  H   UNL     1       1.921   2.129   2.669  0.00  0.00    +0.147 HD
ENDROOT
BRANCH   1  18
ATOM     15  C   UNL     1       1.272  -3.362   0.695  0.00  0.00    +0.120 A 
ATOM     16  C   UNL     1       2.443  -2.840   0.163  0.00  0.00    +0.046 A 
ATOM     17  C   UNL     1       2.721  -1.493   0.297  0.00  0.00    +0.009 A 
ATOM     18  C   UNL     1       1.834  -0.666   0.962  0.00  0.00    -0.027 A 
ATOM     19  C   UNL     1       0.670  -1.185   1.497  0.00  0.00    +0.009 A 
ATOM     20  C   UNL     1       0.384  -2.529   1.361  0.00  0.00    +0.046 A 
BRANCH  15  22
ATOM     21  C   UNL     1      -0.226  -5.154   1.137  0.00  0.00    +0.277 C 
ATOM     22  O   UNL     1       0.997  -4.686   0.565  0.00  0.00    -0.495 OA
ENDBRANCH  15  22
ENDBRANCH   1  18
BRANCH  11  23
ATOM     23  N   UNL     1       0.024   2.228   4.495  0.00  0.00    +0.058 N 
ATOM     24  O   UNL     1      -0.598   2.620   5.466  0.00  0.00    -0.126 OA
ATOM     25  O   UNL     1       1.197   1.918   4.608  0.00  0.00    -0.126 OA
ENDBRANCH  11  23
TORSDOF 3
