REMARK  Name = ZINC13263948
REMARK  8 active torsions:
REMARK  status: ('A' for Active; 'I' for Inactive)
REMARK    1  A    between atoms: C_1  and  C_2
REMARK    2  A    between atoms: C_2  and  C_14
REMARK    3  A    between atoms: N_3  and  N_4
REMARK    4  A    between atoms: N_4  and  C_5
REMARK    5  A    between atoms: C_10  and  N_11
REMARK    6  A    between atoms: C_17  and  S_20
REMARK    7  A    between atoms: S_20  and  N_23
REMARK    8  A    between atoms: C_28  and  C_30
REMARK                            x       y       z     vdW  Elec       q    Type
REMARK                         _______ _______ _______ _____ _____    ______ ____
ROOT
ATOM      1  C   UNL     1      -5.687   0.345   2.402  0.00  0.00    -0.002 A 
ATOM      2  C   UNL     1      -7.003   0.790   2.257  0.00  0.00    +0.011 A 
ATOM      3  C   UNL     1      -8.021  -0.123   2.077  0.00  0.00    +0.029 A 
ATOM      4  C   UNL     1      -7.742  -1.479   2.051  0.00  0.00    +0.106 A 
ATOM      5  C   UNL     1      -6.442  -1.927   2.200  0.00  0.00    +0.029 A 
ATOM      6  C   UNL     1      -5.413  -1.025   2.375  0.00  0.00    +0.011 A 
ENDROOT
BRANCH   1   8
ATOM      7  C   UNL     1      -4.892   2.792   2.617  0.00  0.00    +0.068 C 
ATOM      8  C   UNL     1      -4.593   1.315   2.589  0.00  0.00    +0.063 C 
ATOM      9  N   UNL     1      -3.372   0.898   2.728  0.00  0.00    -0.187 NA
BRANCH   9  10
ATOM     10  N   UNL     1      -2.332   1.820   2.906  0.00  0.00    -0.235 N 
ATOM     11  H   UNL     1      -2.525   2.770   2.924  0.00  0.00    +0.174 HD
BRANCH  10  12
ATOM     12  C   UNL     1      -1.019   1.371   3.056  0.00  0.00    +0.078 A 
ATOM     13  C   UNL     1      -0.754   0.009   3.144  0.00  0.00    +0.027 A 
ATOM     14  C   UNL     1       0.546  -0.431   3.294  0.00  0.00    +0.002 A 
ATOM     15  C   UNL     1       1.584   0.481   3.355  0.00  0.00    +0.002 A 
ATOM     16  C   UNL     1       1.325   1.836   3.262  0.00  0.00    +0.034 A 
ATOM     17  C   UNL     1       0.026   2.284   3.118  0.00  0.00    +0.149 A 
BRANCH  17  18
ATOM     18  N   UNL     1      -0.251   3.736   3.024  0.00  0.00    +0.058 N 
ATOM     19  O   UNL     1       0.671   4.529   2.970  0.00  0.00    -0.126 OA
ATOM     20  O   UNL     1      -1.401   4.136   2.996  0.00  0.00    -0.126 OA
ENDBRANCH  17  18
ENDBRANCH  10  12
ENDBRANCH   9  10
ENDBRANCH   1   8
BRANCH   4  21
ATOM     21  S   UNL     1      -9.050  -2.639   1.828  0.00  0.00    +0.062 S 
ATOM     22  O   UNL     1     -10.099  -1.945   1.167  0.00  0.00    -0.153 OA
ATOM     23  O   UNL     1      -8.461  -3.817   1.295  0.00  0.00    -0.153 OA
BRANCH  21  24
ATOM     24  N   UNL     1      -9.617  -3.032   3.333  0.00  0.00    -0.163 NA
ATOM     25  C   UNL     1      -8.935  -4.047   4.148  0.00  0.00    +0.110 C 
ATOM     26  C   UNL     1      -8.613  -3.442   5.519  0.00  0.00    +0.017 C 
ATOM     27  C   UNL     1      -9.896  -2.893   6.144  0.00  0.00    +0.003 C 
ATOM     28  C   UNL     1     -10.468  -1.788   5.252  0.00  0.00    +0.032 C 
ATOM     29  C   UNL     1     -10.809  -2.370   3.881  0.00  0.00    +0.192 C 
BRANCH  29  30
ATOM     30  C   UNL     1     -11.240  -1.260   2.957  0.00  0.00    +0.374 C 
ATOM     31  O   UNL     1     -10.603  -0.235   2.905  0.00  0.00    -0.245 OA
ATOM     32  O   UNL     1     -12.332  -1.411   2.191  0.00  0.00    -0.245 OA
ENDBRANCH  29  30
ENDBRANCH  21  24
ENDBRANCH   4  21
TORSDOF 7
