REMARK  Name = ZINC19019280
REMARK  9 active torsions:
REMARK  status: ('A' for Active; 'I' for Inactive)
REMARK    1  A    between atoms: C_1  and  C_2
REMARK    2  A    between atoms: C_2  and  C_3
REMARK    3  A    between atoms: C_3  and  C_33
REMARK    4  A    between atoms: N_6  and  N_10
REMARK    5  A    between atoms: C_11  and  C_13
REMARK    6  A    between atoms: C_13  and  S_14
REMARK    7  A    between atoms: S_14  and  C_15
REMARK    8  A    between atoms: N_25  and  C_26
REMARK    9  A    between atoms: C_26  and  C_27
REMARK                            x       y       z     vdW  Elec       q    Type
REMARK                         _______ _______ _______ _____ _____    ______ ____
ROOT
ATOM      1  C   UNL     1      -3.554   1.753   0.046  0.00  0.00    +0.173 A 
ATOM      2  N   UNL     1      -2.414   1.107   0.031  0.00  0.00    -0.223 NA
ATOM      3  C   UNL     1      -1.230   1.763   0.017  0.00  0.00    +0.080 A 
ATOM      4  C   UNL     1      -0.013   1.076   0.008  0.00  0.00    +0.048 A 
ATOM      5  C   UNL     1       1.168   1.786   0.001  0.00  0.00    +0.043 A 
ATOM      6  C   UNL     1       1.163   3.176   0.007  0.00  0.00    +0.021 A 
ATOM      7  C   UNL     1      -0.015   3.870   0.022  0.00  0.00    +0.017 A 
ATOM      8  C   UNL     1      -1.224   3.177   0.030  0.00  0.00    +0.065 A 
ATOM      9  C   UNL     1      -2.517   3.874   0.046  0.00  0.00    +0.263 A 
ATOM     10  O   UNL     1      -2.578   5.090   0.053  0.00  0.00    -0.267 OA
ATOM     11  N   UNL     1      -3.638   3.116   0.053  0.00  0.00    -0.280 N 
ATOM     12 CL   UNL     1       2.681   0.934  -0.018  0.00  0.00    -0.083 Cl
ENDROOT
BRANCH   1  13
ATOM     13  S   UNL     1      -5.048   0.820   0.056  0.00  0.00    -0.078 S 
BRANCH  13  14
ATOM     14  C   UNL     1      -4.370  -0.859   0.042  0.00  0.00    +0.174 C 
BRANCH  14  16
ATOM     15  N   UNL     1      -5.231  -3.178   0.040  0.00  0.00    -0.223 N 
ATOM     16  C   UNL     1      -5.499  -1.857   0.048  0.00  0.00    +0.240 C 
ATOM     17  O   UNL     1      -6.649  -1.471   0.062  0.00  0.00    -0.273 OA
ATOM     18  H   UNL     1      -4.312  -3.486   0.029  0.00  0.00    +0.174 HD
BRANCH  15  22
ATOM     19  C   UNL     1      -7.810  -5.685   0.666  0.00  0.00    +0.111 C 
ATOM     20  C   UNL     1      -6.643  -4.832   1.122  0.00  0.00    +0.263 C 
ATOM     21  O   UNL     1      -6.141  -4.807   2.225  0.00  0.00    -0.271 OA
ATOM     22  N   UNL     1      -6.281  -4.105   0.046  0.00  0.00    -0.137 N 
ATOM     23  C   UNL     1      -7.044  -4.384  -1.017  0.00  0.00    +0.326 C 
ATOM     24  O   UNL     1      -6.906  -3.858  -2.104  0.00  0.00    -0.251 OA
ATOM     25  N   UNL     1      -7.981  -5.311  -0.749  0.00  0.00    -0.284 N 
ATOM     26  C   UNL     1      -7.466  -7.171   0.791  0.00  0.00    +0.041 C 
ATOM     27  H   UNL     1      -8.641  -5.664  -1.366  0.00  0.00    +0.151 HD
BRANCH  19  29
ATOM     28  C   UNL     1     -10.251  -6.159   0.912  0.00  0.00    +0.006 C 
ATOM     29  C   UNL     1      -9.072  -5.357   1.466  0.00  0.00    +0.032 C 
ENDBRANCH  19  29
ENDBRANCH  15  22
ENDBRANCH  14  16
ENDBRANCH  13  14
ENDBRANCH   1  13
BRANCH  11  30
ATOM     30  C   UNL     1      -4.952   3.763   0.069  0.00  0.00    +0.201 C 
BRANCH  30  31
ATOM     31  C   UNL     1      -5.417   3.992  -1.346  0.00  0.00    +0.125 A 
ATOM     32  C   UNL     1      -6.136   3.130  -2.087  0.00  0.00    +0.046 A 
ATOM     33  C   UNL     1      -6.350   3.747  -3.341  0.00  0.00    +0.041 A 
ATOM     34  C   UNL     1      -5.741   4.946  -3.294  0.00  0.00    +0.195 A 
ATOM     35  O   UNL     1      -5.177   5.089  -2.084  0.00  0.00    -0.466 OA
ENDBRANCH  30  31
ENDBRANCH  11  30
TORSDOF 7
