REMARK  Name = ZINC35519538
REMARK  10 active torsions:
REMARK  status: ('A' for Active; 'I' for Inactive)
REMARK    1  A    between atoms: C_1  and  C_2
REMARK    2  A    between atoms: C_2  and  C_4
REMARK    3  A    between atoms: C_2  and  N_10
REMARK    4  A    between atoms: C_11  and  C_13
REMARK    5  A    between atoms: C_13  and  C_34
REMARK    6  A    between atoms: C_14  and  C_15
REMARK    7  A    between atoms: C_17  and  N_31
REMARK    8  A    between atoms: C_20  and  O_21
REMARK    9  A    between atoms: O_21  and  C_22
REMARK   10  A    between atoms: C_22  and  C_23
REMARK                            x       y       z     vdW  Elec       q    Type
REMARK                         _______ _______ _______ _____ _____    ______ ____
ROOT
ATOM      1  C   UNL     1       4.722  -1.741  -3.631  0.00  0.00    +0.020 A 
ATOM      2  C   UNL     1       3.946  -2.056  -4.756  0.00  0.00    +0.044 A 
ATOM      3  C   UNL     1       4.545  -2.588  -5.875  0.00  0.00    +0.127 A 
ATOM      4  C   UNL     1       5.913  -2.816  -5.896  0.00  0.00    +0.036 A 
ATOM      5  C   UNL     1       6.691  -2.512  -4.796  0.00  0.00    +0.048 A 
ATOM      6  C   UNL     1       6.109  -1.969  -3.661  0.00  0.00    +0.128 A 
ENDROOT
BRANCH   3   7
ATOM      7  N   UNL     1       3.725  -2.920  -7.062  0.00  0.00    +0.056 N 
ATOM      8  O   UNL     1       2.533  -2.723  -7.047  0.00  0.00    -0.126 OA
ATOM      9  O   UNL     1       4.248  -3.388  -8.046  0.00  0.00    -0.126 OA
ENDBRANCH   3   7
BRANCH   1  11
ATOM     10  C   UNL     1       2.999  -0.345  -2.562  0.00  0.00    +0.114 C 
ATOM     11  C   UNL     1       4.093  -1.174  -2.437  0.00  0.00    +0.035 C 
BRANCH  10  13
ATOM     12  N   UNL     1       1.207   0.916  -1.484  0.00  0.00    -0.304 N 
ATOM     13  C   UNL     1       2.277   0.105  -1.362  0.00  0.00    +0.255 C 
ATOM     14  O   UNL     1       2.645  -0.255  -0.260  0.00  0.00    -0.269 OA
ATOM     15  H   UNL     1       0.914   1.202  -2.363  0.00  0.00    +0.150 HD
BRANCH  12  17
ATOM     16  C   UNL     1       1.177   2.603   0.286  0.00  0.00    +0.033 C 
ATOM     17  C   UNL     1       0.488   1.364  -0.289  0.00  0.00    +0.100 C 
BRANCH  17  18
ATOM     18  C   UNL     1      -0.933   1.705  -0.656  0.00  0.00    -0.027 A 
ATOM     19  C   UNL     1      -1.202   2.358  -1.845  0.00  0.00    +0.005 A 
ATOM     20  C   UNL     1      -2.506   2.671  -2.182  0.00  0.00    +0.000 A 
ATOM     21  C   UNL     1      -3.540   2.331  -1.331  0.00  0.00    +0.000 A 
ATOM     22  C   UNL     1      -3.271   1.677  -0.143  0.00  0.00    +0.000 A 
ATOM     23  C   UNL     1      -1.968   1.361   0.192  0.00  0.00    +0.005 A 
ENDBRANCH  17  18
ENDBRANCH  12  17
ENDBRANCH  10  13
BRANCH  10  24
ATOM     24  C   UNL     1       2.566   0.078  -3.860  0.00  0.00    +0.104 C 
ATOM     25  N   UNL     1       2.222   0.413  -4.889  0.00  0.00    -0.191 NA
ENDBRANCH  10  24
ENDBRANCH   1  11
BRANCH   6  26
ATOM     26  O   UNL     1       6.873  -1.664  -2.583  0.00  0.00    -0.482 OA
BRANCH  26  27
ATOM     27  C   UNL     1       8.275  -1.923  -2.687  0.00  0.00    +0.325 C 
BRANCH  27  28
ATOM     28  C   UNL     1       8.956  -1.525  -1.403  0.00  0.00    +0.256 C 
ATOM     29  O   UNL     1       8.305  -1.065  -0.489  0.00  0.00    -0.272 OA
ATOM     30  N   UNL     1      10.288  -1.680  -1.270  0.00  0.00    -0.262 N 
ATOM     31  C   UNL     1      10.916  -1.313  -0.086  0.00  0.00    +0.164 A 
ATOM     32  N   UNL     1      10.377  -0.808   1.003  0.00  0.00    -0.233 NA
ATOM     33  C   UNL     1      11.117  -0.509   2.055  0.00  0.00    +0.120 A 
ATOM     34  C   UNL     1      12.448  -0.746   1.959  0.00  0.00    +0.068 A 
ATOM     35  S   UNL     1      12.550  -1.413   0.306  0.00  0.00    -0.061 S 
ATOM     36  H   UNL     1      10.809  -2.048  -2.001  0.00  0.00    +0.157 HD
ENDBRANCH  27  28
ENDBRANCH  26  27
ENDBRANCH   6  26
TORSDOF 9
