REMARK  Name = ZINC20873354
REMARK  10 active torsions:
REMARK  status: ('A' for Active; 'I' for Inactive)
REMARK    1  A    between atoms: C_3  and  N_11
REMARK    2  A    between atoms: C_6  and  N_7
REMARK    3  A    between atoms: N_11  and  C_12
REMARK    4  A    between atoms: C_12  and  C_13
REMARK    5  A    between atoms: C_13  and  N_14
REMARK    6  A    between atoms: N_14  and  C_15
REMARK    7  A    between atoms: C_15  and  C_16
REMARK    8  A    between atoms: C_21  and  O_22
REMARK    9  A    between atoms: O_22  and  C_23
REMARK   10  A    between atoms: C_23  and  C_24
REMARK                            x       y       z     vdW  Elec       q    Type
REMARK                         _______ _______ _______ _____ _____    ______ ____
ROOT
ATOM      1  N   UNL     1       2.981   3.999  -1.370  0.00  0.00    +0.383 N 
ATOM      2  H   UNL     1       2.240   4.490  -2.017  0.00  0.00    -0.085 HD
ATOM      3  H   UNL     1       3.151   2.971  -1.722  0.00  0.00    -0.085 HD
ENDROOT
BRANCH   1   4
ATOM      4  C   UNL     1       4.244   4.748  -1.417  0.00  0.00    -0.063 C 
BRANCH   4   5
ATOM      5  C   UNL     1       4.764   4.780  -2.856  0.00  0.00    +0.082 C 
BRANCH   5   6
ATOM      6  N   UNL     1       6.024   5.527  -2.903  0.00  0.00    -0.345 N 
ATOM      7  H   UNL     1       6.443   5.957  -1.981  0.00  0.00    +0.146 HD
BRANCH   6  10
ATOM      8  C   UNL     1       6.830   5.314  -6.482  0.00  0.00    +0.034 A 
ATOM      9  C   UNL     1       6.166   5.149  -5.282  0.00  0.00    +0.026 A 
ATOM     10  C   UNL     1       6.693   5.692  -4.118  0.00  0.00    +0.046 A 
ATOM     11  C   UNL     1       7.886   6.405  -4.166  0.00  0.00    +0.064 A 
ATOM     12  C   UNL     1       8.547   6.562  -5.369  0.00  0.00    +0.054 A 
ATOM     13  C   UNL     1       8.019   6.019  -6.526  0.00  0.00    +0.128 A 
ATOM     14 CL   UNL     1       8.546   7.092  -2.715  0.00  0.00    -0.082 Cl
BRANCH  13  15
ATOM     15  N   UNL     1       8.727   6.194  -7.814  0.00  0.00    +0.056 N 
ATOM     16  O   UNL     1       8.263   5.717  -8.834  0.00  0.00    -0.126 OA
ATOM     17  O   UNL     1       9.775   6.814  -7.853  0.00  0.00    -0.126 OA
ENDBRANCH  13  15
ENDBRANCH   6  10
ENDBRANCH   5   6
ENDBRANCH   4   5
ENDBRANCH   1   4
BRANCH   1  18
ATOM     18  C   UNL     1       2.451   3.947  -0.001  0.00  0.00    -0.043 C 
BRANCH  18  19
ATOM     19  C   UNL     1       1.158   3.173   0.008  0.00  0.00    -0.021 A 
ATOM     20  C   UNL     1      -0.050   3.844   0.022  0.00  0.00    +0.025 A 
ATOM     21  C   UNL     1      -1.237   3.134   0.030  0.00  0.00    +0.041 A 
ATOM     22  C   UNL     1      -1.218   1.751   0.017  0.00  0.00    +0.023 A 
ATOM     23  C   UNL     1      -0.013   1.076   0.008  0.00  0.00    +0.047 A 
ATOM     24  C   UNL     1       1.179   1.786   0.000  0.00  0.00    +0.123 A 
ATOM     25 CL   UNL     1      -2.753   3.980   0.048  0.00  0.00    -0.084 Cl
BRANCH  24  26
ATOM     26  O   UNL     1       2.366   1.124  -0.015  0.00  0.00    -0.483 OA
BRANCH  26  27
ATOM     27  C   UNL     1       2.312  -0.304  -0.022  0.00  0.00    +0.324 C 
BRANCH  27  28
ATOM     28  C   UNL     1       3.713  -0.859  -0.038  0.00  0.00    +0.248 C 
ATOM     29  O   UNL     1       4.664  -0.106  -0.043  0.00  0.00    -0.272 OA
ATOM     30  N   UNL     1       3.909  -2.193  -0.047  0.00  0.00    -0.327 N 
ATOM     31  H   UNL     1       4.932  -2.598  -0.059  0.00  0.00    +0.145 HD
ATOM     32  H   UNL     1       3.047  -2.876  -0.043  0.00  0.00    +0.145 HD
ENDBRANCH  27  28
ENDBRANCH  26  27
ENDBRANCH  24  26
ENDBRANCH  18  19
ENDBRANCH   1  18
TORSDOF 10
