REMARK  Name = ZINC13204512
REMARK  7 active torsions:
REMARK  status: ('A' for Active; 'I' for Inactive)
REMARK    1  A    between atoms: C_3  and  C_6
REMARK    2  A    between atoms: C_9  and  S_14
REMARK    3  A    between atoms: N_10  and  C_11
REMARK    4  A    between atoms: C_11  and  C_12
REMARK    5  A    between atoms: S_14  and  C_15
REMARK    6  A    between atoms: C_15  and  C_16
REMARK    7  A    between atoms: N_21  and  C_22
REMARK                            x       y       z     vdW  Elec       q    Type
REMARK                         _______ _______ _______ _____ _____    ______ ____
ROOT
ATOM      1  C   UNL     1       2.726   9.585  -0.048  0.00  0.00    +0.173 C 
ENDROOT
BRANCH   1   2
ATOM      2  C   UNL     1       3.728  10.700  -0.198  0.00  0.00    +0.231 C 
ATOM      3  O   UNL     1       4.871  10.449  -0.514  0.00  0.00    -0.274 OA
ATOM      4  N   UNL     1       3.354  11.976   0.019  0.00  0.00    -0.239 N 
ATOM      5  C   UNL     1       4.250  12.974  -0.115  0.00  0.00    +0.310 C 
ATOM      6  O   UNL     1       5.396  12.722  -0.431  0.00  0.00    -0.252 OA
ATOM      7  N   UNL     1       3.876  14.250   0.103  0.00  0.00    -0.269 N 
ATOM      8  H   UNL     1       2.439  12.177   0.272  0.00  0.00    +0.159 HD
ATOM      9  H   UNL     1       2.947  14.458   0.290  0.00  0.00    +0.156 HD
BRANCH   7  10
ATOM     10  C   UNL     1       4.827  15.276   0.059  0.00  0.00    +0.035 A 
ATOM     11  C   UNL     1       4.714  16.367   0.910  0.00  0.00    +0.024 A 
ATOM     12  C   UNL     1       5.657  17.375   0.868  0.00  0.00    +0.017 A 
ATOM     13  C   UNL     1       6.708  17.304  -0.029  0.00  0.00    +0.018 A 
ATOM     14  C   UNL     1       6.821  16.220  -0.882  0.00  0.00    +0.017 A 
ATOM     15  C   UNL     1       5.884  15.207  -0.840  0.00  0.00    +0.024 A 
ATOM     16 BR   UNL     1       7.993  18.690  -0.089  0.00  0.00    -0.050 Br
ENDBRANCH   7  10
ENDBRANCH   1   2
BRANCH   1  17
ATOM     17  S   UNL     1       3.527   8.001  -0.404  0.00  0.00    -0.077 S 
BRANCH  17  21
ATOM     18  C   UNL     1       0.905   5.129  -0.009  0.00  0.00    +0.172 A 
ATOM     19  N   UNL     1       0.203   6.205   0.273  0.00  0.00    -0.128 NA
ATOM     20  N   UNL     1       0.946   7.249   0.183  0.00  0.00    -0.122 NA
ATOM     21  C   UNL     1       2.167   6.908  -0.161  0.00  0.00    +0.193 A 
ATOM     22  N   UNL     1       2.187   5.547  -0.290  0.00  0.00    -0.291 N 
BRANCH  18  25
ATOM     23  C   UNL     1      -1.092   1.920  -0.030  0.00  0.00    +0.008 A 
ATOM     24  C   UNL     1      -0.876   3.280  -0.016  0.00  0.00    +0.019 A 
ATOM     25  C   UNL     1       0.416   3.741  -0.016  0.00  0.00    +0.056 A 
ATOM     26  S   UNL     1       1.349   2.219  -0.027  0.00  0.00    -0.094 S 
ATOM     27  C   UNL     1      -0.025   1.080  -0.031  0.00  0.00    +0.046 A 
ENDBRANCH  18  25
BRANCH  22  28
ATOM     28  C   UNL     1       3.332   4.709  -0.654  0.00  0.00    +0.250 C 
BRANCH  28  29
ATOM     29  C   UNL     1       3.381   4.551  -2.152  0.00  0.00    +0.375 C 
ATOM     30  O   UNL     1       2.546   5.083  -2.844  0.00  0.00    -0.244 OA
ATOM     31  O   UNL     1       4.353   3.818  -2.718  0.00  0.00    -0.244 OA
ENDBRANCH  28  29
ENDBRANCH  22  28
ENDBRANCH  17  21
ENDBRANCH   1  17
TORSDOF 7
