REMARK  Name = ZINC40946850
REMARK  11 active torsions:
REMARK  status: ('A' for Active; 'I' for Inactive)
REMARK    1  A    between atoms: C_1  and  C_2
REMARK    2  A    between atoms: C_2  and  C_3
REMARK    3  A    between atoms: C_3  and  C_4
REMARK    4  A    between atoms: C_4  and  N_5
REMARK    5  A    between atoms: C_6  and  C_8
REMARK    6  A    between atoms: C_8  and  N_9
REMARK    7  A    between atoms: C_15  and  C_17
REMARK    8  A    between atoms: N_20  and  C_23
REMARK    9  A    between atoms: C_23  and  C_24
REMARK   10  A    between atoms: C_27  and  C_29
REMARK   11  A    between atoms: C_32  and  C_35
REMARK                            x       y       z     vdW  Elec       q    Type
REMARK                         _______ _______ _______ _____ _____    ______ ____
ROOT
ATOM      1  C   UNL     1       4.651  -9.928   5.412  0.00  0.00    +0.072 C 
ATOM      2  C   UNL     1       5.189  -8.759   6.242  0.00  0.00    -0.006 C 
ATOM      3  C   UNL     1       5.683  -9.284   7.591  0.00  0.00    -0.077 C 
ATOM      4  N   UNL     1       6.752 -10.266   7.377  0.00  0.00    +0.386 N 
ATOM      5  C   UNL     1       6.225 -11.423   6.644  0.00  0.00    -0.077 C 
ATOM      6  C   UNL     1       5.752 -10.981   5.258  0.00  0.00    -0.006 C 
ATOM      7  H   UNL     1       7.496  -9.841   6.844  0.00  0.00    -0.081 HD
ENDROOT
BRANCH   1  14
ATOM      8  N   UNL     1       0.313  -8.647   3.273  0.00  0.00    -0.291 NA
ATOM      9  C   UNL     1       0.716  -9.368   4.488  0.00  0.00    +0.104 C 
ATOM     10  C   UNL     1       2.054  -8.812   4.987  0.00  0.00    +0.123 C 
ATOM     11  N   UNL     1       3.023  -8.865   3.882  0.00  0.00    -0.299 N 
ATOM     12  C   UNL     1       2.636  -8.284   2.588  0.00  0.00    +0.123 C 
ATOM     13  C   UNL     1       1.275  -8.860   2.183  0.00  0.00    +0.104 C 
ATOM     14  C   UNL     1       4.234  -9.431   4.051  0.00  0.00    +0.219 C 
ATOM     15  O   UNL     1       4.990  -9.541   3.108  0.00  0.00    -0.275 OA
BRANCH   8  16
ATOM     16  C   UNL     1      -1.044  -9.030   2.859  0.00  0.00    +0.180 C 
BRANCH  16  18
ATOM     17  N   UNL     1      -3.349  -8.817   3.732  0.00  0.00    -0.314 N 
ATOM     18  C   UNL     1      -2.034  -8.574   3.900  0.00  0.00    +0.227 C 
ATOM     19  O   UNL     1      -1.647  -7.988   4.889  0.00  0.00    -0.274 OA
ATOM     20  H   UNL     1      -3.658  -9.286   2.941  0.00  0.00    +0.149 HD
BRANCH  17  21
ATOM     21  C   UNL     1      -4.311  -8.374   4.744  0.00  0.00    +0.104 C 
BRANCH  21  22
ATOM     22  C   UNL     1      -5.724  -8.772   4.314  0.00  0.00    +0.018 C 
BRANCH  22  24
ATOM     23  C   UNL     1      -8.142  -8.707   4.940  0.00  0.00    +0.004 C 
ATOM     24  C   UNL     1      -6.728  -8.309   5.370  0.00  0.00    -0.002 C 
ENDBRANCH  22  24
ENDBRANCH  21  22
ENDBRANCH  17  21
ENDBRANCH  16  18
ENDBRANCH   8  16
ENDBRANCH   1  14
BRANCH   4  25
ATOM     25  C   UNL     1       7.276 -10.709   8.676  0.00  0.00    +0.021 C 
BRANCH  25  26
ATOM     26  C   UNL     1       8.454 -11.623   8.458  0.00  0.00    +0.202 A 
ATOM     27  N   UNL     1       9.704 -11.261   8.373  0.00  0.00    -0.114 NA
ATOM     28  N   UNL     1      10.440 -12.300   8.186  0.00  0.00    -0.107 NA
ATOM     29  C   UNL     1       9.679 -13.368   8.144  0.00  0.00    +0.248 A 
ATOM     30  O   UNL     1       8.406 -12.959   8.321  0.00  0.00    -0.422 OA
BRANCH  29  31
ATOM     31  C   UNL     1      10.133 -14.761   7.946  0.00  0.00    +0.038 A 
ATOM     32  C   UNL     1       9.205 -15.803   7.918  0.00  0.00    +0.013 A 
ATOM     33  C   UNL     1       9.635 -17.101   7.732  0.00  0.00    +0.004 A 
ATOM     34  C   UNL     1      10.983 -17.370   7.574  0.00  0.00    -0.050 A 
ATOM     35  C   UNL     1      11.908 -16.341   7.602  0.00  0.00    +0.004 A 
ATOM     36  C   UNL     1      11.491 -15.039   7.781  0.00  0.00    +0.013 A 
ATOM     37  C   UNL     1      11.446 -18.790   7.372  0.00  0.00    +0.044 C 
ENDBRANCH  29  31
ENDBRANCH  25  26
ENDBRANCH   4  25
TORSDOF 9
