REMARK  Name = ZINC17322939
REMARK  8 active torsions:
REMARK  status: ('A' for Active; 'I' for Inactive)
REMARK    1  A    between atoms: C_1  and  C_2
REMARK    2  A    between atoms: C_2  and  C_4
REMARK    3  A    between atoms: C_2  and  N_10
REMARK    4  A    between atoms: C_11  and  C_13
REMARK    5  A    between atoms: C_16  and  O_19
REMARK    6  A    between atoms: O_19  and  S_20
REMARK    7  A    between atoms: S_20  and  C_23
REMARK    8  A    between atoms: C_27  and  N_29
REMARK                            x       y       z     vdW  Elec       q    Type
REMARK                         _______ _______ _______ _____ _____    ______ ____
ROOT
ATOM      1  C   UNL     1      -3.748   5.582  -3.280  0.00  0.00    +0.037 A 
ATOM      2  C   UNL     1      -3.453   6.773  -2.611  0.00  0.00    +0.017 A 
ATOM      3  C   UNL     1      -2.232   6.928  -1.992  0.00  0.00    +0.049 A 
ATOM      4  C   UNL     1      -1.295   5.902  -2.032  0.00  0.00    +0.157 A 
ATOM      5  C   UNL     1      -1.583   4.719  -2.702  0.00  0.00    +0.049 A 
ATOM      6  C   UNL     1      -2.803   4.554  -3.319  0.00  0.00    +0.017 A 
ENDROOT
BRANCH   1   8
ATOM      7  N   UNL     1      -5.338   4.263  -4.590  0.00  0.00    -0.305 N 
ATOM      8  C   UNL     1      -5.055   5.412  -3.945  0.00  0.00    +0.245 C 
ATOM      9  O   UNL     1      -5.876   6.308  -3.911  0.00  0.00    -0.270 OA
ATOM     10  H   UNL     1      -4.683   3.548  -4.618  0.00  0.00    +0.150 HD
BRANCH   7  12
ATOM     11  C   UNL     1      -6.574   4.696  -6.655  0.00  0.00    +0.033 C 
ATOM     12  C   UNL     1      -6.635   4.094  -5.250  0.00  0.00    +0.100 C 
BRANCH  12  13
ATOM     13  C   UNL     1      -6.962   2.626  -5.347  0.00  0.00    -0.027 A 
ATOM     14  C   UNL     1      -5.970   1.716  -5.663  0.00  0.00    +0.005 A 
ATOM     15  C   UNL     1      -6.269   0.369  -5.747  0.00  0.00    +0.000 A 
ATOM     16  C   UNL     1      -7.561  -0.067  -5.524  0.00  0.00    +0.000 A 
ATOM     17  C   UNL     1      -8.554   0.843  -5.214  0.00  0.00    +0.000 A 
ATOM     18  C   UNL     1      -8.255   2.189  -5.125  0.00  0.00    +0.005 A 
ENDBRANCH  12  13
ENDBRANCH   7  12
ENDBRANCH   1   8
BRANCH   4  19
ATOM     19  O   UNL     1      -0.094   6.059  -1.421  0.00  0.00    -0.342 OA
BRANCH  19  20
ATOM     20  S   UNL     1      -0.074   5.602   0.031  0.00  0.00    +0.151 S 
ATOM     21  O   UNL     1      -1.319   5.989   0.596  0.00  0.00    -0.131 OA
ATOM     22  O   UNL     1       1.171   6.022   0.572  0.00  0.00    -0.131 OA
BRANCH  20  23
ATOM     23  C   UNL     1      -0.050   3.840   0.022  0.00  0.00    +0.130 A 
ATOM     24  C   UNL     1       1.157   3.165   0.008  0.00  0.00    +0.031 A 
ATOM     25  C   UNL     1       1.175   1.783   0.000  0.00  0.00    +0.004 A 
ATOM     26  C   UNL     1      -0.013   1.076   0.008  0.00  0.00    +0.033 A 
ATOM     27  C   UNL     1      -1.219   1.750   0.017  0.00  0.00    +0.128 A 
ATOM     28  C   UNL     1      -1.238   3.133   0.030  0.00  0.00    +0.063 A 
BRANCH  27  29
ATOM     29  N   UNL     1      -2.490   0.993   0.019  0.00  0.00    +0.056 N 
ATOM     30  O   UNL     1      -2.474  -0.225   0.013  0.00  0.00    -0.126 OA
ATOM     31  O   UNL     1      -3.554   1.588   0.028  0.00  0.00    -0.126 OA
ENDBRANCH  27  29
ENDBRANCH  20  23
ENDBRANCH  19  20
ENDBRANCH   4  19
TORSDOF 7
