REMARK  Name = ZINC22520724
REMARK  11 active torsions:
REMARK  status: ('A' for Active; 'I' for Inactive)
REMARK    1  A    between atoms: C_1  and  C_2
REMARK    2  A    between atoms: C_2  and  O_3
REMARK    3  A    between atoms: O_3  and  C_4
REMARK    4  A    between atoms: C_4  and  C_6
REMARK    5  A    between atoms: C_7  and  C_30
REMARK    6  A    between atoms: C_11  and  N_29
REMARK    7  A    between atoms: C_13  and  C_15
REMARK    8  A    between atoms: C_15  and  S_16
REMARK    9  A    between atoms: S_16  and  C_17
REMARK   10  A    between atoms: N_22  and  C_23
REMARK   11  A    between atoms: C_26  and  C_28
REMARK                            x       y       z     vdW  Elec       q    Type
REMARK                         _______ _______ _______ _____ _____    ______ ____
ROOT
ATOM      1  C   UNL     1      -6.948  -2.314  10.639  0.00  0.00    +0.112 A 
ATOM      2  C   UNL     1      -6.034  -1.757  11.482  0.00  0.00    +0.119 A 
ATOM      3  O   UNL     1      -4.987  -1.306  10.779  0.00  0.00    -0.441 OA
ATOM      4  C   UNL     1      -5.143  -1.532   9.463  0.00  0.00    +0.233 A 
ATOM      5  C   UNL     1      -6.377  -2.176   9.288  0.00  0.00    +0.094 A 
ATOM      6  C   UNL     1      -6.781  -2.525   7.995  0.00  0.00    +0.131 A 
ATOM      7  N   UNL     1      -5.973  -2.230   6.980  0.00  0.00    -0.216 NA
ATOM      8  C   UNL     1      -4.820  -1.623   7.187  0.00  0.00    +0.145 A 
ATOM      9  N   UNL     1      -4.401  -1.282   8.387  0.00  0.00    -0.196 NA
ATOM     10  C   UNL     1      -6.179  -1.664  12.979  0.00  0.00    +0.087 C 
ENDROOT
BRANCH   6  11
ATOM     11  N   UNL     1      -7.991  -3.161   7.778  0.00  0.00    -0.342 N 
ATOM     12  H   UNL     1      -8.295  -3.430   6.756  0.00  0.00    +0.144 HD
ATOM     13  H   UNL     1      -8.648  -3.398   8.628  0.00  0.00    +0.144 HD
ENDBRANCH   6  11
BRANCH   1  14
ATOM     14  C   UNL     1      -8.235  -2.924  11.002  0.00  0.00    +0.343 C 
ATOM     15  O   UNL     1      -8.294  -4.112  11.256  0.00  0.00    -0.245 OA
BRANCH  14  16
ATOM     16  O   UNL     1      -9.349  -2.167  11.053  0.00  0.00    -0.461 OA
BRANCH  16  18
ATOM     17  C   UNL     1     -11.731  -1.824  11.423  0.00  0.00    +0.048 C 
ATOM     18  C   UNL     1     -10.584  -2.837  11.418  0.00  0.00    +0.229 C 
ENDBRANCH  16  18
ENDBRANCH  14  16
ENDBRANCH   1  14
BRANCH   8  19
ATOM     19  C   UNL     1      -3.943  -1.313   6.001  0.00  0.00    +0.152 C 
BRANCH  19  20
ATOM     20  S   UNL     1      -4.360   0.330   5.354  0.00  0.00    -0.089 S 
BRANCH  20  21
ATOM     21  C   UNL     1      -3.264   0.542   3.991  0.00  0.00    +0.160 A 
ATOM     22  N   UNL     1      -2.336  -0.272   3.509  0.00  0.00    -0.133 NA
ATOM     23  N   UNL     1      -1.629   0.038   2.512  0.00  0.00    -0.125 NA
ATOM     24  C   UNL     1      -1.770   1.195   1.886  0.00  0.00    +0.191 A 
ATOM     25  S   UNL     1      -3.080   1.923   2.866  0.00  0.00    -0.024 S 
ATOM     26  N   UNL     1      -1.088   1.705   0.783  0.00  0.00    -0.246 N 
ATOM     27  C   UNL     1      -1.511   2.842   0.197  0.00  0.00    +0.218 C 
ATOM     28  O   UNL     1      -0.917   3.286  -0.763  0.00  0.00    -0.275 OA
ATOM     29  C   UNL     1      -2.721   3.562   0.733  0.00  0.00    +0.110 C 
BRANCH  26  30
ATOM     30  C   UNL     1       0.088   1.005   0.261  0.00  0.00    +0.084 C 
ATOM     31  C   UNL     1       0.559   1.367  -1.149  0.00  0.00    +0.025 C 
ATOM     32  C   UNL     1       1.368   1.820   0.068  0.00  0.00    +0.025 C 
ENDBRANCH  26  30
ENDBRANCH  20  21
ENDBRANCH  19  20
ENDBRANCH   8  19
TORSDOF 8
