REMARK  Name = ZINC02648355
REMARK  5 active torsions:
REMARK  status: ('A' for Active; 'I' for Inactive)
REMARK    1  A    between atoms: C_1  and  C_2
REMARK    2  A    between atoms: C_2  and  C_4
REMARK    3  A    between atoms: C_2  and  C_13
REMARK    4  A    between atoms: C_7  and  N_10
REMARK    5  A    between atoms: N_15  and  C_16
REMARK                            x       y       z     vdW  Elec       q    Type
REMARK                         _______ _______ _______ _____ _____    ______ ____
ROOT
ATOM      1  C   UNL     1       2.338   5.235  -0.093  0.00  0.00    +0.224 C 
ATOM      2  O   UNL     1       1.280   5.828  -0.081  0.00  0.00    -0.275 OA
ATOM      3  N   UNL     1       2.357   3.890   0.001  0.00  0.00    -0.284 N 
ATOM      4  H   UNL     1       3.203   3.421   0.072  0.00  0.00    +0.155 HD
ENDROOT
BRANCH   3   5
ATOM      5  C   UNL     1       1.156   3.171  -0.003  0.00  0.00    +0.053 A 
ATOM      6  C   UNL     1       0.024   3.711  -0.598  0.00  0.00    +0.044 A 
ATOM      7  C   UNL     1      -1.161   2.999  -0.600  0.00  0.00    +0.043 A 
ATOM      8  C   UNL     1      -1.217   1.746  -0.015  0.00  0.00    +0.021 A 
ATOM      9  C   UNL     1      -0.093   1.208   0.583  0.00  0.00    +0.023 A 
ATOM     10  C   UNL     1       1.095   1.915   0.589  0.00  0.00    +0.062 A 
ATOM     11 CL   UNL     1       2.508   1.236   1.334  0.00  0.00    -0.082 Cl
ATOM     12 CL   UNL     1      -2.577   3.673  -1.343  0.00  0.00    -0.083 Cl
ENDBRANCH   3   5
BRANCH   1  14
ATOM     13  C   UNL     1       4.372   5.552  -1.475  0.00  0.00    +0.022 C 
ATOM     14  C   UNL     1       3.630   6.000  -0.215  0.00  0.00    +0.102 C 
BRANCH  14  15
ATOM     15  C   UNL     1       3.334   7.475  -0.304  0.00  0.00    -0.036 A 
ATOM     16  C   UNL     1       2.563   7.964  -1.342  0.00  0.00    +0.006 A 
ATOM     17  C   UNL     1       2.288   9.316  -1.421  0.00  0.00    +0.033 A 
ATOM     18  C   UNL     1       2.791  10.181  -0.468  0.00  0.00    +0.126 A 
ATOM     19  C   UNL     1       3.567   9.693   0.567  0.00  0.00    +0.033 A 
ATOM     20  C   UNL     1       3.838   8.340   0.649  0.00  0.00    +0.006 A 
BRANCH  18  21
ATOM     21  N   UNL     1       2.500  11.630  -0.555  0.00  0.00    +0.056 N 
ATOM     22  O   UNL     1       2.944  12.392   0.284  0.00  0.00    -0.126 OA
ATOM     23  O   UNL     1       1.817  12.059  -1.468  0.00  0.00    -0.126 OA
ENDBRANCH  18  21
ENDBRANCH  14  15
ENDBRANCH   1  14
TORSDOF 4
