REMARK  Name = ZINC59038834
REMARK  11 active torsions:
REMARK  status: ('A' for Active; 'I' for Inactive)
REMARK    1  A    between atoms: C_1  and  C_2
REMARK    2  A    between atoms: C_2  and  O_3
REMARK    3  A    between atoms: O_3  and  C_4
REMARK    4  A    between atoms: C_4  and  C_6
REMARK    5  A    between atoms: C_10  and  N_11
REMARK    6  A    between atoms: C_12  and  C_14
REMARK    7  A    between atoms: C_14  and  S_15
REMARK    8  A    between atoms: S_15  and  C_16
REMARK    9  A    between atoms: N_21  and  N_22
REMARK   10  A    between atoms: C_23  and  C_24
REMARK   11  A    between atoms: C_23  and  C_25
REMARK                            x       y       z     vdW  Elec       q    Type
REMARK                         _______ _______ _______ _____ _____    ______ ____
ROOT
ATOM      1  N   UNL     1      -0.604  -2.455  -3.925  0.00  0.00    -0.279 N 
ATOM      2  C   UNL     1      -1.119  -2.783  -5.126  0.00  0.00    +0.228 C 
ATOM      3  O   UNL     1      -0.397  -3.225  -5.995  0.00  0.00    -0.275 OA
ATOM      4  H   UNL     1      -1.181  -2.102  -3.230  0.00  0.00    +0.155 HD
ENDROOT
BRANCH   1   9
ATOM      5  C   UNL     1       1.449  -2.344  -2.516  0.00  0.00    +0.091 A 
ATOM      6  C   UNL     1       2.876  -2.619  -2.515  0.00  0.00    -0.021 A 
ATOM      7  C   UNL     1       3.343  -3.117  -3.680  0.00  0.00    -0.004 A 
ATOM      8  S   UNL     1       1.922  -3.212  -4.730  0.00  0.00    -0.077 S 
ATOM      9  C   UNL     1       0.750  -2.624  -3.681  0.00  0.00    +0.086 A 
ATOM     10  C   UNL     1       4.757  -3.498  -3.993  0.00  0.00    +0.043 C 
ATOM     11  C   UNL     1       5.669  -2.887  -2.920  0.00  0.00    +0.005 C 
ATOM     12  C   UNL     1       5.082  -3.191  -1.538  0.00  0.00    +0.005 C 
ATOM     13  C   UNL     1       3.799  -2.383  -1.329  0.00  0.00    +0.037 C 
BRANCH   5  14
ATOM     14  C   UNL     1       0.776  -1.800  -1.335  0.00  0.00    +0.342 C 
ATOM     15  O   UNL     1       0.312  -2.552  -0.499  0.00  0.00    -0.245 OA
BRANCH  14  16
ATOM     16  O   UNL     1       0.671  -0.465  -1.174  0.00  0.00    -0.461 OA
BRANCH  16  18
ATOM     17  C   UNL     1      -0.019   1.526   0.010  0.00  0.00    +0.048 C 
ATOM     18  C   UNL     1       0.002  -0.004   0.002  0.00  0.00    +0.229 C 
ENDBRANCH  16  18
ENDBRANCH  14  16
ENDBRANCH   5  14
ENDBRANCH   1   9
BRANCH   2  19
ATOM     19  C   UNL     1      -2.591  -2.599  -5.391  0.00  0.00    +0.173 C 
BRANCH  19  20
ATOM     20  S   UNL     1      -2.971  -3.126  -7.085  0.00  0.00    -0.075 S 
BRANCH  20  21
ATOM     21  C   UNL     1      -4.705  -2.853  -7.236  0.00  0.00    +0.211 A 
ATOM     22  N   UNL     1      -5.439  -3.106  -8.326  0.00  0.00    -0.186 NA
ATOM     23  C   UNL     1      -6.696  -2.787  -8.097  0.00  0.00    +0.232 A 
ATOM     24  N   UNL     1      -6.783  -2.317  -6.834  0.00  0.00    -0.245 N 
ATOM     25  N   UNL     1      -5.487  -2.376  -6.297  0.00  0.00    -0.144 NA
ATOM     26  N   UNL     1      -7.741  -2.910  -8.992  0.00  0.00    -0.205 N 
ATOM     27  H   UNL     1      -8.638  -2.647  -8.730  0.00  0.00    +0.177 HD
ATOM     28  H   UNL     1      -7.584  -2.005  -6.384  0.00  0.00    +0.192 HD
BRANCH  26  29
ATOM     29  N   UNL     1      -7.507  -3.415 -10.278  0.00  0.00    -0.184 NA
ATOM     30  C   UNL     1      -8.491  -3.531 -11.120  0.00  0.00    +0.070 C 
ATOM     31  C   UNL     1      -9.883  -3.122 -10.713  0.00  0.00    +0.068 C 
BRANCH  30  32
ATOM     32  C   UNL     1      -8.246  -4.059 -12.467  0.00  0.00    +0.035 A 
ATOM     33  C   UNL     1      -7.058  -4.492 -13.031  0.00  0.00    +0.017 A 
ATOM     34  C   UNL     1      -7.081  -4.951 -14.328  0.00  0.00    +0.008 A 
ATOM     35  C   UNL     1      -8.256  -4.966 -15.008  0.00  0.00    +0.046 A 
ATOM     36  S   UNL     1      -9.402  -4.320 -13.802  0.00  0.00    -0.095 S 
ENDBRANCH  30  32
ENDBRANCH  26  29
ENDBRANCH  20  21
ENDBRANCH  19  20
ENDBRANCH   2  19
TORSDOF 9
