REMARK  Name = ZINC59518689
REMARK  6 active torsions:
REMARK  status: ('A' for Active; 'I' for Inactive)
REMARK    1  A    between atoms: C_1  and  O_2
REMARK    2  A    between atoms: O_2  and  C_3
REMARK    3  A    between atoms: C_5  and  C_10
REMARK    4  A    between atoms: C_8  and  O_9
REMARK    5  A    between atoms: N_11  and  C_12
REMARK    6  A    between atoms: C_16  and  N_18
REMARK                            x       y       z     vdW  Elec       q    Type
REMARK                         _______ _______ _______ _____ _____    ______ ____
ROOT
ATOM      1  C   UNL     1      -4.853   0.222   0.038  0.00  0.00    +0.119 C 
ATOM      2  N   UNL     1      -6.004  -0.391   0.045  0.00  0.00    -0.255 NA
ENDROOT
BRANCH   2   3
ATOM      3  C   UNL     1      -7.165   0.334   0.055  0.00  0.00    +0.066 A 
ATOM      4  C   UNL     1      -7.299   1.432   0.908  0.00  0.00    +0.029 A 
ATOM      5  C   UNL     1      -8.472   2.158   0.912  0.00  0.00    +0.024 A 
ATOM      6  C   UNL     1      -9.514   1.801   0.074  0.00  0.00    +0.071 A 
ATOM      7  C   UNL     1      -9.388   0.713  -0.774  0.00  0.00    +0.146 A 
ATOM      8  C   UNL     1      -8.218  -0.018  -0.792  0.00  0.00    +0.062 A 
ATOM      9 CL   UNL     1     -10.987   2.720   0.086  0.00  0.00    -0.081 Cl
BRANCH   7  10
ATOM     10  N   UNL     1     -10.507   0.338  -1.666  0.00  0.00    +0.058 N 
ATOM     11  O   UNL     1     -10.398  -0.611  -2.407  0.00  0.00    -0.126 OA
ATOM     12  O   UNL     1     -11.531   0.981  -1.654  0.00  0.00    -0.126 OA
ENDBRANCH   7  10
ENDBRANCH   2   3
BRANCH   1  15
ATOM     13  C   UNL     1      -1.201  -0.638   0.010  0.00  0.00    +0.162 A 
ATOM     14  C   UNL     1      -2.369   0.099   0.019  0.00  0.00    +0.058 A 
ATOM     15  C   UNL     1      -3.606  -0.557   0.027  0.00  0.00    -0.003 A 
ATOM     16  C   UNL     1      -3.651  -1.955   0.026  0.00  0.00    +0.013 A 
ATOM     17  C   UNL     1      -2.481  -2.682   0.016  0.00  0.00    +0.050 A 
ATOM     18  C   UNL     1      -1.255  -2.031   0.003  0.00  0.00    +0.158 A 
BRANCH  13  20
ATOM     19  C   UNL     1      -0.017   1.425   0.010  0.00  0.00    +0.277 C 
ATOM     20  O   UNL     1       0.002  -0.004   0.002  0.00  0.00    -0.491 OA
ENDBRANCH  13  20
BRANCH  18  21
ATOM     21  O   UNL     1      -0.104  -2.753  -0.011  0.00  0.00    -0.503 OA
ATOM     22  H   UNL     1       0.237  -2.967   0.868  0.00  0.00    +0.292 HD
ENDBRANCH  18  21
ENDBRANCH   1  15
TORSDOF 5
