REMARK  Name = ZINC59261799
REMARK  13 active torsions:
REMARK  status: ('A' for Active; 'I' for Inactive)
REMARK    1  A    between atoms: C_1  and  C_2
REMARK    2  A    between atoms: C_2  and  N_3
REMARK    3  A    between atoms: C_5  and  C_8
REMARK    4  A    between atoms: N_9  and  N_10
REMARK    5  A    between atoms: C_11  and  C_13
REMARK    6  A    between atoms: C_13  and  C_15
REMARK    7  A    between atoms: C_13  and  S_16
REMARK    8  A    between atoms: S_16  and  C_17
REMARK    9  A    between atoms: C_20  and  C_25
REMARK   10  A    between atoms: N_21  and  C_22
REMARK   11  A    between atoms: C_22  and  C_23
REMARK   12  A    between atoms: C_25  and  N_26
REMARK   13  A    between atoms: N_26  and  C_27
REMARK                            x       y       z     vdW  Elec       q    Type
REMARK                         _______ _______ _______ _____ _____    ______ ____
ROOT
ATOM      1  C   UNL     1       4.368  -5.851  10.155  0.00  0.00    +0.193 A 
ATOM      2  N   UNL     1       3.208  -6.310  10.563  0.00  0.00    -0.122 NA
ATOM      3  N   UNL     1       3.382  -7.133  11.535  0.00  0.00    -0.132 NA
ATOM      4  C   UNL     1       4.652  -7.247  11.803  0.00  0.00    +0.152 A 
ATOM      5  N   UNL     1       5.326  -6.440  10.929  0.00  0.00    -0.301 N 
ENDROOT
BRANCH   1   6
ATOM      6  S   UNL     1       4.638  -4.700   8.848  0.00  0.00    -0.073 S 
BRANCH   6   7
ATOM      7  C   UNL     1       2.970  -4.320   8.246  0.00  0.00    +0.139 C 
ATOM      8  C   UNL     1       2.182  -3.605   9.345  0.00  0.00    +0.029 C 
BRANCH   7  10
ATOM      9  N   UNL     1       2.024  -3.338   6.182  0.00  0.00    -0.206 N 
ATOM     10  C   UNL     1       3.064  -3.429   7.034  0.00  0.00    +0.245 C 
ATOM     11  O   UNL     1       4.077  -2.793   6.826  0.00  0.00    -0.273 OA
ATOM     12  H   UNL     1       1.215  -3.846   6.348  0.00  0.00    +0.177 HD
BRANCH   9  14
ATOM     13  C   UNL     1       1.111  -2.422   4.235  0.00  0.00    +0.141 C 
ATOM     14  N   UNL     1       2.112  -2.510   5.056  0.00  0.00    -0.188 NA
BRANCH  13  17
ATOM     15  N   UNL     1       0.711  -0.489   1.189  0.00  0.00    -0.271 N 
ATOM     16  C   UNL     1       0.225  -1.359   2.096  0.00  0.00    +0.117 A 
ATOM     17  C   UNL     1       1.203  -1.550   3.049  0.00  0.00    +0.032 A 
ATOM     18  C   UNL     1       2.309  -0.754   2.679  0.00  0.00    +0.143 A 
ATOM     19  N   UNL     1       2.009  -0.133   1.570  0.00  0.00    -0.179 NA
BRANCH  15  21
ATOM     20  C   UNL     1      -0.019   1.526   0.010  0.00  0.00    +0.029 C 
ATOM     21  C   UNL     1       0.002  -0.004   0.002  0.00  0.00    +0.140 C 
ENDBRANCH  15  21
ENDBRANCH  13  17
ENDBRANCH   9  14
ENDBRANCH   7  10
ENDBRANCH   6   7
ENDBRANCH   1   6
BRANCH   5  22
ATOM     22  C   UNL     1       6.776  -6.244  10.845  0.00  0.00    +0.152 C 
BRANCH  22  23
ATOM     23  C   UNL     1       7.182  -5.105  11.743  0.00  0.00    -0.013 C 
ATOM     24  C   UNL     1       8.101  -5.288  12.658  0.00  0.00    +0.005 C 
ENDBRANCH  22  23
ENDBRANCH   5  22
BRANCH   4  25
ATOM     25  C   UNL     1       5.264  -8.114  12.873  0.00  0.00    +0.178 C 
BRANCH  25  26
ATOM     26  N   UNL     1       5.559  -9.438  12.319  0.00  0.00    -0.337 N 
ATOM     27  H   UNL     1       5.354  -9.632  11.391  0.00  0.00    +0.147 HD
BRANCH  26  28
ATOM     28  C   UNL     1       6.135 -10.421  13.128  0.00  0.00    +0.028 A 
ATOM     29  C   UNL     1       6.424 -10.146  14.458  0.00  0.00    +0.024 A 
ATOM     30  C   UNL     1       6.993 -11.120  15.256  0.00  0.00    +0.022 A 
ATOM     31  C   UNL     1       7.276 -12.368  14.730  0.00  0.00    +0.041 A 
ATOM     32  C   UNL     1       6.989 -12.645  13.405  0.00  0.00    +0.022 A 
ATOM     33  C   UNL     1       6.415 -11.677  12.604  0.00  0.00    +0.024 A 
ATOM     34 CL   UNL     1       7.992 -13.589  15.735  0.00  0.00    -0.084 Cl
ENDBRANCH  26  28
ENDBRANCH  25  26
ENDBRANCH   4  25
TORSDOF 11
