REMARK  Name = ZINC39227706
REMARK  11 active torsions:
REMARK  status: ('A' for Active; 'I' for Inactive)
REMARK    1  A    between atoms: C_1  and  C_2
REMARK    2  A    between atoms: C_2  and  C_4
REMARK    3  A    between atoms: C_2  and  O_35
REMARK    4  A    between atoms: C_4  and  N_5
REMARK    5  A    between atoms: N_5  and  C_6
REMARK    6  A    between atoms: C_6  and  C_7
REMARK    7  A    between atoms: C_7  and  C_9
REMARK    8  A    between atoms: C_7  and  O_10
REMARK    9  A    between atoms: C_11  and  C_13
REMARK   10  A    between atoms: C_16  and  C_19
REMARK   11  A    between atoms: N_31  and  C_34
REMARK                            x       y       z     vdW  Elec       q    Type
REMARK                         _______ _______ _______ _____ _____    ______ ____
ROOT
ATOM      1  C   UNL     1      -1.142  -4.260  -0.666  0.00  0.00    +0.037 A 
ATOM      2  C   UNL     1      -1.186  -4.851   0.600  0.00  0.00    +0.013 A 
ATOM      3  C   UNL     1      -1.093  -6.219   0.724  0.00  0.00    +0.009 A 
ATOM      4  C   UNL     1      -0.954  -7.015  -0.414  0.00  0.00    -0.018 A 
ATOM      5  C   UNL     1      -0.910  -6.426  -1.678  0.00  0.00    +0.009 A 
ATOM      6  C   UNL     1      -1.008  -5.059  -1.805  0.00  0.00    +0.013 A 
ENDROOT
BRANCH   4   7
ATOM      7  C   UNL     1      -0.854  -8.488  -0.279  0.00  0.00    -0.017 A 
ATOM      8  C   UNL     1      -0.903  -9.080   0.983  0.00  0.00    +0.012 A 
ATOM      9  C   UNL     1      -0.807 -10.449   1.101  0.00  0.00    +0.046 A 
ATOM     10  C   UNL     1      -0.662 -11.245  -0.033  0.00  0.00    +0.124 A 
ATOM     11  C   UNL     1      -0.617 -10.659  -1.288  0.00  0.00    -0.005 A 
ATOM     12  C   UNL     1      -0.715  -9.286  -1.412  0.00  0.00    +0.015 A 
ATOM     13  C   UNL     1      -0.474 -11.490  -2.538  0.00  0.00    +0.043 C 
ATOM     14  C   UNL     1       0.053 -12.881  -2.176  0.00  0.00    +0.052 C 
ATOM     15  C   UNL     1      -0.778 -13.422  -1.007  0.00  0.00    +0.108 C 
ATOM     16  O   UNL     1      -0.563 -12.590   0.131  0.00  0.00    -0.486 OA
ATOM     17  C   UNL     1      -0.344 -14.854  -0.692  0.00  0.00    +0.029 C 
ATOM     18  C   UNL     1      -1.232 -15.418   0.420  0.00  0.00    -0.075 C 
ATOM     19  N   UNL     1      -2.633 -15.411  -0.017  0.00  0.00    +0.378 N 
ATOM     20  C   UNL     1      -3.076 -14.030  -0.247  0.00  0.00    -0.075 C 
ATOM     21  C   UNL     1      -2.261 -13.412  -1.385  0.00  0.00    +0.029 C 
ATOM     22  C   UNL     1      -3.472 -16.026   1.020  0.00  0.00    -0.096 C 
ATOM     23  H   UNL     1      -2.720 -15.938  -0.873  0.00  0.00    -0.082 HD
ENDBRANCH   4   7
BRANCH   1  25
ATOM     24  N   UNL     1      -0.717  -1.992   0.148  0.00  0.00    -0.293 N 
ATOM     25  C   UNL     1      -1.242  -2.793  -0.800  0.00  0.00    +0.247 C 
ATOM     26  O   UNL     1      -1.799  -2.308  -1.766  0.00  0.00    -0.270 OA
BRANCH  24  27
ATOM     27  C   UNL     1       0.027  -2.574   1.268  0.00  0.00    +0.139 C 
BRANCH  27  29
ATOM     28  C   UNL     1       0.291  -2.575   3.753  0.00  0.00    +0.039 C 
ATOM     29  C   UNL     1      -0.561  -2.068   2.587  0.00  0.00    +0.129 C 
BRANCH  29  30
ATOM     30  O   UNL     1      -1.898  -2.552   2.729  0.00  0.00    -0.391 OA
ATOM     31  H   UNL     1      -2.334  -2.270   3.545  0.00  0.00    +0.210 HD
ENDBRANCH  29  30
ENDBRANCH  27  29
ENDBRANCH  24  27
BRANCH  24  32
ATOM     32  C   UNL     1      -0.889  -0.540   0.058  0.00  0.00    +0.139 C 
BRANCH  32  33
ATOM     33  C   UNL     1       0.340   0.079  -0.611  0.00  0.00    +0.129 C 
ATOM     34  C   UNL     1       0.217   1.604  -0.595  0.00  0.00    +0.039 C 
BRANCH  33  35
ATOM     35  O   UNL     1       0.427  -0.377  -1.963  0.00  0.00    -0.391 OA
ATOM     36  H   UNL     1      -0.296  -0.073  -2.528  0.00  0.00    +0.210 HD
ENDBRANCH  33  35
ENDBRANCH  32  33
ENDBRANCH  24  32
ENDBRANCH   1  25
TORSDOF 8
