REMARK  Name = ZINC20424933
REMARK  8 active torsions:
REMARK  status: ('A' for Active; 'I' for Inactive)
REMARK    1  A    between atoms: C_6  and  C_7
REMARK    2  A    between atoms: C_7  and  O_8
REMARK    3  A    between atoms: O_8  and  C_9
REMARK    4  A    between atoms: C_12  and  C_14
REMARK    5  A    between atoms: N_15  and  N_16
REMARK    6  A    between atoms: C_19  and  S_22
REMARK    7  A    between atoms: S_22  and  C_23
REMARK    8  A    between atoms: C_23  and  C_24
REMARK                            x       y       z     vdW  Elec       q    Type
REMARK                         _______ _______ _______ _____ _____    ______ ____
ROOT
ATOM      1  N   UNL     1       1.755  -1.722  -0.024  0.00  0.00    -0.205 N 
ATOM      2  C   UNL     1       1.308  -0.409  -0.013  0.00  0.00    +0.232 A 
ATOM      3  N   UNL     1       0.002  -0.004   0.002  0.00  0.00    -0.186 NA
ATOM      4  C   UNL     1      -0.017   1.362   0.009  0.00  0.00    +0.211 A 
ATOM      5  N   UNL     1       1.225   1.784  -0.000  0.00  0.00    -0.144 NA
ATOM      6  N   UNL     1       2.064   0.663  -0.014  0.00  0.00    -0.245 N 
ATOM      7  H   UNL     1       1.030  -2.549  -0.021  0.00  0.00    +0.177 HD
ATOM      8  H   UNL     1       3.160   0.563  -0.025  0.00  0.00    +0.192 HD
ENDROOT
BRANCH   1  10
ATOM      9  C   UNL     1       3.548  -3.227  -0.049  0.00  0.00    +0.176 C 
ATOM     10  N   UNL     1       3.129  -1.994  -0.038  0.00  0.00    -0.184 NA
BRANCH   9  14
ATOM     11  C   UNL     1       7.163  -3.219  -0.084  0.00  0.00    +0.287 A 
ATOM     12  C   UNL     1       6.949  -4.557  -0.089  0.00  0.00    +0.091 A 
ATOM     13  C   UNL     1       5.555  -4.751  -0.076  0.00  0.00    +0.055 A 
ATOM     14  C   UNL     1       4.985  -3.511  -0.064  0.00  0.00    +0.151 A 
ATOM     15  O   UNL     1       5.974  -2.593  -0.075  0.00  0.00    -0.424 OA
BRANCH  11  16
ATOM     16  O   UNL     1       8.377  -2.612  -0.091  0.00  0.00    -0.459 OA
BRANCH  16  17
ATOM     17  C   UNL     1       8.388  -1.183  -0.084  0.00  0.00    +0.267 C 
BRANCH  17  23
ATOM     18  C   UNL     1      10.474  -0.467   1.098  0.00  0.00    +0.010 A 
ATOM     19  C   UNL     1      11.782  -0.021   1.090  0.00  0.00    +0.039 A 
ATOM     20  C   UNL     1      12.426   0.211  -0.114  0.00  0.00    +0.123 A 
ATOM     21  C   UNL     1      11.760  -0.009  -1.308  0.00  0.00    +0.039 A 
ATOM     22  C   UNL     1      10.454  -0.460  -1.297  0.00  0.00    +0.010 A 
ATOM     23  C   UNL     1       9.812  -0.692  -0.094  0.00  0.00    -0.010 A 
ATOM     24  F   UNL     1      13.703   0.652  -0.123  0.00  0.00    -0.205 F 
ENDBRANCH  17  23
ENDBRANCH  16  17
ENDBRANCH  11  16
ENDBRANCH   9  14
ENDBRANCH   1  10
BRANCH   4  25
ATOM     25  S   UNL     1      -1.456   2.378   0.022  0.00  0.00    -0.075 S 
BRANCH  25  26
ATOM     26  C   UNL     1      -0.799   4.069   0.028  0.00  0.00    +0.173 C 
BRANCH  26  27
ATOM     27  C   UNL     1      -1.942   5.052   0.039  0.00  0.00    +0.229 C 
ATOM     28  O   UNL     1      -3.087   4.651   0.043  0.00  0.00    -0.275 OA
ATOM     29  N   UNL     1      -1.692   6.376   0.045  0.00  0.00    -0.264 N 
ATOM     30  C   UNL     1      -2.746   7.282   0.055  0.00  0.00    +0.164 A 
ATOM     31  N   UNL     1      -4.043   7.044   0.054  0.00  0.00    -0.233 NA
ATOM     32  C   UNL     1      -4.918   8.030   0.070  0.00  0.00    +0.120 A 
ATOM     33  C   UNL     1      -4.456   9.305   0.074  0.00  0.00    +0.068 A 
ATOM     34  S   UNL     1      -2.692   9.018   0.064  0.00  0.00    -0.061 S 
ATOM     35  H   UNL     1      -0.654   6.740   0.042  0.00  0.00    +0.157 HD
ENDBRANCH  26  27
ENDBRANCH  25  26
ENDBRANCH   4  25
TORSDOF 8
