REMARK  Name = ZINC08589283
REMARK  7 active torsions:
REMARK  status: ('A' for Active; 'I' for Inactive)
REMARK    1  A    between atoms: C_1  and  C_2
REMARK    2  A    between atoms: C_5  and  C_8
REMARK    3  A    between atoms: C_8  and  C_9
REMARK    4  A    between atoms: C_9  and  N_10
REMARK    5  A    between atoms: C_20  and  S_23
REMARK    6  A    between atoms: S_23  and  C_26
REMARK    7  A    between atoms: C_29  and  C_32
REMARK                            x       y       z     vdW  Elec       q    Type
REMARK                         _______ _______ _______ _____ _____    ______ ____
ROOT
ATOM      1  N   UNL     1       1.527  -6.231  -0.040  0.00  0.00    -0.328 N 
ATOM      2  C   UNL     1       2.735  -6.908  -0.051  0.00  0.00    +0.137 A 
ATOM      3  C   UNL     1       2.755  -8.306  -0.064  0.00  0.00    +0.077 A 
ATOM      4  C   UNL     1       3.955  -9.024  -0.075  0.00  0.00    +0.087 A 
ATOM      5  C   UNL     1       3.831 -10.414  -0.089  0.00  0.00    +0.036 A 
ATOM      6  C   UNL     1       2.607 -10.989  -0.090  0.00  0.00    +0.048 A 
ATOM      7  S   UNL     1       1.516  -9.576  -0.072  0.00  0.00    -0.092 S 
ATOM      8  N   UNL     1       5.117  -8.248  -0.072  0.00  0.00    -0.192 N 
ATOM      9  C   UNL     1       5.048  -6.883  -0.059  0.00  0.00    +0.204 A 
ATOM     10  N   UNL     1       3.872  -6.234  -0.053  0.00  0.00    -0.209 NA
ATOM     11  C   UNL     1       6.360  -6.437  -0.060  0.00  0.00    +0.249 A 
ATOM     12  N   UNL     1       7.163  -7.494  -0.073  0.00  0.00    -0.108 NA
ATOM     13  N   UNL     1       6.475  -8.583  -0.081  0.00  0.00    -0.057 NA
ATOM     14  H   UNL     1       0.694  -6.727  -0.038  0.00  0.00    +0.147 HD
ENDROOT
BRANCH  11  15
ATOM     15  S   UNL     1       6.875  -4.752  -0.046  0.00  0.00    +0.047 S 
ATOM     16  O   UNL     1       8.183  -4.723  -0.602  0.00  0.00    -0.163 OA
ATOM     17  O   UNL     1       5.801  -3.995  -0.586  0.00  0.00    -0.163 OA
BRANCH  15  18
ATOM     18  C   UNL     1       7.034  -4.270   1.641  0.00  0.00    +0.095 A 
ATOM     19  C   UNL     1       5.950  -3.736   2.312  0.00  0.00    +0.028 A 
ATOM     20  C   UNL     1       6.074  -3.357   3.636  0.00  0.00    +0.005 A 
ATOM     21  C   UNL     1       7.283  -3.513   4.289  0.00  0.00    -0.050 A 
ATOM     22  C   UNL     1       8.367  -4.048   3.618  0.00  0.00    +0.005 A 
ATOM     23  C   UNL     1       8.241  -4.430   2.295  0.00  0.00    +0.028 A 
ATOM     24  C   UNL     1       7.419  -3.099   5.731  0.00  0.00    +0.044 C 
ENDBRANCH  15  18
ENDBRANCH  11  15
BRANCH   1  25
ATOM     25  C   UNL     1       1.508  -4.767  -0.032  0.00  0.00    +0.107 C 
BRANCH  25  26
ATOM     26  C   UNL     1       0.059  -4.275  -0.021  0.00  0.00    +0.054 C 
BRANCH  26  31
ATOM     27  C   UNL     1      -0.018   1.503   0.010  0.00  0.00    +0.044 C 
ATOM     28  C   UNL     1       0.002  -0.004   0.002  0.00  0.00    -0.050 A 
ATOM     29  C   UNL     1       0.006  -0.689  -1.199  0.00  0.00    +0.003 A 
ATOM     30  C   UNL     1       0.025  -2.071  -1.206  0.00  0.00    +0.004 A 
ATOM     31  C   UNL     1       0.040  -2.768  -0.013  0.00  0.00    -0.046 A 
ATOM     32  C   UNL     1       0.037  -2.084   1.188  0.00  0.00    +0.004 A 
ATOM     33  C   UNL     1       0.023  -0.702   1.195  0.00  0.00    +0.003 A 
ENDBRANCH  26  31
ENDBRANCH  25  26
ENDBRANCH   1  25
TORSDOF 5
