REMARK  Name = ZINC14252724
REMARK  8 active torsions:
REMARK  status: ('A' for Active; 'I' for Inactive)
REMARK    1  A    between atoms: C_1  and  O_2
REMARK    2  A    between atoms: O_2  and  C_3
REMARK    3  A    between atoms: C_6  and  C_9
REMARK    4  A    between atoms: N_13  and  C_17
REMARK    5  A    between atoms: C_17  and  C_18
REMARK    6  A    between atoms: C_18  and  N_19
REMARK    7  A    between atoms: C_20  and  C_22
REMARK    8  A    between atoms: C_22  and  N_23
REMARK                            x       y       z     vdW  Elec       q    Type
REMARK                         _______ _______ _______ _____ _____    ______ ____
ROOT
ATOM      1  C   UNL     1      -7.387  -7.300  -1.871  0.00  0.00    +0.123 C 
ENDROOT
BRANCH   1   2
ATOM      2  N   UNL     1      -8.510  -8.233  -1.990  0.00  0.00    -0.312 N 
ATOM      3  C   UNL     1      -8.975  -8.575  -3.208  0.00  0.00    +0.231 C 
ATOM      4  O   UNL     1      -8.463  -8.111  -4.205  0.00  0.00    -0.274 OA
ATOM      5  H   UNL     1      -8.919  -8.604  -1.193  0.00  0.00    +0.149 HD
BRANCH   3   6
ATOM      6  C   UNL     1     -10.130  -9.535  -3.331  0.00  0.00    +0.213 C 
BRANCH   6   7
ATOM      7  N   UNL     1     -10.443  -9.743  -4.747  0.00  0.00    -0.215 N 
ATOM      8  C   UNL     1     -11.317  -8.991  -5.450  0.00  0.00    +0.247 C 
ATOM      9  O   UNL     1     -11.968  -8.051  -5.047  0.00  0.00    -0.273 OA
ATOM     10  C   UNL     1     -11.310  -9.569  -6.842  0.00  0.00    +0.113 C 
ATOM     11  C   UNL     1     -12.707 -10.064  -7.240  0.00  0.00    +0.035 C 
ATOM     12  C   UNL     1     -13.283  -8.910  -8.101  0.00  0.00    +0.003 C 
ATOM     13  C   UNL     1     -12.043  -8.417  -8.889  0.00  0.00    +0.003 C 
ATOM     14  C   UNL     1     -10.882  -8.525  -7.875  0.00  0.00    +0.035 C 
ATOM     15  N   UNL     1     -10.356 -10.677  -6.774  0.00  0.00    -0.285 N 
ATOM     16  C   UNL     1      -9.895 -10.700  -5.507  0.00  0.00    +0.310 C 
ATOM     17  O   UNL     1      -9.075 -11.499  -5.100  0.00  0.00    -0.252 OA
ATOM     18  H   UNL     1     -10.104 -11.274  -7.496  0.00  0.00    +0.151 HD
ENDBRANCH   6   7
ENDBRANCH   3   6
ENDBRANCH   1   2
BRANCH   1  19
ATOM     19  C   UNL     1      -7.059  -7.083  -0.392  0.00  0.00    +0.136 C 
BRANCH  19  24
ATOM     20  C   UNL     1      -4.951  -2.613   0.036  0.00  0.00    +0.028 C 
ATOM     21  C   UNL     1      -5.006  -3.965  -0.068  0.00  0.00    +0.080 C 
ATOM     22  C   UNL     1      -6.180  -4.853  -0.186  0.00  0.00    +0.260 C 
ATOM     23  O   UNL     1      -7.315  -4.413  -0.204  0.00  0.00    -0.269 OA
ATOM     24  N   UNL     1      -5.936  -6.149  -0.273  0.00  0.00    -0.227 N 
ATOM     25  C   UNL     1      -4.677  -6.633  -0.252  0.00  0.00    +0.286 C 
ATOM     26  O   UNL     1      -4.311  -7.790  -0.323  0.00  0.00    -0.262 OA
ATOM     27  S   UNL     1      -3.678  -5.160  -0.106  0.00  0.00    -0.026 S 
BRANCH  20  31
ATOM     28  C   UNL     1      -1.212  -0.623  -0.167  0.00  0.00    +0.120 A 
ATOM     29  C   UNL     1      -1.289  -1.982  -0.448  0.00  0.00    +0.046 A 
ATOM     30  C   UNL     1      -2.500  -2.633  -0.383  0.00  0.00    +0.011 A 
ATOM     31  C   UNL     1      -3.656  -1.924  -0.034  0.00  0.00    -0.024 A 
ATOM     32  C   UNL     1      -3.572  -0.555   0.248  0.00  0.00    +0.011 A 
ATOM     33  C   UNL     1      -2.355   0.085   0.186  0.00  0.00    +0.046 A 
BRANCH  28  35
ATOM     34  C   UNL     1       1.120  -0.772  -0.600  0.00  0.00    +0.277 C 
ATOM     35  O   UNL     1      -0.015   0.015  -0.232  0.00  0.00    -0.495 OA
ENDBRANCH  28  35
ENDBRANCH  20  31
ENDBRANCH  19  24
ENDBRANCH   1  19
TORSDOF 7
