REMARK  Name = ZINC18776217
REMARK  9 active torsions:
REMARK  status: ('A' for Active; 'I' for Inactive)
REMARK    1  A    between atoms: C_1  and  C_2
REMARK    2  A    between atoms: C_2  and  O_3
REMARK    3  A    between atoms: O_3  and  C_4
REMARK    4  A    between atoms: C_4  and  C_6
REMARK    5  A    between atoms: C_7  and  C_29
REMARK    6  A    between atoms: C_11  and  N_28
REMARK    7  A    between atoms: C_13  and  C_15
REMARK    8  A    between atoms: C_15  and  S_16
REMARK    9  A    between atoms: S_16  and  C_17
REMARK                            x       y       z     vdW  Elec       q    Type
REMARK                         _______ _______ _______ _____ _____    ______ ____
ROOT
ATOM      1  C   UNL     1       1.232   3.545   0.009  0.00  0.00    +0.112 A 
ATOM      2  C   UNL     1       1.268   4.362   1.098  0.00  0.00    +0.119 A 
ATOM      3  O   UNL     1       1.320   5.641   0.703  0.00  0.00    -0.441 OA
ATOM      4  C   UNL     1       1.311   5.741  -0.637  0.00  0.00    +0.233 A 
ATOM      5  C   UNL     1       1.256   4.441  -1.160  0.00  0.00    +0.094 A 
ATOM      6  C   UNL     1       1.236   4.269  -2.548  0.00  0.00    +0.131 A 
ATOM      7  N   UNL     1       1.271   5.353  -3.319  0.00  0.00    -0.216 NA
ATOM      8  C   UNL     1       1.323   6.560  -2.788  0.00  0.00    +0.145 A 
ATOM      9  N   UNL     1       1.343   6.764  -1.488  0.00  0.00    -0.196 NA
ATOM     10  C   UNL     1       1.256   3.897   2.532  0.00  0.00    +0.087 C 
ENDROOT
BRANCH   6  11
ATOM     11  N   UNL     1       1.181   3.003  -3.105  0.00  0.00    -0.342 N 
ATOM     12  H   UNL     1       1.155   2.221  -2.531  0.00  0.00    +0.144 HD
ATOM     13  H   UNL     1       1.167   2.897  -4.069  0.00  0.00    +0.144 HD
ENDBRANCH   6  11
BRANCH   1  14
ATOM     14  C   UNL     1       1.175   2.076   0.002  0.00  0.00    +0.343 C 
ATOM     15  O   UNL     1       2.204   1.428  -0.011  0.00  0.00    -0.245 OA
BRANCH  14  16
ATOM     16  O   UNL     1      -0.018   1.448   0.010  0.00  0.00    -0.461 OA
BRANCH  16  18
ATOM     17  C   UNL     1      -1.433  -0.534   0.013  0.00  0.00    +0.048 C 
ATOM     18  C   UNL     1       0.002  -0.004   0.002  0.00  0.00    +0.229 C 
ENDBRANCH  16  18
ENDBRANCH  14  16
ENDBRANCH   1  14
BRANCH   8  19
ATOM     19  C   UNL     1       1.360   7.753  -3.708  0.00  0.00    +0.153 C 
BRANCH  19  20
ATOM     20  S   UNL     1       3.084   8.165  -4.093  0.00  0.00    -0.078 S 
BRANCH  20  21
ATOM     21  C   UNL     1       2.960   9.560  -5.162  0.00  0.00    +0.196 A 
ATOM     22  N   UNL     1       1.850  10.138  -5.563  0.00  0.00    -0.122 NA
ATOM     23  N   UNL     1       2.118  11.130  -6.337  0.00  0.00    -0.127 NA
ATOM     24  C   UNL     1       3.425  11.245  -6.477  0.00  0.00    +0.180 A 
ATOM     25  N   UNL     1       3.998  10.244  -5.722  0.00  0.00    -0.275 N 
ATOM     26  C   UNL     1       5.359  10.104  -5.676  0.00  0.00    +0.115 A 
ATOM     27  C   UNL     1       6.157  10.950  -6.358  0.00  0.00    +0.059 A 
ATOM     28  C   UNL     1       5.601  11.986  -7.133  0.00  0.00    +0.045 A 
ATOM     29  C   UNL     1       4.251  12.135  -7.195  0.00  0.00    +0.087 A 
ATOM     30 CL   UNL     1       3.551  13.408  -8.146  0.00  0.00    -0.080 Cl
ATOM     31 CL   UNL     1       7.881  10.760  -6.281  0.00  0.00    -0.082 Cl
ENDBRANCH  20  21
ENDBRANCH  19  20
ENDBRANCH   8  19
TORSDOF 7
