REMARK  Name = ZINC26920004
REMARK  7 active torsions:
REMARK  status: ('A' for Active; 'I' for Inactive)
REMARK    1  A    between atoms: C_1  and  C_2
REMARK    2  A    between atoms: C_5  and  C_30
REMARK    3  A    between atoms: C_6  and  N_8
REMARK    4  A    between atoms: C_9  and  C_11
REMARK    5  A    between atoms: C_12  and  C_29
REMARK    6  A    between atoms: C_17  and  C_19
REMARK    7  A    between atoms: C_23  and  N_25
REMARK                            x       y       z     vdW  Elec       q    Type
REMARK                         _______ _______ _______ _____ _____    ______ ____
ROOT
ATOM      1  C   UNL     1       3.057  -3.970   1.505  0.00  0.00    +0.056 C 
ATOM      2  C   UNL     1       2.970  -5.293   1.762  0.00  0.00    +0.017 C 
ATOM      3  N   UNL     1       2.848  -6.201   0.749  0.00  0.00    -0.300 N 
ATOM      4  C   UNL     1       2.806  -5.867  -0.547  0.00  0.00    +0.135 C 
ATOM      5  S   UNL     1       2.652  -7.108  -1.717  0.00  0.00    -0.019 S 
ATOM      6  N   UNL     1       2.882  -4.587  -0.960  0.00  0.00    -0.315 N 
ATOM      7  C   UNL     1       3.015  -3.529   0.056  0.00  0.00    +0.139 C 
ATOM      8  C   UNL     1       3.007  -5.774   3.189  0.00  0.00    +0.061 C 
ATOM      9  H   UNL     1       2.779  -7.275   0.979  0.00  0.00    +0.154 HD
ATOM     10  H   UNL     1       2.847  -4.323  -2.028  0.00  0.00    +0.149 HD
ENDROOT
BRANCH   7  11
ATOM     11  C   UNL     1       1.856  -2.580  -0.108  0.00  0.00    -0.020 A 
ATOM     12  C   UNL     1       0.562  -3.065  -0.119  0.00  0.00    +0.007 A 
ATOM     13  C   UNL     1      -0.501  -2.195  -0.270  0.00  0.00    +0.018 A 
ATOM     14  C   UNL     1      -0.270  -0.838  -0.409  0.00  0.00    +0.048 A 
ATOM     15  C   UNL     1       1.025  -0.353  -0.398  0.00  0.00    +0.140 A 
ATOM     16  C   UNL     1       2.088  -1.225  -0.252  0.00  0.00    +0.039 A 
ATOM     17 BR   UNL     1      -1.724   0.353  -0.616  0.00  0.00    -0.048 Br
BRANCH  15  18
ATOM     18  N   UNL     1       1.273   1.098  -0.547  0.00  0.00    +0.058 N 
ATOM     19  O   UNL     1       2.402   1.539  -0.422  0.00  0.00    -0.126 OA
ATOM     20  O   UNL     1       0.350   1.851  -0.800  0.00  0.00    -0.126 OA
ENDBRANCH  15  18
ENDBRANCH   7  11
BRANCH   1  22
ATOM     21  N   UNL     1       2.094  -2.647   3.252  0.00  0.00    -0.281 N 
ATOM     22  C   UNL     1       3.182  -3.027   2.554  0.00  0.00    +0.248 C 
ATOM     23  O   UNL     1       4.274  -2.560   2.825  0.00  0.00    -0.270 OA
ATOM     24  H   UNL     1       1.094  -2.976   2.934  0.00  0.00    +0.155 HD
BRANCH  21  30
ATOM     25  C   UNL     1       4.573   0.845   5.666  0.00  0.00    +0.044 C 
ATOM     26  C   UNL     1       3.429  -0.132   5.577  0.00  0.00    -0.049 A 
ATOM     27  C   UNL     1       2.517  -0.224   6.613  0.00  0.00    +0.004 A 
ATOM     28  C   UNL     1       1.466  -1.118   6.535  0.00  0.00    +0.005 A 
ATOM     29  C   UNL     1       1.320  -1.920   5.420  0.00  0.00    -0.029 A 
ATOM     30  C   UNL     1       2.236  -1.834   4.380  0.00  0.00    +0.037 A 
ATOM     31  C   UNL     1       3.292  -0.934   4.462  0.00  0.00    +0.027 A 
ATOM     32  C   UNL     1       0.170  -2.890   5.334  0.00  0.00    +0.045 C 
ENDBRANCH  21  30
ENDBRANCH   1  22
TORSDOF 4
