REMARK  Name = ZINC60059114
REMARK  8 active torsions:
REMARK  status: ('A' for Active; 'I' for Inactive)
REMARK    1  A    between atoms: C_1  and  C_2
REMARK    2  A    between atoms: C_2  and  O_3
REMARK    3  A    between atoms: O_3  and  C_4
REMARK    4  A    between atoms: C_4  and  C_6
REMARK    5  A    between atoms: C_7  and  C_21
REMARK    6  A    between atoms: C_12  and  C_14
REMARK    7  A    between atoms: C_21  and  N_22
REMARK    8  A    between atoms: C_23  and  C_28
REMARK                            x       y       z     vdW  Elec       q    Type
REMARK                         _______ _______ _______ _____ _____    ______ ____
ROOT
ATOM      1  C   UNL     1       1.777  -2.274  -1.974  0.00  0.00    +0.080 C 
ATOM      2  C   UNL     1       1.886  -3.577  -2.313  0.00  0.00    +0.044 C 
ATOM      3  N   UNL     1       2.739  -3.979  -3.301  0.00  0.00    -0.271 N 
ATOM      4  C   UNL     1       3.518  -3.140  -3.996  0.00  0.00    +0.304 C 
ATOM      5  O   UNL     1       4.246  -3.592  -4.857  0.00  0.00    -0.252 OA
ATOM      6  N   UNL     1       3.520  -1.811  -3.771  0.00  0.00    -0.288 N 
ATOM      7  C   UNL     1       2.629  -1.275  -2.729  0.00  0.00    +0.144 C 
ATOM      8  H   UNL     1       2.784  -4.925  -3.510  0.00  0.00    +0.156 HD
ATOM      9  H   UNL     1       4.093  -1.222  -4.287  0.00  0.00    +0.151 HD
ENDROOT
BRANCH   7  10
ATOM     10  C   UNL     1       3.482  -0.541  -1.727  0.00  0.00    -0.022 A 
ATOM     11  C   UNL     1       4.637  -1.127  -1.242  0.00  0.00    +0.007 A 
ATOM     12  C   UNL     1       5.420  -0.454  -0.323  0.00  0.00    +0.020 A 
ATOM     13  C   UNL     1       5.048   0.806   0.111  0.00  0.00    +0.041 A 
ATOM     14  C   UNL     1       3.893   1.392  -0.375  0.00  0.00    +0.020 A 
ATOM     15  C   UNL     1       3.114   0.721  -1.298  0.00  0.00    +0.007 A 
ATOM     16 CL   UNL     1       6.031   1.652   1.265  0.00  0.00    -0.084 Cl
ENDBRANCH   7  10
BRANCH   1  17
ATOM     17  C   UNL     1       0.893  -1.857  -0.951  0.00  0.00    +0.339 C 
ATOM     18  O   UNL     1       0.161  -2.665  -0.412  0.00  0.00    -0.245 OA
BRANCH  17  19
ATOM     19  O   UNL     1       0.862  -0.561  -0.574  0.00  0.00    -0.462 OA
BRANCH  19  21
ATOM     20  C   UNL     1       0.203   1.251   0.883  0.00  0.00    +0.048 C 
ATOM     21  C   UNL     1       0.029  -0.230   0.539  0.00  0.00    +0.229 C 
ENDBRANCH  19  21
ENDBRANCH  17  19
ENDBRANCH   1  17
BRANCH   2  22
ATOM     22  C   UNL     1       1.052  -4.604  -1.590  0.00  0.00    +0.181 C 
BRANCH  22  23
ATOM     23  N   UNL     1       1.694  -5.916  -1.698  0.00  0.00    -0.251 N 
ATOM     24  C   UNL     1       1.386  -6.891  -2.628  0.00  0.00    +0.192 A 
ATOM     25  N   UNL     1       2.159  -7.921  -2.420  0.00  0.00    -0.053 NA
ATOM     26  O   UNL     1       2.999  -7.614  -1.320  0.00  0.00    -0.295 OA
ATOM     27  C   UNL     1       2.686  -6.374  -0.910  0.00  0.00    +0.443 A 
ATOM     28  O   UNL     1       3.204  -5.772   0.011  0.00  0.00    -0.221 OA
BRANCH  24  29
ATOM     29  C   UNL     1       0.359  -6.785  -3.678  0.00  0.00    +0.058 A 
ATOM     30  C   UNL     1      -0.076  -7.740  -4.562  0.00  0.00    +0.019 A 
ATOM     31  C   UNL     1      -1.058  -7.407  -5.464  0.00  0.00    +0.008 A 
ATOM     32  C   UNL     1      -1.568  -6.146  -5.454  0.00  0.00    +0.046 A 
ATOM     33  S   UNL     1      -0.650  -5.382  -4.127  0.00  0.00    -0.094 S 
ENDBRANCH  24  29
ENDBRANCH  22  23
ENDBRANCH   2  22
TORSDOF 7
