REMARK  Name = ZINC10792930
REMARK  10 active torsions:
REMARK  status: ('A' for Active; 'I' for Inactive)
REMARK    1  A    between atoms: C_1  and  C_2
REMARK    2  A    between atoms: C_5  and  C_9
REMARK    3  A    between atoms: C_7  and  C_8
REMARK    4  A    between atoms: N_16  and  C_31
REMARK    5  A    between atoms: C_17  and  S_19
REMARK    6  A    between atoms: S_19  and  C_20
REMARK    7  A    between atoms: C_20  and  C_22
REMARK    8  A    between atoms: C_20  and  C_25
REMARK    9  A    between atoms: C_22  and  C_23
REMARK   10  A    between atoms: C_22  and  C_24
REMARK                            x       y       z     vdW  Elec       q    Type
REMARK                         _______ _______ _______ _____ _____    ______ ____
ROOT
ATOM      1  C   UNL     1      -4.149   2.547   2.768  0.00  0.00    +0.004 A 
ATOM      2  C   UNL     1      -4.539   2.763   4.045  0.00  0.00    +0.056 A 
ATOM      3  S   UNL     1      -3.010   2.707   4.960  0.00  0.00    -0.076 S 
ATOM      4  C   UNL     1      -1.891   2.397   3.618  0.00  0.00    +0.117 A 
ATOM      5  C   UNL     1      -2.730   2.344   2.491  0.00  0.00    +0.080 A 
ATOM      6  C   UNL     1      -2.079   2.107   1.241  0.00  0.00    +0.263 A 
ATOM      7  O   UNL     1      -2.726   2.051   0.209  0.00  0.00    -0.267 OA
ATOM      8  N   UNL     1      -0.744   1.942   1.218  0.00  0.00    -0.290 N 
ATOM      9  C   UNL     1      -0.003   2.008   2.362  0.00  0.00    +0.173 A 
ATOM     10  N   UNL     1      -0.577   2.231   3.526  0.00  0.00    -0.216 NA
ATOM     11  C   UNL     1      -0.072   1.694  -0.061  0.00  0.00    +0.154 C 
ENDROOT
BRANCH   1  16
ATOM     12  C   UNL     1      -8.015   2.429  -1.498  0.00  0.00    +0.044 C 
ATOM     13  C   UNL     1      -7.003   2.460  -0.382  0.00  0.00    -0.048 A 
ATOM     14  C   UNL     1      -5.870   3.245  -0.500  0.00  0.00    +0.004 A 
ATOM     15  C   UNL     1      -4.942   3.281   0.521  0.00  0.00    +0.009 A 
ATOM     16  C   UNL     1      -5.144   2.516   1.669  0.00  0.00    -0.016 A 
ATOM     17  C   UNL     1      -6.287   1.727   1.783  0.00  0.00    +0.012 A 
ATOM     18  C   UNL     1      -7.210   1.703   0.757  0.00  0.00    -0.047 A 
ATOM     19  C   UNL     1      -8.447   0.850   0.878  0.00  0.00    +0.044 C 
ENDBRANCH   1  16
BRANCH   9  20
ATOM     20  S   UNL     1       1.744   1.793   2.280  0.00  0.00    -0.075 S 
BRANCH  20  21
ATOM     21  C   UNL     1       2.180   2.108   4.008  0.00  0.00    +0.143 C 
BRANCH  21  22
ATOM     22  C   UNL     1       1.659   0.987   4.870  0.00  0.00    +0.234 C 
ATOM     23  O   UNL     1       1.470  -0.110   4.390  0.00  0.00    -0.274 OA
ATOM     24  N   UNL     1       1.402   1.205   6.176  0.00  0.00    -0.239 N 
ATOM     25  C   UNL     1       0.936   0.202   6.947  0.00  0.00    +0.303 C 
ATOM     26  O   UNL     1       0.747  -0.897   6.465  0.00  0.00    -0.253 OA
ATOM     27  N   UNL     1       0.679   0.420   8.252  0.00  0.00    -0.313 N 
ATOM     28  H   UNL     1       1.573   2.200   6.611  0.00  0.00    +0.159 HD
ATOM     29  H   UNL     1       0.298  -0.398   8.881  0.00  0.00    +0.146 HD
ATOM     30  H   UNL     1       0.850   1.415   8.688  0.00  0.00    +0.146 HD
ENDBRANCH  21  22
BRANCH  21  31
ATOM     31  C   UNL     1       3.702   2.189   4.143  0.00  0.00    +0.005 C 
ATOM     32  C   UNL     1       4.231   3.333   3.276  0.00  0.00    +0.009 C 
ATOM     33  C   UNL     1       4.072   2.446   5.606  0.00  0.00    +0.009 C 
ENDBRANCH  21  31
ENDBRANCH  20  21
ENDBRANCH   9  20
TORSDOF 5
