REMARK  Name = ZINC01263102
REMARK  6 active torsions:
REMARK  status: ('A' for Active; 'I' for Inactive)
REMARK    1  A    between atoms: C_1  and  C_2
REMARK    2  A    between atoms: N_8  and  C_9
REMARK    3  A    between atoms: C_9  and  C_10
REMARK    4  A    between atoms: C_16  and  C_24
REMARK    5  A    between atoms: C_18  and  C_22
REMARK    6  A    between atoms: C_19  and  N_21
REMARK                            x       y       z     vdW  Elec       q    Type
REMARK                         _______ _______ _______ _____ _____    ______ ____
ROOT
ATOM      1  C   UNL     1      -1.299  -0.765   0.011  0.00  0.00    +0.064 C 
ATOM      2  C   UNL     1       0.002  -0.004   0.002  0.00  0.00    +0.023 A 
ATOM      3  C   UNL     1      -0.016   1.346   0.009  0.00  0.00    +0.068 A 
ATOM      4  C   UNL     1       1.198   2.063   0.002  0.00  0.00    +0.141 A 
ATOM      5  C   UNL     1       2.386   1.364  -0.014  0.00  0.00    +0.072 A 
ATOM      6  C   UNL     1       2.356  -0.037  -0.022  0.00  0.00    +0.259 A 
ATOM      7  O   UNL     1       3.401  -0.669  -0.036  0.00  0.00    -0.267 OA
ATOM      8  N   UNL     1       1.177  -0.686  -0.013  0.00  0.00    -0.310 N 
ATOM      9  C   UNL     1       3.705   2.088  -0.025  0.00  0.00    +0.103 C 
ATOM     10  C   UNL     1       3.510   3.522   0.385  0.00  0.00    +0.098 C 
ATOM     11  C   UNL     1       2.283   4.093   0.379  0.00  0.00    +0.199 C 
ATOM     12  O   UNL     1       1.183   3.413   0.010  0.00  0.00    -0.441 OA
ENDROOT
BRANCH   9  13
ATOM     13  C   UNL     1       4.291   2.039  -1.412  0.00  0.00    -0.033 A 
ATOM     14  C   UNL     1       3.595   2.584  -2.475  0.00  0.00    +0.006 A 
ATOM     15  C   UNL     1       4.134   2.545  -3.748  0.00  0.00    +0.022 A 
ATOM     16  C   UNL     1       5.365   1.951  -3.959  0.00  0.00    +0.059 A 
ATOM     17  C   UNL     1       6.059   1.401  -2.895  0.00  0.00    +0.060 A 
ATOM     18  C   UNL     1       5.521   1.445  -1.621  0.00  0.00    +0.026 A 
ATOM     19 CL   UNL     1       7.605   0.655  -3.159  0.00  0.00    -0.082 Cl
ATOM     20 CL   UNL     1       6.040   1.896  -5.558  0.00  0.00    -0.082 Cl
ENDBRANCH   9  13
BRANCH  11  21
ATOM     21  N   UNL     1       2.158   5.406   0.760  0.00  0.00    -0.328 N 
ATOM     22  H   UNL     1       2.942   5.910   1.029  0.00  0.00    +0.145 HD
ATOM     23  H   UNL     1       1.285   5.829   0.761  0.00  0.00    +0.145 HD
ENDBRANCH  11  21
BRANCH  10  24
ATOM     24  C   UNL     1       4.645   4.297   0.787  0.00  0.00    +0.101 C 
ATOM     25  N   UNL     1       5.545   4.912   1.107  0.00  0.00    -0.191 NA
ENDBRANCH  10  24
BRANCH   8  26
ATOM     26  C   UNL     1       1.161  -2.151  -0.021  0.00  0.00    +0.156 C 
BRANCH  26  27
ATOM     27  C   UNL     1       1.141  -2.653  -1.466  0.00  0.00    +0.138 C 
ATOM     28  C   UNL     1       1.007  -4.191  -1.484  0.00  0.00    +0.035 C 
ATOM     29  C   UNL     1       1.953  -4.591  -2.649  0.00  0.00    +0.031 C 
ATOM     30  C   UNL     1       3.061  -3.516  -2.510  0.00  0.00    +0.160 C 
ATOM     31  O   UNL     1       2.374  -2.318  -2.114  0.00  0.00    -0.375 OA
ENDBRANCH  26  27
ENDBRANCH   8  26
TORSDOF 5
