REMARK  Name = ZINC56057266
REMARK  10 active torsions:
REMARK  status: ('A' for Active; 'I' for Inactive)
REMARK    1  A    between atoms: C_1  and  C_2
REMARK    2  A    between atoms: C_2  and  C_3
REMARK    3  A    between atoms: C_6  and  S_8
REMARK    4  A    between atoms: S_8  and  N_11
REMARK    5  A    between atoms: N_11  and  C_12
REMARK    6  A    between atoms: C_12  and  C_13
REMARK    7  A    between atoms: C_16  and  N_19
REMARK    8  A    between atoms: N_22  and  C_23
REMARK    9  A    between atoms: C_23  and  C_24
REMARK   10  A    between atoms: C_23  and  C_25
REMARK                            x       y       z     vdW  Elec       q    Type
REMARK                         _______ _______ _______ _____ _____    ______ ____
ROOT
ATOM      1  C   UNL     1       4.660  -5.559   2.903  0.00  0.00    -0.032 A 
ATOM      2  C   UNL     1       5.974  -5.886   3.187  0.00  0.00    +0.007 A 
ATOM      3  C   UNL     1       6.338  -7.209   3.349  0.00  0.00    +0.023 A 
ATOM      4  C   UNL     1       5.384  -8.210   3.225  0.00  0.00    +0.035 A 
ATOM      5  C   UNL     1       4.066  -7.878   2.940  0.00  0.00    +0.023 A 
ATOM      6  C   UNL     1       3.707  -6.554   2.785  0.00  0.00    +0.007 A 
ENDROOT
BRANCH   4   7
ATOM      7  N   UNL     1       5.750  -9.551   3.388  0.00  0.00    -0.269 N 
ATOM      8  C   UNL     1       6.960  -9.975   2.972  0.00  0.00    +0.304 C 
ATOM      9  O   UNL     1       7.765  -9.177   2.533  0.00  0.00    -0.253 OA
ATOM     10  N   UNL     1       7.277 -11.283   3.043  0.00  0.00    -0.297 N 
ATOM     11  H   UNL     1       5.133 -10.176   3.800  0.00  0.00    +0.156 HD
ATOM     12  H   UNL     1       6.634 -11.919   3.393  0.00  0.00    +0.151 HD
BRANCH  10  13
ATOM     13  C   UNL     1       8.592 -11.743   2.591  0.00  0.00    +0.068 C 
ATOM     14  C   UNL     1       8.950 -13.047   3.307  0.00  0.00    +0.027 C 
ATOM     15  C   UNL     1       8.556 -11.985   1.080  0.00  0.00    +0.027 C 
ENDBRANCH  10  13
ENDBRANCH   4   7
BRANCH   1  16
ATOM     16  C   UNL     1       4.267  -4.115   2.727  0.00  0.00    +0.141 C 
BRANCH  16  17
ATOM     17  N   UNL     1       3.875  -3.555   4.023  0.00  0.00    -0.185 NA
ATOM     18  H   UNL     1       3.688  -4.145   4.770  0.00  0.00    +0.148 HD
BRANCH  17  19
ATOM     19  S   UNL     1       3.752  -1.914   4.212  0.00  0.00    +0.065 S 
ATOM     20  O   UNL     1       4.945  -1.353   3.683  0.00  0.00    -0.153 OA
ATOM     21  O   UNL     1       3.334  -1.690   5.552  0.00  0.00    -0.153 OA
BRANCH  19  25
ATOM     22  C   UNL     1       0.755  -0.480   1.262  0.00  0.00    -0.009 A 
ATOM     23  C   UNL     1       0.256  -0.790   2.484  0.00  0.00    +0.013 A 
ATOM     24  C   UNL     1       1.117  -1.245   3.465  0.00  0.00    +0.036 A 
ATOM     25  C   UNL     1       2.436  -1.368   3.176  0.00  0.00    +0.143 A 
ATOM     26  S   UNL     1       2.492  -0.838   1.472  0.00  0.00    -0.074 S 
BRANCH  22  28
ATOM     27  C   UNL     1       0.014   1.558   0.060  0.00  0.00    +0.009 C 
ATOM     28  C   UNL     1       0.032   0.028   0.042  0.00  0.00    +0.039 C 
ENDBRANCH  22  28
ENDBRANCH  19  25
ENDBRANCH  17  19
ENDBRANCH  16  17
ENDBRANCH   1  16
TORSDOF 7
