REMARK  Name = ZINC08477942
REMARK  9 active torsions:
REMARK  status: ('A' for Active; 'I' for Inactive)
REMARK    1  A    between atoms: C_1  and  C_2
REMARK    2  A    between atoms: C_4  and  C_25
REMARK    3  A    between atoms: C_6  and  O_8
REMARK    4  A    between atoms: O_8  and  C_9
REMARK    5  A    between atoms: C_9  and  C_11
REMARK    6  A    between atoms: C_9  and  C_12
REMARK    7  A    between atoms: N_14  and  C_15
REMARK    8  A    between atoms: C_19  and  N_22
REMARK    9  A    between atoms: C_20  and  C_21
REMARK                            x       y       z     vdW  Elec       q    Type
REMARK                         _______ _______ _______ _____ _____    ______ ____
ROOT
ATOM      1  C   UNL     1      -0.381   2.331  -1.881  0.00  0.00    +0.258 C 
ATOM      2  O   UNL     1      -0.011   3.130  -2.715  0.00  0.00    -0.271 OA
ATOM      3  N   UNL     1      -1.512   1.625  -2.079  0.00  0.00    -0.282 N 
ATOM      4  H   UNL     1      -1.846   1.039  -1.381  0.00  0.00    +0.155 HD
ENDROOT
BRANCH   3   5
ATOM      5  C   UNL     1      -2.204   1.737  -3.290  0.00  0.00    +0.039 A 
ATOM      6  C   UNL     1      -2.229   2.949  -3.967  0.00  0.00    +0.024 A 
ATOM      7  C   UNL     1      -2.912   3.056  -5.163  0.00  0.00    +0.004 A 
ATOM      8  C   UNL     1      -3.571   1.958  -5.685  0.00  0.00    +0.033 A 
ATOM      9  C   UNL     1      -3.548   0.750  -5.013  0.00  0.00    +0.131 A 
ATOM     10  C   UNL     1      -2.862   0.635  -3.819  0.00  0.00    +0.001 A 
ATOM     11  C   UNL     1      -2.832  -0.684  -3.090  0.00  0.00    +0.048 C 
BRANCH   9  12
ATOM     12  N   UNL     1      -4.255  -0.423  -5.575  0.00  0.00    +0.057 N 
ATOM     13  O   UNL     1      -4.753  -0.359  -6.685  0.00  0.00    -0.126 OA
ATOM     14  O   UNL     1      -4.339  -1.451  -4.928  0.00  0.00    -0.126 OA
ENDBRANCH   9  12
ENDBRANCH   3   5
BRANCH   1  15
ATOM     15  C   UNL     1       0.423   2.129  -0.622  0.00  0.00    +0.256 C 
ATOM     16  C   UNL     1      -0.441   2.466   0.595  0.00  0.00    +0.062 C 
BRANCH  15  17
ATOM     17  O   UNL     1       1.567   2.985  -0.645  0.00  0.00    -0.480 OA
BRANCH  17  23
ATOM     18  C   UNL     1       6.029   3.956   1.077  0.00  0.00    +0.044 C 
ATOM     19  C   UNL     1       4.821   3.060   0.980  0.00  0.00    -0.047 A 
ATOM     20  C   UNL     1       4.793   1.861   1.667  0.00  0.00    +0.007 A 
ATOM     21  C   UNL     1       3.686   1.037   1.580  0.00  0.00    -0.047 A 
ATOM     22  C   UNL     1       2.605   1.411   0.806  0.00  0.00    +0.049 A 
ATOM     23  C   UNL     1       2.630   2.614   0.116  0.00  0.00    +0.122 A 
ATOM     24  C   UNL     1       3.744   3.437   0.201  0.00  0.00    +0.049 A 
ATOM     25  C   UNL     1       3.659  -0.270   2.330  0.00  0.00    +0.044 C 
ENDBRANCH  17  23
ENDBRANCH  15  17
ENDBRANCH   1  15
TORSDOF 5
