REMARK  Name = ZINC13506650
REMARK  10 active torsions:
REMARK  status: ('A' for Active; 'I' for Inactive)
REMARK    1  A    between atoms: C_1  and  C_2
REMARK    2  A    between atoms: C_5  and  N_8
REMARK    3  A    between atoms: N_8  and  C_9
REMARK    4  A    between atoms: C_9  and  C_11
REMARK    5  A    between atoms: C_9  and  C_17
REMARK    6  A    between atoms: C_14  and  C_16
REMARK    7  A    between atoms: N_19  and  C_20
REMARK    8  A    between atoms: C_25  and  C_27
REMARK    9  A    between atoms: C_27  and  N_28
REMARK   10  A    between atoms: C_29  and  C_31
REMARK                            x       y       z     vdW  Elec       q    Type
REMARK                         _______ _______ _______ _____ _____    ______ ____
ROOT
ATOM      1  N   UNL     1       0.052   1.401  -0.363  0.00  0.00    -0.251 N 
ATOM      2  C   UNL     1      -1.065   2.155  -0.347  0.00  0.00    +0.238 C 
ATOM      3  O   UNL     1      -0.991   3.343  -0.115  0.00  0.00    -0.273 OA
ENDROOT
BRANCH   1   8
ATOM      4  C   UNL     1      -0.287  -4.150  -1.484  0.00  0.00    +0.044 C 
ATOM      5  C   UNL     1      -0.197  -2.676  -1.186  0.00  0.00    -0.050 A 
ATOM      6  C   UNL     1       0.993  -2.002  -1.391  0.00  0.00    +0.005 A 
ATOM      7  C   UNL     1       1.079  -0.651  -1.120  0.00  0.00    +0.024 A 
ATOM      8  C   UNL     1      -0.031   0.032  -0.639  0.00  0.00    +0.038 A 
ATOM      9  C   UNL     1      -1.223  -0.649  -0.429  0.00  0.00    +0.024 A 
ATOM     10  C   UNL     1      -1.304  -1.999  -0.708  0.00  0.00    +0.005 A 
ENDBRANCH   1   8
BRANCH   1  11
ATOM     11  C   UNL     1       1.355   2.016  -0.096  0.00  0.00    +0.233 C 
BRANCH  11  12
ATOM     12  C   UNL     1       1.983   1.362   1.108  0.00  0.00    +0.135 A 
ATOM     13  C   UNL     1       2.672   1.992   2.075  0.00  0.00    +0.047 A 
ATOM     14  C   UNL     1       3.074   1.004   3.002  0.00  0.00    +0.045 A 
ATOM     15  C   UNL     1       2.614  -0.173   2.541  0.00  0.00    +0.102 A 
ATOM     16  O   UNL     1       1.954   0.050   1.393  0.00  0.00    -0.462 OA
ATOM     17  C   UNL     1       2.807  -1.514   3.201  0.00  0.00    +0.086 C 
ENDBRANCH  11  12
BRANCH  11  18
ATOM     18  C   UNL     1       2.252   1.831  -1.293  0.00  0.00    +0.242 C 
ATOM     19  O   UNL     1       1.844   1.243  -2.272  0.00  0.00    -0.273 OA
ATOM     20  N   UNL     1       3.509   2.318  -1.276  0.00  0.00    -0.311 N 
ATOM     21  H   UNL     1       3.835   2.788  -0.492  0.00  0.00    +0.149 HD
BRANCH  20  22
ATOM     22  C   UNL     1       4.380   2.138  -2.439  0.00  0.00    +0.073 C 
ATOM     23  C   UNL     1       5.133   0.796  -2.333  0.00  0.00    +0.022 C 
ATOM     24  C   UNL     1       6.538   1.101  -2.907  0.00  0.00    +0.002 C 
ATOM     25  C   UNL     1       6.819   2.531  -2.381  0.00  0.00    +0.002 C 
ATOM     26  C   UNL     1       5.453   3.242  -2.470  0.00  0.00    +0.022 C 
ENDBRANCH  20  22
ENDBRANCH  11  18
ENDBRANCH   1  11
BRANCH   2  27
ATOM     27  C   UNL     1      -2.405   1.521  -0.617  0.00  0.00    +0.201 C 
BRANCH  27  28
ATOM     28  N   UNL     1      -3.328   2.534  -1.135  0.00  0.00    -0.300 N 
ATOM     29  C   UNL     1      -4.594   2.194  -1.449  0.00  0.00    +0.280 C 
ATOM     30  O   UNL     1      -4.970   1.046  -1.302  0.00  0.00    -0.267 OA
ATOM     31  H   UNL     1      -3.029   3.449  -1.251  0.00  0.00    +0.150 HD
BRANCH  29  32
ATOM     32  C   UNL     1      -5.518   3.208  -1.967  0.00  0.00    +0.189 A 
ATOM     33  C   UNL     1      -6.820   3.000  -2.323  0.00  0.00    +0.054 A 
ATOM     34  C   UNL     1      -7.321   4.236  -2.760  0.00  0.00    +0.042 A 
ATOM     35  C   UNL     1      -6.316   5.133  -2.654  0.00  0.00    +0.196 A 
ATOM     36  O   UNL     1      -5.233   4.511  -2.171  0.00  0.00    -0.458 OA
ENDBRANCH  29  32
ENDBRANCH  27  28
ENDBRANCH   2  27
TORSDOF 8
