REMARK  Name = ZINC03183574
REMARK  4 active torsions:
REMARK  status: ('A' for Active; 'I' for Inactive)
REMARK    1  A    between atoms: C_1  and  C_2
REMARK    2  A    between atoms: C_3  and  C_12
REMARK    3  A    between atoms: N_13  and  C_14
REMARK    4  A    between atoms: C_18  and  N_20
REMARK                            x       y       z     vdW  Elec       q    Type
REMARK                         _______ _______ _______ _____ _____    ______ ____
ROOT
ATOM      1  C   UNL     1      -0.006  -0.321  -2.509  0.00  0.00    +0.121 C 
ATOM      2  N   UNL     1      -0.026   0.958  -2.772  0.00  0.00    -0.255 NA
ENDROOT
BRANCH   1   5
ATOM      3  C   UNL     1      -0.018   1.503   0.010  0.00  0.00    +0.064 C 
ATOM      4  C   UNL     1       0.002  -0.004   0.002  0.00  0.00    +0.023 A 
ATOM      5  C   UNL     1       0.007  -0.784  -1.118  0.00  0.00    +0.021 A 
ATOM      6  C   UNL     1       0.030  -2.183  -0.653  0.00  0.00    +0.009 A 
ATOM      7  C   UNL     1       0.043  -3.417  -1.300  0.00  0.00    +0.010 A 
ATOM      8  C   UNL     1       0.062  -4.576  -0.557  0.00  0.00    +0.001 A 
ATOM      9  C   UNL     1       0.068  -4.519   0.830  0.00  0.00    +0.002 A 
ATOM     10  C   UNL     1       0.054  -3.306   1.482  0.00  0.00    +0.026 A 
ATOM     11  C   UNL     1       0.036  -2.123   0.749  0.00  0.00    +0.047 A 
ATOM     12  N   UNL     1       0.024  -0.791   1.108  0.00  0.00    -0.358 N 
ATOM     13  H   UNL     1       0.028  -0.464   2.021  0.00  0.00    +0.166 HD
ENDBRANCH   1   5
BRANCH   2  14
ATOM     14  C   UNL     1      -0.038   1.390  -4.070  0.00  0.00    +0.066 A 
ATOM     15  C   UNL     1       0.815   0.809  -5.011  0.00  0.00    +0.029 A 
ATOM     16  C   UNL     1       0.797   1.248  -6.318  0.00  0.00    +0.024 A 
ATOM     17  C   UNL     1      -0.065   2.264  -6.699  0.00  0.00    +0.071 A 
ATOM     18  C   UNL     1      -0.913   2.844  -5.771  0.00  0.00    +0.146 A 
ATOM     19  C   UNL     1      -0.909   2.409  -4.462  0.00  0.00    +0.062 A 
ATOM     20 CL   UNL     1      -0.081   2.812  -8.346  0.00  0.00    -0.081 Cl
BRANCH  18  21
ATOM     21  N   UNL     1      -1.830   3.929  -6.186  0.00  0.00    +0.058 N 
ATOM     22  O   UNL     1      -2.571   4.437  -5.377  0.00  0.00    -0.126 OA
ATOM     23  O   UNL     1      -1.838   4.308  -7.334  0.00  0.00    -0.126 OA
ENDBRANCH  18  21
ENDBRANCH   2  14
TORSDOF 3
