REMARK  Name = ZINC08766243
REMARK  6 active torsions:
REMARK  status: ('A' for Active; 'I' for Inactive)
REMARK    1  A    between atoms: C_1  and  C_2
REMARK    2  A    between atoms: C_5  and  N_7
REMARK    3  A    between atoms: N_9  and  C_28
REMARK    4  A    between atoms: N_20  and  C_23
REMARK    5  A    between atoms: C_23  and  C_24
REMARK    6  A    between atoms: C_28  and  C_29
REMARK                            x       y       z     vdW  Elec       q    Type
REMARK                         _______ _______ _______ _____ _____    ______ ____
ROOT
ATOM      1  N   UNL     1       0.458  -4.061   0.763  0.00  0.00    -0.198 NA
ATOM      2  C   UNL     1       0.168  -4.948  -0.163  0.00  0.00    +0.171 C 
ATOM      3  N   UNL     1       0.004  -4.748  -1.515  0.00  0.00    -0.242 N 
ATOM      4  C   UNL     1      -0.288  -5.758  -2.318  0.00  0.00    +0.260 C 
ATOM      5  O   UNL     1      -0.436  -5.600  -3.514  0.00  0.00    -0.269 OA
ATOM      6  C   UNL     1      -0.427  -7.095  -1.684  0.00  0.00    +0.090 C 
ATOM      7  C   UNL     1      -0.723  -8.315  -2.264  0.00  0.00    +0.065 C 
ATOM      8  C   UNL     1      -1.144  -8.570  -3.658  0.00  0.00    +0.010 A 
ATOM      9  C   UNL     1      -1.365  -7.740  -4.754  0.00  0.00    +0.010 A 
ATOM     10  C   UNL     1      -1.764  -8.288  -5.957  0.00  0.00    +0.001 A 
ATOM     11  C   UNL     1      -1.945  -9.656  -6.071  0.00  0.00    +0.002 A 
ATOM     12  C   UNL     1      -1.729 -10.487  -4.990  0.00  0.00    +0.024 A 
ATOM     13  C   UNL     1      -1.326  -9.956  -3.770  0.00  0.00    +0.045 A 
ATOM     14  N   UNL     1      -1.046 -10.555  -2.548  0.00  0.00    -0.256 N 
ATOM     15  C   UNL     1      -0.681  -9.646  -1.628  0.00  0.00    +0.253 C 
ATOM     16  O   UNL     1      -0.374  -9.878  -0.474  0.00  0.00    -0.270 OA
ATOM     17  S   UNL     1      -0.101  -6.702   0.029  0.00  0.00    -0.048 S 
ENDROOT
BRANCH   1  22
ATOM     18  C   UNL     1      -0.203   1.295  -0.300  0.00  0.00    +0.075 C 
ATOM     19  C   UNL     1       0.175  -0.145  -0.065  0.00  0.00    +0.101 A 
ATOM     20  N   UNL     1       1.338  -0.750  -0.215  0.00  0.00    -0.145 NA
ATOM     21  N   UNL     1       1.493  -1.978   0.028  0.00  0.00    -0.121 NA
ATOM     22  C   UNL     1       0.485  -2.739   0.454  0.00  0.00    +0.217 A 
ATOM     23  S   UNL     1      -0.823  -1.517   0.506  0.00  0.00    -0.031 S 
ENDBRANCH   1  22
BRANCH  14  24
ATOM     24  C   UNL     1      -1.131 -11.996  -2.296  0.00  0.00    +0.239 C 
BRANCH  24  25
ATOM     25  C   UNL     1       0.199 -12.638  -2.593  0.00  0.00    +0.373 C 
ATOM     26  O   UNL     1       1.132 -11.955  -2.980  0.00  0.00    -0.245 OA
ATOM     27  O   UNL     1       0.343 -13.840  -2.447  0.00  0.00    -0.245 OA
ENDBRANCH  24  25
ENDBRANCH  14  24
BRANCH   3  28
ATOM     28  C   UNL     1       0.156  -3.401  -2.072  0.00  0.00    +0.142 C 
BRANCH  28  29
ATOM     29  C   UNL     1       1.615  -3.125  -2.328  0.00  0.00    -0.015 C 
ATOM     30  C   UNL     1       2.012  -2.758  -3.521  0.00  0.00    +0.005 C 
ENDBRANCH  28  29
ENDBRANCH   3  28
TORSDOF 5
