REMARK  Name = ZINC01198044
REMARK  5 active torsions:
REMARK  status: ('A' for Active; 'I' for Inactive)
REMARK    1  A    between atoms: C_1  and  C_2
REMARK    2  A    between atoms: C_5  and  C_26
REMARK    3  A    between atoms: C_6  and  C_8
REMARK    4  A    between atoms: C_20  and  S_23
REMARK    5  A    between atoms: S_23  and  C_24
REMARK                            x       y       z     vdW  Elec       q    Type
REMARK                         _______ _______ _______ _____ _____    ______ ____
ROOT
ATOM      1  C   UNL     1       1.662  -2.635   1.165  0.00  0.00    +0.294 C 
ATOM      2  N   UNL     1       2.867  -1.951   1.626  0.00  0.00    -0.305 N 
ATOM      3  C   UNL     1       3.827  -1.569   0.684  0.00  0.00    +0.039 A 
ATOM      4  C   UNL     1       5.067  -2.178   0.631  0.00  0.00    +0.024 A 
ATOM      5  C   UNL     1       5.987  -1.785  -0.324  0.00  0.00    +0.002 A 
ATOM      6  C   UNL     1       5.673  -0.786  -1.229  0.00  0.00    +0.001 A 
ATOM      7  C   UNL     1       4.440  -0.165  -1.186  0.00  0.00    +0.012 A 
ATOM      8  C   UNL     1       3.509  -0.544  -0.227  0.00  0.00    +0.028 A 
ATOM      9  C   UNL     1       2.192   0.117  -0.124  0.00  0.00    +0.156 A 
ATOM     10  C   UNL     1       1.024  -0.670  -0.003  0.00  0.00    +0.248 A 
ATOM     11  N   UNL     1      -0.145  -0.060   0.100  0.00  0.00    -0.184 NA
ATOM     12  C   UNL     1      -0.189   1.269   0.082  0.00  0.00    +0.212 A 
ATOM     13  N   UNL     1       0.919   1.989  -0.037  0.00  0.00    -0.122 NA
ATOM     14  N   UNL     1       2.079   1.436  -0.138  0.00  0.00    -0.141 NA
ATOM     15  O   UNL     1       1.118  -2.021   0.002  0.00  0.00    -0.449 OA
ATOM     16  H   UNL     1       2.999  -1.765   2.569  0.00  0.00    +0.150 HD
ENDROOT
BRANCH   1  22
ATOM     17  C   UNL     1       2.888  -6.168  -2.160  0.00  0.00    +0.044 C 
ATOM     18  C   UNL     1       2.588  -5.759  -0.741  0.00  0.00    -0.050 A 
ATOM     19  C   UNL     1       2.623  -6.700   0.272  0.00  0.00    +0.003 A 
ATOM     20  C   UNL     1       2.348  -6.325   1.573  0.00  0.00    +0.004 A 
ATOM     21  C   UNL     1       2.037  -5.009   1.862  0.00  0.00    -0.042 A 
ATOM     22  C   UNL     1       2.002  -4.069   0.850  0.00  0.00    +0.014 A 
ATOM     23  C   UNL     1       2.272  -4.445  -0.453  0.00  0.00    +0.012 A 
ATOM     24  C   UNL     1       1.736  -4.600   3.281  0.00  0.00    +0.044 C 
ENDBRANCH   1  22
BRANCH  12  25
ATOM     25  S   UNL     1      -1.744   2.087   0.212  0.00  0.00    -0.088 S 
ATOM     26  C   UNL     1      -1.200   3.811   0.134  0.00  0.00    +0.093 C 
ENDBRANCH  12  25
TORSDOF 2
