REMARK  Name = ZINC10902287
REMARK  9 active torsions:
REMARK  status: ('A' for Active; 'I' for Inactive)
REMARK    1  A    between atoms: C_1  and  C_2
REMARK    2  A    between atoms: C_5  and  C_8
REMARK    3  A    between atoms: N_14  and  C_15
REMARK    4  A    between atoms: C_15  and  C_16
REMARK    5  A    between atoms: C_16  and  C_17
REMARK    6  A    between atoms: N_19  and  C_20
REMARK    7  A    between atoms: N_19  and  C_21
REMARK    8  A    between atoms: C_21  and  C_22
REMARK    9  A    between atoms: C_24  and  N_29
REMARK                            x       y       z     vdW  Elec       q    Type
REMARK                         _______ _______ _______ _____ _____    ______ ____
ROOT
ATOM      1  C   UNL     1      -0.436   1.449  -0.143  0.00  0.00    +0.117 C 
ENDROOT
BRANCH   1   2
ATOM      2  C   UNL     1      -0.956   1.867   1.208  0.00  0.00    +0.217 C 
ATOM      3  O   UNL     1      -1.926   2.590   1.288  0.00  0.00    -0.276 OA
ATOM      4  N   UNL     1      -0.342   1.437   2.329  0.00  0.00    -0.300 N 
ATOM      5  C   UNL     1       0.888   0.647   2.233  0.00  0.00    +0.132 C 
BRANCH   4   6
ATOM      6  C   UNL     1      -0.906   1.759   3.642  0.00  0.00    +0.144 C 
BRANCH   6   7
ATOM      7  C   UNL     1      -0.340   3.070   4.124  0.00  0.00    -0.010 A 
ATOM      8  C   UNL     1      -1.067   4.236   3.967  0.00  0.00    +0.039 A 
ATOM      9  C   UNL     1      -0.550   5.437   4.414  0.00  0.00    +0.127 A 
ATOM     10  C   UNL     1       0.698   5.476   5.007  0.00  0.00    +0.034 A 
ATOM     11  C   UNL     1       1.428   4.312   5.159  0.00  0.00    +0.022 A 
ATOM     12  C   UNL     1       0.909   3.108   4.717  0.00  0.00    +0.046 A 
ATOM     13 CL   UNL     1       1.825   1.646   4.908  0.00  0.00    -0.083 Cl
BRANCH   9  14
ATOM     14  N   UNL     1      -1.331   6.684   4.251  0.00  0.00    +0.056 N 
ATOM     15  O   UNL     1      -0.873   7.744   4.639  0.00  0.00    -0.126 OA
ATOM     16  O   UNL     1      -2.430   6.650   3.728  0.00  0.00    -0.126 OA
ENDBRANCH   9  14
ENDBRANCH   6   7
ENDBRANCH   4   6
ENDBRANCH   1   2
BRANCH   1  17
ATOM     17  C   UNL     1      -1.306   2.069  -1.238  0.00  0.00    +0.135 C 
BRANCH  17  24
ATOM     18  C   UNL     1       0.068   2.388  -3.344  0.00  0.00    +0.163 A 
ATOM     19  N   UNL     1       0.296   1.712  -4.435  0.00  0.00    -0.153 NA
ATOM     20  N   UNL     1      -0.442   0.522  -4.370  0.00  0.00    -0.254 N 
ATOM     21  H   UNL     1      -0.469  -0.174  -5.046  0.00  0.00    +0.191 HD
ATOM     22  C   UNL     1      -1.108   0.520  -3.197  0.00  0.00    +0.176 A 
ATOM     23  S   UNL     1      -2.154  -0.711  -2.631  0.00  0.00    -0.011 S 
ATOM     24  N   UNL     1      -0.800   1.663  -2.552  0.00  0.00    -0.303 N 
BRANCH  18  29
ATOM     25  C   UNL     1       2.314   7.525  -2.042  0.00  0.00    +0.044 C 
ATOM     26  C   UNL     1       1.726   6.180  -2.383  0.00  0.00    -0.050 A 
ATOM     27  C   UNL     1       1.674   5.765  -3.702  0.00  0.00    +0.004 A 
ATOM     28  C   UNL     1       1.136   4.535  -4.021  0.00  0.00    +0.012 A 
ATOM     29  C   UNL     1       0.646   3.708  -3.010  0.00  0.00    +0.019 A 
ATOM     30  C   UNL     1       0.696   4.135  -1.682  0.00  0.00    +0.012 A 
ATOM     31  C   UNL     1       1.241   5.365  -1.376  0.00  0.00    +0.004 A 
ENDBRANCH  18  29
ENDBRANCH  17  24
ENDBRANCH   1  17
TORSDOF 7
