REMARK  Name = ZINC64186106
REMARK  11 active torsions:
REMARK  status: ('A' for Active; 'I' for Inactive)
REMARK    1  A    between atoms: C_1  and  C_2
REMARK    2  A    between atoms: C_3  and  C_16
REMARK    3  A    between atoms: C_4  and  C_15
REMARK    4  A    between atoms: C_9  and  C_11
REMARK    5  A    between atoms: C_16  and  C_17
REMARK    6  A    between atoms: N_19  and  C_20
REMARK    7  A    between atoms: C_20  and  C_22
REMARK    8  A    between atoms: C_20  and  C_32
REMARK    9  A    between atoms: C_22  and  C_23
REMARK   10  A    between atoms: C_32  and  O_34
REMARK   11  A    between atoms: O_34  and  C_35
REMARK                            x       y       z     vdW  Elec       q    Type
REMARK                         _______ _______ _______ _____ _____    ______ ____
ROOT
ATOM      1  C   UNL     1      -2.893   0.356   1.435  0.00  0.00    +0.218 C 
ATOM      2  O   UNL     1      -2.160   0.039   2.347  0.00  0.00    -0.275 OA
ATOM      3  N   UNL     1      -4.040   1.016   1.690  0.00  0.00    -0.302 N 
ATOM      4  H   UNL     1      -4.627   1.270   0.960  0.00  0.00    +0.150 HD
ENDROOT
BRANCH   1   5
ATOM      5  C   UNL     1      -2.521   0.013   0.015  0.00  0.00    +0.134 C 
BRANCH   5   8
ATOM      6  C   UNL     1      -0.018   1.503   0.010  0.00  0.00    +0.066 C 
ATOM      7  C   UNL     1       0.002  -0.004   0.002  0.00  0.00    +0.047 A 
ATOM      8  C   UNL     1      -1.203  -0.717   0.004  0.00  0.00    +0.004 A 
ATOM      9  C   UNL     1      -1.170  -2.075  -0.004  0.00  0.00    +0.049 A 
ATOM     10  N   UNL     1       0.034  -2.706  -0.014  0.00  0.00    -0.200 N 
ATOM     11  C   UNL     1       1.192  -1.980  -0.015  0.00  0.00    +0.254 A 
ATOM     12  N   UNL     1       1.150  -0.642  -0.012  0.00  0.00    -0.216 NA
ATOM     13  N   UNL     1       2.199  -2.846  -0.025  0.00  0.00    -0.186 NA
ATOM     14  C   UNL     1       1.725  -4.084  -0.030  0.00  0.00    +0.257 A 
ATOM     15  N   UNL     1       0.413  -4.054  -0.023  0.00  0.00    -0.139 NA
ATOM     16  C   UNL     1      -2.450  -2.870  -0.002  0.00  0.00    +0.066 C 
BRANCH  14  17
ATOM     17  C   UNL     1       2.565  -5.336  -0.042  0.00  0.00    +0.454 C 
ATOM     18  F   UNL     1       3.884  -5.015   0.295  0.00  0.00    -0.163 F 
ATOM     19  F   UNL     1       2.055  -6.248   0.888  0.00  0.00    -0.163 F 
ATOM     20  F   UNL     1       2.535  -5.905  -1.319  0.00  0.00    -0.163 F 
ENDBRANCH  14  17
ENDBRANCH   5   8
ENDBRANCH   1   5
BRANCH   3  21
ATOM     21  C   UNL     1      -4.402   1.350   3.070  0.00  0.00    +0.186 C 
BRANCH  21  22
ATOM     22  C   UNL     1      -3.739   2.644   3.464  0.00  0.00    +0.328 C 
ATOM     23  O   UNL     1      -3.037   3.228   2.673  0.00  0.00    -0.249 OA
BRANCH  22  24
ATOM     24  O   UNL     1      -3.929   3.149   4.693  0.00  0.00    -0.467 OA
ATOM     25  C   UNL     1      -3.270   4.379   4.998  0.00  0.00    +0.280 C 
ENDBRANCH  22  24
ENDBRANCH  21  22
BRANCH  21  26
ATOM     26  C   UNL     1      -5.921   1.501   3.176  0.00  0.00    +0.067 C 
BRANCH  26  27
ATOM     27  C   UNL     1      -6.579   0.173   2.902  0.00  0.00    -0.039 C 
ATOM     28  C   UNL     1      -6.974  -0.743   3.815  0.00  0.00    -0.001 A 
ATOM     29  C   UNL     1      -6.910  -0.777   5.281  0.00  0.00    +0.010 A 
ATOM     30  C   UNL     1      -7.398  -1.856   5.934  0.00  0.00    +0.001 A 
ATOM     31  C   UNL     1      -7.960  -2.941   5.247  0.00  0.00    +0.002 A 
ATOM     32  C   UNL     1      -8.054  -2.983   3.901  0.00  0.00    +0.026 A 
ATOM     33  C   UNL     1      -7.573  -1.901   3.113  0.00  0.00    +0.043 A 
ATOM     34  N   UNL     1      -7.549  -1.708   1.817  0.00  0.00    -0.380 N 
ATOM     35  C   UNL     1      -6.937  -0.401   1.549  0.00  0.00    +0.144 C 
ATOM     36  H   UNL     1      -7.884  -2.324   1.147  0.00  0.00    +0.160 HD
ENDBRANCH  26  27
ENDBRANCH  21  26
ENDBRANCH   3  21
TORSDOF 8
