REMARK  Name = ZINC06443583
REMARK  12 active torsions:
REMARK  status: ('A' for Active; 'I' for Inactive)
REMARK    1  A    between atoms: C_1  and  C_2
REMARK    2  A    between atoms: C_12  and  C_14
REMARK    3  A    between atoms: C_14  and  C_16
REMARK    4  A    between atoms: C_14  and  N_67
REMARK    5  A    between atoms: N_20  and  C_21
REMARK    6  A    between atoms: C_21  and  C_22
REMARK    7  A    between atoms: C_21  and  C_23
REMARK    8  A    between atoms: C_21  and  C_24
REMARK    9  A    between atoms: C_25  and  C_26
REMARK   10  A    between atoms: C_25  and  N_67
REMARK   11  A    between atoms: C_31  and  C_32
REMARK   12  A    between atoms: C_31  and  N_67
REMARK                            x       y       z     vdW  Elec       q    Type
REMARK                         _______ _______ _______ _____ _____    ______ ____
ROOT
ATOM      1  C   UNL     1      -3.846   6.813  -0.449  0.00  0.00    +0.039 C 
ENDROOT
BRANCH   1  13
ATOM      2  C   UNL     1       2.542   8.352  -0.607  0.00  0.00    +0.046 C 
ATOM      3  C   UNL     1       1.837   7.022  -0.670  0.00  0.00    -0.026 A 
ATOM      4  C   UNL     1       2.566   5.857  -0.780  0.00  0.00    +0.005 A 
ATOM      5  C   UNL     1       1.929   4.625  -0.840  0.00  0.00    +0.001 A 
ATOM      6  C   UNL     1       0.566   4.545  -0.794  0.00  0.00    +0.010 A 
ATOM      7  C   UNL     1      -0.194   5.713  -0.676  0.00  0.00    -0.001 A 
ATOM      8  C   UNL     1       0.449   6.964  -0.616  0.00  0.00    +0.052 A 
ATOM      9  N   UNL     1      -0.305   8.113  -0.506  0.00  0.00    -0.322 N 
ATOM     10  H   UNL     1       0.139   8.975  -0.465  0.00  0.00    +0.169 HD
ATOM     11  C   UNL     1      -1.648   8.057  -0.454  0.00  0.00    +0.251 A 
ATOM     12  O   UNL     1      -2.282   9.093  -0.355  0.00  0.00    -0.268 OA
ATOM     13  C   UNL     1      -2.340   6.829  -0.510  0.00  0.00    +0.011 A 
ATOM     14  C   UNL     1      -1.656   5.663  -0.619  0.00  0.00    +0.017 A 
ENDBRANCH   1  13
BRANCH   1  15
ATOM     15  C   UNL     1      -4.299   7.298   0.904  0.00  0.00    +0.143 A 
ATOM     16  N   UNL     1      -4.213   8.522   1.365  0.00  0.00    -0.115 NA
ATOM     17  N   UNL     1      -4.707   8.535   2.555  0.00  0.00    -0.023 NA
ATOM     18  N   UNL     1      -5.105   7.350   2.865  0.00  0.00    -0.043 NA
ATOM     19  N   UNL     1      -4.876   6.561   1.871  0.00  0.00    -0.225 N 
BRANCH  19  20
ATOM     20  C   UNL     1      -5.182   5.130   1.808  0.00  0.00    +0.059 C 
ATOM     21  C   UNL     1      -3.900   4.346   1.521  0.00  0.00    +0.036 C 
ATOM     22  C   UNL     1      -5.770   4.675   3.144  0.00  0.00    +0.036 C 
ATOM     23  C   UNL     1      -6.196   4.874   0.691  0.00  0.00    +0.036 C 
ENDBRANCH  19  20
ENDBRANCH   1  15
BRANCH   1  24
ATOM     24  N   UNL     1      -4.383   7.721  -1.484  0.00  0.00    +0.394 N 
ATOM     25  H   UNL     1      -4.204   8.691  -1.202  0.00  0.00    -0.080 HD
BRANCH  24  26
ATOM     26  C   UNL     1      -3.713   7.465  -2.777  0.00  0.00    -0.034 C 
BRANCH  26  27
ATOM     27  C   UNL     1      -3.997   8.618  -3.705  0.00  0.00    -0.027 A 
ATOM     28  C   UNL     1      -3.277   9.749  -3.906  0.00  0.00    +0.009 A 
ATOM     29  C   UNL     1      -3.732  10.679  -4.822  0.00  0.00    +0.008 A 
ATOM     30  C   UNL     1      -4.890  10.438  -5.484  0.00  0.00    +0.045 A 
ATOM     31  S   UNL     1      -5.371   8.852  -4.820  0.00  0.00    -0.103 S 
ENDBRANCH  26  27
ENDBRANCH  24  26
BRANCH  24  32
ATOM     32  C   UNL     1      -5.841   7.523  -1.623  0.00  0.00    -0.045 C 
BRANCH  32  33
ATOM     33  C   UNL     1      -6.546   8.267  -0.488  0.00  0.00    +0.102 C 
ATOM     34  C   UNL     1      -8.079   8.149  -0.638  0.00  0.00    +0.032 C 
ATOM     35  C   UNL     1      -8.608   9.529  -0.186  0.00  0.00    +0.030 C 
ATOM     36  C   UNL     1      -7.332  10.317   0.184  0.00  0.00    +0.160 C 
ATOM     37  O   UNL     1      -6.275   9.683  -0.570  0.00  0.00    -0.378 OA
ENDBRANCH  32  33
ENDBRANCH  24  32
ENDBRANCH   1  24
TORSDOF 8
