REMARK  Name = ZINC09798671
REMARK  9 active torsions:
REMARK  status: ('A' for Active; 'I' for Inactive)
REMARK    1  A    between atoms: C_3  and  O_28
REMARK    2  A    between atoms: C_6  and  C_7
REMARK    3  A    between atoms: C_8  and  C_9
REMARK    4  A    between atoms: C_9  and  O_11
REMARK    5  A    between atoms: O_11  and  C_12
REMARK    6  A    between atoms: C_12  and  C_13
REMARK    7  A    between atoms: N_15  and  N_16
REMARK    8  A    between atoms: O_28  and  C_29
REMARK    9  A    between atoms: C_29  and  C_30
REMARK                            x       y       z     vdW  Elec       q    Type
REMARK                         _______ _______ _______ _____ _____    ______ ____
ROOT
ATOM      1  C   UNL     1       1.030   3.502   0.011  0.00  0.00    +0.267 C 
ATOM      2  O   UNL     1      -0.097   3.950   0.024  0.00  0.00    -0.271 OA
ATOM      3  N   UNL     1       2.088   4.338   0.005  0.00  0.00    -0.221 N 
ATOM      4  H   UNL     1       2.989   3.979  -0.005  0.00  0.00    +0.174 HD
ENDROOT
BRANCH   3   5
ATOM      5  N   UNL     1       1.886   5.724   0.015  0.00  0.00    -0.137 N 
ATOM      6  C   UNL     1       2.072   6.510   1.095  0.00  0.00    +0.263 C 
ATOM      7  O   UNL     1       2.433   6.166   2.200  0.00  0.00    -0.271 OA
ATOM      8  C   UNL     1       1.737   7.911   0.638  0.00  0.00    +0.114 C 
ATOM      9  C   UNL     1       2.955   8.819   0.768  0.00  0.00    +0.035 C 
ATOM     10  C   UNL     1       2.603  10.224   0.274  0.00  0.00    +0.003 C 
ATOM     11  C   UNL     1       1.443  10.779   1.102  0.00  0.00    +0.000 C 
ATOM     12  C   UNL     1       0.221   9.872   0.942  0.00  0.00    +0.003 C 
ATOM     13  C   UNL     1       0.563   8.465   1.438  0.00  0.00    +0.035 C 
ATOM     14  N   UNL     1       1.366   7.746  -0.773  0.00  0.00    -0.284 N 
ATOM     15  C   UNL     1       1.489   6.434  -1.049  0.00  0.00    +0.326 C 
ATOM     16  O   UNL     1       1.262   5.947  -2.139  0.00  0.00    -0.251 OA
ATOM     17  H   UNL     1       1.090   8.445  -1.387  0.00  0.00    +0.151 HD
ENDBRANCH   3   5
BRANCH   1  18
ATOM     18  C   UNL     1       1.248   2.011   0.001  0.00  0.00    +0.329 C 
BRANCH  18  19
ATOM     19  O   UNL     1      -0.016   1.345   0.009  0.00  0.00    -0.452 OA
BRANCH  19  20
ATOM     20  C   UNL     1       0.002  -0.004   0.002  0.00  0.00    +0.332 C 
ATOM     21  O   UNL     1       1.064  -0.598  -0.011  0.00  0.00    -0.246 OA
BRANCH  20  23
ATOM     22  C   UNL     1      -1.198  -2.080   0.002  0.00  0.00    +0.015 C 
ATOM     23  C   UNL     1      -1.216  -0.730   0.010  0.00  0.00    +0.092 C 
BRANCH  22  29
ATOM     24  C   UNL     1      -3.683  -2.151   0.032  0.00  0.00    +0.011 A 
ATOM     25  C   UNL     1      -4.863  -2.861   0.034  0.00  0.00    +0.046 A 
ATOM     26  C   UNL     1      -4.841  -4.251   0.026  0.00  0.00    +0.122 A 
ATOM     27  C   UNL     1      -3.629  -4.932   0.011  0.00  0.00    +0.046 A 
ATOM     28  C   UNL     1      -2.444  -4.232   0.003  0.00  0.00    +0.011 A 
ATOM     29  C   UNL     1      -2.460  -2.832   0.010  0.00  0.00    -0.025 A 
BRANCH  26  30
ATOM     30  O   UNL     1      -6.008  -4.945   0.035  0.00  0.00    -0.477 OA
BRANCH  30  31
ATOM     31  C   UNL     1      -7.216  -4.183   0.051  0.00  0.00    +0.346 C 
BRANCH  31  32
ATOM     32  C   UNL     1      -8.371  -5.096   0.058  0.00  0.00    +0.104 C 
ATOM     33  N   UNL     1      -9.263  -5.800   0.063  0.00  0.00    -0.193 NA
ENDBRANCH  31  32
ENDBRANCH  30  31
ENDBRANCH  26  30
ENDBRANCH  22  29
ENDBRANCH  20  23
ENDBRANCH  19  20
ENDBRANCH  18  19
ENDBRANCH   1  18
TORSDOF 9
