REMARK  Name = ZINC10380025
REMARK  12 active torsions:
REMARK  status: ('A' for Active; 'I' for Inactive)
REMARK    1  A    between atoms: C_1  and  C_2
REMARK    2  A    between atoms: C_2  and  N_3
REMARK    3  A    between atoms: C_7  and  S_28
REMARK    4  A    between atoms: C_11  and  S_12
REMARK    5  A    between atoms: S_12  and  C_13
REMARK    6  A    between atoms: C_13  and  C_14
REMARK    7  A    between atoms: N_16  and  C_17
REMARK    8  A    between atoms: C_17  and  C_19
REMARK    9  A    between atoms: C_17  and  C_25
REMARK   10  A    between atoms: C_25  and  C_26
REMARK   11  A    between atoms: C_25  and  C_27
REMARK   12  A    between atoms: S_28  and  N_31
REMARK                            x       y       z     vdW  Elec       q    Type
REMARK                         _______ _______ _______ _____ _____    ______ ____
ROOT
ATOM      1  N   UNL     1      -3.044   5.776   0.053  0.00  0.00    -0.319 N 
ATOM      2  C   UNL     1      -4.429   5.822   0.054  0.00  0.00    +0.070 A 
ATOM      3  C   UNL     1      -5.356   6.853   0.064  0.00  0.00    +0.030 A 
ATOM      4  C   UNL     1      -6.705   6.563   0.069  0.00  0.00    +0.030 A 
ATOM      5  C   UNL     1      -7.141   5.247   0.065  0.00  0.00    +0.107 A 
ATOM      6  C   UNL     1      -6.234   4.210   0.055  0.00  0.00    +0.058 A 
ATOM      7  C   UNL     1      -4.865   4.487   0.050  0.00  0.00    +0.092 A 
ATOM      8  N   UNL     1      -3.754   3.704   0.040  0.00  0.00    -0.222 NA
ATOM      9  C   UNL     1      -2.683   4.458   0.039  0.00  0.00    +0.170 A 
ENDROOT
BRANCH   5  10
ATOM     10  S   UNL     1      -8.868   4.897   0.071  0.00  0.00    +0.056 S 
ATOM     11  O   UNL     1      -9.016   3.593   0.617  0.00  0.00    -0.153 OA
ATOM     12  O   UNL     1      -9.510   6.034   0.631  0.00  0.00    -0.153 OA
BRANCH  10  13
ATOM     13  N   UNL     1      -9.356   4.808  -1.509  0.00  0.00    -0.204 NA
ATOM     14  H   UNL     1     -10.095   4.231  -1.756  0.00  0.00    +0.144 HD
ATOM     15  H   UNL     1      -8.902   5.332  -2.187  0.00  0.00    +0.144 HD
ENDBRANCH  10  13
ENDBRANCH   5  10
BRANCH   1  17
ATOM     16  C   UNL     1      -1.825   7.341  -1.377  0.00  0.00    +0.027 C 
ATOM     17  C   UNL     1      -2.136   6.926   0.062  0.00  0.00    +0.121 C 
ENDBRANCH   1  17
BRANCH   9  18
ATOM     18  S   UNL     1      -1.025   3.863   0.028  0.00  0.00    -0.078 S 
BRANCH  18  19
ATOM     19  C   UNL     1      -1.331   2.079   0.020  0.00  0.00    +0.173 C 
BRANCH  19  20
ATOM     20  C   UNL     1      -0.016   1.344   0.009  0.00  0.00    +0.224 C 
ATOM     21  O   UNL     1       1.026   1.964   0.003  0.00  0.00    -0.275 OA
ATOM     22  N   UNL     1       0.002  -0.004   0.002  0.00  0.00    -0.308 N 
ATOM     23  H   UNL     1      -0.831  -0.500   0.007  0.00  0.00    +0.149 HD
BRANCH  22  24
ATOM     24  C   UNL     1       1.281  -0.719  -0.014  0.00  0.00    +0.106 C 
BRANCH  24  25
ATOM     25  C   UNL     1       1.096  -2.091   0.581  0.00  0.00    -0.027 A 
ATOM     26  C   UNL     1      -0.045  -2.819   0.299  0.00  0.00    +0.005 A 
ATOM     27  C   UNL     1      -0.212  -4.080   0.842  0.00  0.00    +0.000 A 
ATOM     28  C   UNL     1       0.757  -4.609   1.673  0.00  0.00    +0.000 A 
ATOM     29  C   UNL     1       1.896  -3.879   1.958  0.00  0.00    +0.000 A 
ATOM     30  C   UNL     1       2.065  -2.620   1.412  0.00  0.00    +0.005 A 
ENDBRANCH  24  25
BRANCH  24  31
ATOM     31  C   UNL     1       1.773  -0.851  -1.456  0.00  0.00    +0.008 C 
ATOM     32  C   UNL     1       1.961   0.542  -2.061  0.00  0.00    +0.009 C 
ATOM     33  C   UNL     1       3.108  -1.598  -1.473  0.00  0.00    +0.009 C 
ENDBRANCH  24  31
ENDBRANCH  22  24
ENDBRANCH  19  20
ENDBRANCH  18  19
ENDBRANCH   9  18
TORSDOF 9
