REMARK  Name = ZINC39479101
REMARK  5 active torsions:
REMARK  status: ('A' for Active; 'I' for Inactive)
REMARK    1  A    between atoms: C_1  and  C_2
REMARK    2  A    between atoms: C_7  and  C_12
REMARK    3  A    between atoms: N_17  and  C_18
REMARK    4  A    between atoms: C_18  and  C_19
REMARK    5  A    between atoms: C_22  and  C_25
REMARK                            x       y       z     vdW  Elec       q    Type
REMARK                         _______ _______ _______ _____ _____    ______ ____
ROOT
ATOM      1  C   UNL     1      -5.503   3.331  -4.744  0.00  0.00    -0.001 C 
ATOM      2  C   UNL     1      -6.109   2.164  -5.552  0.00  0.00    -0.010 C 
ATOM      3  C   UNL     1      -6.445   2.821  -6.916  0.00  0.00    -0.020 C 
ATOM      4  C   UNL     1      -5.273   3.821  -7.079  0.00  0.00    -0.078 C 
ATOM      5  N   UNL     1      -5.018   4.332  -5.712  0.00  0.00    +0.390 N 
ATOM      6  H   UNL     1      -4.029   4.478  -5.582  0.00  0.00    -0.081 HD
ENDROOT
BRANCH   1  13
ATOM      7  C   UNL     1      -0.779   0.585   0.308  0.00  0.00    +0.044 C 
ATOM      8  C   UNL     1      -1.336   1.198  -0.950  0.00  0.00    -0.048 A 
ATOM      9  C   UNL     1      -0.479   1.549  -1.984  0.00  0.00    +0.005 A 
ATOM     10  C   UNL     1      -0.965   2.106  -3.133  0.00  0.00    +0.030 A 
ATOM     11  C   UNL     1      -2.338   2.325  -3.274  0.00  0.00    +0.089 A 
ATOM     12  N   UNL     1      -3.106   2.846  -4.265  0.00  0.00    -0.234 NA
ATOM     13  C   UNL     1      -4.356   2.832  -3.904  0.00  0.00    +0.095 A 
ATOM     14  H   UNL     1      -5.300   2.181  -2.160  0.00  0.00    +0.167 HD
ATOM     15  N   UNL     1      -4.476   2.302  -2.656  0.00  0.00    -0.343 N 
ATOM     16  C   UNL     1      -3.206   1.969  -2.228  0.00  0.00    +0.066 A 
ATOM     17  C   UNL     1      -2.695   1.400  -1.070  0.00  0.00    +0.031 A 
ENDBRANCH   1  13
BRANCH   5  18
ATOM     18  C   UNL     1      -5.734   5.599  -5.512  0.00  0.00    -0.009 C 
BRANCH  18  19
ATOM     19  C   UNL     1      -5.288   6.235  -4.194  0.00  0.00    +0.275 C 
ATOM     20  N   UNL     1      -3.846   6.528  -4.227  0.00  0.00    -0.291 N 
ATOM     21  C   UNL     1      -3.264   5.789  -3.213  0.00  0.00    +0.168 C 
ATOM     22  N   UNL     1      -4.149   5.094  -2.575  0.00  0.00    -0.067 NA
ATOM     23  O   UNL     1      -5.444   5.305  -3.111  0.00  0.00    -0.371 OA
ATOM     24  H   UNL     1      -3.392   7.125  -4.842  0.00  0.00    +0.151 HD
BRANCH  21  25
ATOM     25  C   UNL     1      -1.819   5.794  -2.899  0.00  0.00    +0.022 A 
ATOM     26  C   UNL     1      -0.944   6.585  -3.645  0.00  0.00    +0.015 A 
ATOM     27  C   UNL     1       0.403   6.588  -3.351  0.00  0.00    +0.050 A 
ATOM     28  C   UNL     1       0.894   5.806  -2.315  0.00  0.00    +0.166 A 
ATOM     29  C   UNL     1       0.024   5.013  -1.566  0.00  0.00    +0.167 A 
ATOM     30  C   UNL     1      -1.328   5.012  -1.853  0.00  0.00    +0.061 A 
ATOM     31  O   UNL     1       0.748   4.349  -0.619  0.00  0.00    -0.453 OA
ATOM     32  C   UNL     1       2.117   4.426  -1.056  0.00  0.00    +0.466 C 
ATOM     33  O   UNL     1       2.160   5.637  -1.835  0.00  0.00    -0.453 OA
ENDBRANCH  21  25
ENDBRANCH  18  19
ENDBRANCH   5  18
TORSDOF 4
