REMARK  Name = ZINC21887836
REMARK  11 active torsions:
REMARK  status: ('A' for Active; 'I' for Inactive)
REMARK    1  A    between atoms: C_1  and  C_2
REMARK    2  A    between atoms: C_6  and  C_18
REMARK    3  A    between atoms: N_8  and  C_9
REMARK    4  A    between atoms: C_14  and  N_15
REMARK    5  A    between atoms: N_20  and  C_21
REMARK    6  A    between atoms: C_22  and  C_30
REMARK    7  A    between atoms: C_26  and  C_27
REMARK    8  A    between atoms: C_27  and  C_28
REMARK    9  A    between atoms: C_27  and  C_29
REMARK   10  A    between atoms: C_30  and  C_31
REMARK   11  A    between atoms: C_30  and  C_32
REMARK                            x       y       z     vdW  Elec       q    Type
REMARK                         _______ _______ _______ _____ _____    ______ ____
ROOT
ATOM      1  C   UNL     1       0.715   2.312   0.396  0.00  0.00    +0.066 C 
ATOM      2  C   UNL     1       1.199   3.717   0.648  0.00  0.00    +0.044 A 
ATOM      3  C   UNL     1       1.942   4.347  -0.293  0.00  0.00    +0.076 A 
ATOM      4  C   UNL     1       2.377   5.669  -0.017  0.00  0.00    +0.213 A 
ATOM      5  O   UNL     1       3.050   6.298  -0.818  0.00  0.00    -0.285 OA
ATOM      6  C   UNL     1       1.984   6.250   1.277  0.00  0.00    +0.193 A 
ATOM      7  N   UNL     1       1.254   5.527   2.100  0.00  0.00    -0.158 NA
ATOM      8  N   UNL     1       0.885   4.334   1.814  0.00  0.00    -0.234 N 
ENDROOT
BRANCH   8   9
ATOM      9  C   UNL     1       0.115   3.634   2.749  0.00  0.00    +0.096 A 
ATOM     10  C   UNL     1      -1.179   3.239   2.429  0.00  0.00    +0.030 A 
ATOM     11  C   UNL     1      -1.936   2.549   3.355  0.00  0.00    +0.002 A 
ATOM     12  C   UNL     1      -1.411   2.255   4.600  0.00  0.00    +0.002 A 
ATOM     13  C   UNL     1      -0.122   2.641   4.919  0.00  0.00    +0.035 A 
ATOM     14  C   UNL     1       0.641   3.332   3.998  0.00  0.00    +0.151 A 
BRANCH  14  15
ATOM     15  N   UNL     1       2.019   3.751   4.342  0.00  0.00    +0.059 N 
ATOM     16  O   UNL     1       2.438   3.591   5.474  0.00  0.00    -0.126 OA
ATOM     17  O   UNL     1       2.732   4.255   3.494  0.00  0.00    -0.126 OA
ENDBRANCH  14  15
ENDBRANCH   8   9
BRANCH   6  18
ATOM     18  C   UNL     1       2.396   7.620   1.642  0.00  0.00    +0.272 C 
ATOM     19  O   UNL     1       3.114   8.258   0.897  0.00  0.00    -0.268 OA
ATOM     20  N   UNL     1       1.974   8.164   2.801  0.00  0.00    -0.280 N 
ATOM     21  H   UNL     1       1.365   7.570   3.498  0.00  0.00    +0.155 HD
BRANCH  20  22
ATOM     22  C   UNL     1       2.313   9.483   3.119  0.00  0.00    +0.041 A 
ATOM     23  C   UNL     1       3.527   9.762   3.733  0.00  0.00    -0.023 A 
ATOM     24  C   UNL     1       3.860  11.066   4.040  0.00  0.00    +0.006 A 
ATOM     25  C   UNL     1       2.982  12.093   3.746  0.00  0.00    +0.001 A 
ATOM     26  C   UNL     1       1.770  11.819   3.139  0.00  0.00    +0.006 A 
ATOM     27  C   UNL     1       1.433  10.517   2.825  0.00  0.00    -0.023 A 
BRANCH  27  28
ATOM     28  C   UNL     1       0.112  10.219   2.164  0.00  0.00    +0.015 C 
ATOM     29  C   UNL     1      -0.997  10.217   3.218  0.00  0.00    +0.012 C 
ATOM     30  C   UNL     1      -0.185  11.290   1.112  0.00  0.00    +0.012 C 
ENDBRANCH  27  28
BRANCH  23  31
ATOM     31  C   UNL     1       4.481   8.642   4.060  0.00  0.00    +0.015 C 
ATOM     32  C   UNL     1       5.833   8.915   3.397  0.00  0.00    +0.012 C 
ATOM     33  C   UNL     1       4.665   8.555   5.576  0.00  0.00    +0.012 C 
ENDBRANCH  23  31
ENDBRANCH  20  22
ENDBRANCH   6  18
TORSDOF 6
