REMARK  Name = ZINC09234181
REMARK  7 active torsions:
REMARK  status: ('A' for Active; 'I' for Inactive)
REMARK    1  A    between atoms: C_4  and  C_7
REMARK    2  A    between atoms: C_7  and  C_8
REMARK    3  A    between atoms: C_13  and  C_14
REMARK    4  A    between atoms: C_13  and  N_63
REMARK    5  A    between atoms: C_15  and  C_25
REMARK    6  A    between atoms: N_27  and  N_28
REMARK    7  A    between atoms: C_29  and  C_30
REMARK                            x       y       z     vdW  Elec       q    Type
REMARK                         _______ _______ _______ _____ _____    ______ ____
ROOT
ATOM      1  C   UNL     1      -3.329  -5.047   0.007  0.00  0.00    +0.063 A 
ATOM      2  C   UNL     1      -2.232  -4.233   0.001  0.00  0.00    +0.170 A 
ATOM      3  N   UNL     1      -1.130  -5.004  -0.020  0.00  0.00    -0.124 NA
ATOM      4  N   UNL     1      -1.472  -6.245  -0.017  0.00  0.00    -0.058 NA
ATOM      5  N   UNL     1      -2.872  -6.319  -0.004  0.00  0.00    -0.194 N 
ATOM      6  C   UNL     1      -3.647  -7.484  -0.003  0.00  0.00    +0.240 A 
ATOM      7  C   UNL     1      -3.132  -8.856  -0.016  0.00  0.00    +0.206 A 
ATOM      8  N   UNL     1      -4.148  -9.675  -0.009  0.00  0.00    -0.032 NA
ATOM      9  O   UNL     1      -5.332  -8.898   0.006  0.00  0.00    -0.239 OA
ATOM     10  N   UNL     1      -4.949  -7.534   0.015  0.00  0.00    -0.027 NA
ATOM     11  N   UNL     1      -1.791  -9.223  -0.032  0.00  0.00    -0.337 N 
ATOM     12  H   UNL     1      -1.102  -8.540  -0.035  0.00  0.00    +0.144 HD
ATOM     13  H   UNL     1      -1.545 -10.161  -0.039  0.00  0.00    +0.144 HD
ENDROOT
BRANCH   2  14
ATOM     14  C   UNL     1      -2.252  -2.759   0.009  0.00  0.00    +0.285 C 
ATOM     15  O   UNL     1      -3.313  -2.165   0.022  0.00  0.00    -0.267 OA
ATOM     16  N   UNL     1      -1.094  -2.069   0.001  0.00  0.00    -0.202 N 
ATOM     17  H   UNL     1      -0.247  -2.542  -0.009  0.00  0.00    +0.178 HD
BRANCH  16  18
ATOM     18  N   UNL     1      -1.113  -0.668   0.009  0.00  0.00    -0.187 NA
ATOM     19  C   UNL     1       0.002  -0.004   0.002  0.00  0.00    +0.138 C 
BRANCH  19  20
ATOM     20  C   UNL     1      -0.018   1.471   0.010  0.00  0.00    -0.005 A 
ATOM     21  C   UNL     1      -1.235   2.156   0.020  0.00  0.00    +0.009 A 
ATOM     22  C   UNL     1      -1.246   3.535   0.033  0.00  0.00    +0.001 A 
ATOM     23  C   UNL     1      -0.056   4.240   0.025  0.00  0.00    +0.000 A 
ATOM     24  C   UNL     1       1.154   3.568   0.010  0.00  0.00    +0.001 A 
ATOM     25  C   UNL     1       1.180   2.189   0.003  0.00  0.00    +0.009 A 
ENDBRANCH  19  20
ENDBRANCH  16  18
ENDBRANCH   2  14
BRANCH   1  26
ATOM     26  C   UNL     1      -4.771  -4.610   0.023  0.00  0.00    -0.020 C 
BRANCH  26  32
ATOM     27  C   UNL     1      -6.050  -3.090   3.810  0.00  0.00    -0.010 C 
ATOM     28  C   UNL     1      -7.049  -3.836   2.921  0.00  0.00    -0.015 C 
ATOM     29  C   UNL     1      -6.543  -3.828   1.476  0.00  0.00    -0.078 C 
ATOM     30  C   UNL     1      -4.239  -3.750   2.223  0.00  0.00    -0.078 C 
ATOM     31  C   UNL     1      -4.676  -3.755   3.689  0.00  0.00    -0.015 C 
ATOM     32  N   UNL     1      -5.229  -4.503   1.424  0.00  0.00    +0.383 N 
ATOM     33  H   UNL     1      -5.324  -5.447   1.817  0.00  0.00    -0.081 HD
BRANCH  27  34
ATOM     34  C   UNL     1      -6.520  -3.146   5.265  0.00  0.00    +0.038 C 
BRANCH  34  38
ATOM     35  C   UNL     1      -3.924  -0.775   7.692  0.00  0.00    +0.000 A 
ATOM     36  C   UNL     1      -5.040  -0.203   7.110  0.00  0.00    +0.000 A 
ATOM     37  C   UNL     1      -5.880  -0.970   6.325  0.00  0.00    +0.003 A 
ATOM     38  C   UNL     1      -5.604  -2.309   6.121  0.00  0.00    -0.047 A 
ATOM     39  C   UNL     1      -4.491  -2.883   6.707  0.00  0.00    +0.003 A 
ATOM     40  C   UNL     1      -3.649  -2.115   7.488  0.00  0.00    +0.000 A 
ENDBRANCH  34  38
ENDBRANCH  27  34
ENDBRANCH  26  32
ENDBRANCH   1  26
TORSDOF 7
