REMARK  Name = ZINC32854642
REMARK  7 active torsions:
REMARK  status: ('A' for Active; 'I' for Inactive)
REMARK    1  A    between atoms: C_4  and  N_16
REMARK    2  A    between atoms: C_5  and  C_7
REMARK    3  A    between atoms: N_9  and  C_10
REMARK    4  A    between atoms: C_10  and  C_11
REMARK    5  A    between atoms: C_17  and  C_19
REMARK    6  A    between atoms: N_22  and  C_25
REMARK    7  A    between atoms: C_30  and  N_31
REMARK                            x       y       z     vdW  Elec       q    Type
REMARK                         _______ _______ _______ _____ _____    ______ ____
ROOT
ATOM      1  N   UNL     1      -0.886   3.353  -1.416  0.00  0.00    -0.285 N 
ATOM      2  C   UNL     1      -0.747   2.028  -1.210  0.00  0.00    +0.220 C 
ATOM      3  O   UNL     1      -1.216   1.239  -2.002  0.00  0.00    -0.275 OA
ATOM      4  H   UNL     1      -0.542   4.067  -0.653  0.00  0.00    +0.155 HD
ENDROOT
BRANCH   1   8
ATOM      5  C   UNL     1      -2.621   4.742  -4.944  0.00  0.00    +0.001 A 
ATOM      6  C   UNL     1      -2.001   3.503  -4.911  0.00  0.00    +0.002 A 
ATOM      7  C   UNL     1      -1.426   3.041  -3.744  0.00  0.00    +0.024 A 
ATOM      8  C   UNL     1      -1.466   3.817  -2.594  0.00  0.00    +0.046 A 
ATOM      9  C   UNL     1      -2.097   5.070  -2.623  0.00  0.00    +0.058 A 
ATOM     10  C   UNL     1      -2.670   5.526  -3.812  0.00  0.00    +0.015 A 
BRANCH   9  11
ATOM     11  C   UNL     1      -2.150   5.902  -1.406  0.00  0.00    +0.246 C 
ATOM     12  O   UNL     1      -1.569   5.545  -0.400  0.00  0.00    -0.270 OA
ATOM     13  N   UNL     1      -2.843   7.058  -1.411  0.00  0.00    -0.304 N 
ATOM     14  H   UNL     1      -3.368   7.381  -2.321  0.00  0.00    +0.149 HD
BRANCH  13  15
ATOM     15  C   UNL     1      -2.896   7.885  -0.202  0.00  0.00    +0.179 C 
BRANCH  15  16
ATOM     16  C   UNL     1      -3.727   9.113  -0.470  0.00  0.00    +0.122 A 
ATOM     17  C   UNL     1      -5.055   9.220  -0.283  0.00  0.00    +0.046 A 
ATOM     18  C   UNL     1      -5.417  10.534  -0.658  0.00  0.00    +0.041 A 
ATOM     19  C   UNL     1      -4.288  11.152  -1.051  0.00  0.00    +0.195 A 
ATOM     20  O   UNL     1      -3.267  10.288  -0.929  0.00  0.00    -0.466 OA
ENDBRANCH  15  16
ENDBRANCH  13  15
ENDBRANCH   9  11
ENDBRANCH   1   8
BRANCH   2  21
ATOM     21  C   UNL     1      -0.009   1.528   0.005  0.00  0.00    +0.078 C 
ATOM     22  C   UNL     1       1.432   2.044  -0.023  0.00  0.00    +0.031 C 
ATOM     23  C   UNL     1       2.193   1.483   1.181  0.00  0.00    +0.106 C 
ATOM     24  N   UNL     1       2.179   0.016   1.130  0.00  0.00    -0.328 N 
ATOM     25  C   UNL     1       0.807  -0.505   1.204  0.00  0.00    +0.106 C 
ATOM     26  C   UNL     1       0.005  -0.003   0.001  0.00  0.00    +0.031 C 
BRANCH  24  27
ATOM     27  C   UNL     1       2.975  -0.528   2.141  0.00  0.00    +0.060 A 
ATOM     28  C   UNL     1       2.641  -0.327   3.474  0.00  0.00    +0.025 A 
ATOM     29  C   UNL     1       3.427  -0.870   4.471  0.00  0.00    +0.002 A 
ATOM     30  C   UNL     1       4.553  -1.605   4.143  0.00  0.00    +0.002 A 
ATOM     31  C   UNL     1       4.891  -1.802   2.817  0.00  0.00    +0.034 A 
ATOM     32  C   UNL     1       4.106  -1.266   1.815  0.00  0.00    +0.147 A 
BRANCH  32  33
ATOM     33  N   UNL     1       4.469  -1.477   0.396  0.00  0.00    +0.058 N 
ATOM     34  O   UNL     1       5.460  -2.124   0.111  0.00  0.00    -0.126 OA
ATOM     35  O   UNL     1       3.776  -1.004  -0.487  0.00  0.00    -0.126 OA
ENDBRANCH  32  33
ENDBRANCH  24  27
ENDBRANCH   2  21
TORSDOF 7
