REMARK  Name = ZINC35932741
REMARK  9 active torsions:
REMARK  status: ('A' for Active; 'I' for Inactive)
REMARK    1  A    between atoms: C_1  and  N_2
REMARK    2  A    between atoms: N_5  and  C_8
REMARK    3  A    between atoms: C_8  and  C_9
REMARK    4  A    between atoms: C_9  and  C_10
REMARK    5  A    between atoms: C_10  and  N_11
REMARK    6  A    between atoms: N_14  and  C_15
REMARK    7  A    between atoms: C_16  and  C_28
REMARK    8  A    between atoms: N_18  and  C_21
REMARK    9  A    between atoms: C_19  and  N_20
REMARK                            x       y       z     vdW  Elec       q    Type
REMARK                         _______ _______ _______ _____ _____    ______ ____
ROOT
ATOM      1  C   UNL     1       4.543  -9.533   3.569  0.00  0.00    +0.103 A 
ATOM      2  C   UNL     1       3.742 -10.575   3.056  0.00  0.00    +0.116 A 
ATOM      3  N   UNL     1       4.184 -11.714   3.549  0.00  0.00    -0.163 NA
ATOM      4  N   UNL     1       5.273 -11.441   4.386  0.00  0.00    -0.216 N 
ATOM      5  C   UNL     1       5.483 -10.094   4.381  0.00  0.00    +0.142 A 
ENDROOT
BRANCH   4   6
ATOM      6  C   UNL     1       6.021 -12.388   5.099  0.00  0.00    +0.068 A 
ATOM      7  C   UNL     1       7.384 -12.201   5.286  0.00  0.00    +0.030 A 
ATOM      8  C   UNL     1       8.118 -13.135   5.989  0.00  0.00    +0.040 A 
ATOM      9  C   UNL     1       7.497 -14.258   6.508  0.00  0.00    +0.124 A 
ATOM     10  C   UNL     1       6.137 -14.447   6.323  0.00  0.00    +0.040 A 
ATOM     11  C   UNL     1       5.398 -13.512   5.625  0.00  0.00    +0.030 A 
ATOM     12  F   UNL     1       8.217 -15.171   7.196  0.00  0.00    -0.205 F 
ENDBRANCH   4   6
BRANCH   2  13
ATOM     13  C   UNL     1       2.600 -10.415   2.124  0.00  0.00    +0.004 A 
ATOM     14  C   UNL     1       1.796  -9.278   2.192  0.00  0.00    +0.011 A 
ATOM     15  C   UNL     1       0.734  -9.134   1.322  0.00  0.00    +0.020 A 
ATOM     16  C   UNL     1       0.467 -10.116   0.383  0.00  0.00    +0.041 A 
ATOM     17  C   UNL     1       1.263 -11.247   0.312  0.00  0.00    +0.020 A 
ATOM     18  C   UNL     1       2.330 -11.398   1.174  0.00  0.00    +0.011 A 
ATOM     19 CL   UNL     1      -0.870  -9.929  -0.708  0.00  0.00    -0.084 Cl
ENDBRANCH   2  13
BRANCH   1  23
ATOM     20  N   UNL     1       3.793  -6.453   1.813  0.00  0.00    -0.299 N 
ATOM     21  C   UNL     1       4.029  -7.758   2.055  0.00  0.00    +0.304 C 
ATOM     22  O   UNL     1       3.908  -8.573   1.161  0.00  0.00    -0.253 OA
ATOM     23  N   UNL     1       4.401  -8.158   3.287  0.00  0.00    -0.265 N 
ATOM     24  H   UNL     1       3.890  -5.802   2.526  0.00  0.00    +0.150 HD
ATOM     25  H   UNL     1       4.570  -7.501   3.980  0.00  0.00    +0.157 HD
BRANCH  20  26
ATOM     26  C   UNL     1       3.389  -6.018   0.474  0.00  0.00    +0.107 C 
BRANCH  26  27
ATOM     27  C   UNL     1       3.186  -4.501   0.470  0.00  0.00    +0.034 C 
BRANCH  27  28
ATOM     28  C   UNL     1       2.764  -4.046  -0.928  0.00  0.00    +0.086 C 
BRANCH  28  33
ATOM     29  C   UNL     1       0.952   1.266  -1.423  0.00  0.00    -0.096 C 
ATOM     30  N   UNL     1       1.097  -0.196  -1.441  0.00  0.00    +0.379 N 
ATOM     31  C   UNL     1       2.256  -0.562  -2.266  0.00  0.00    -0.064 C 
ATOM     32  C   UNL     1       2.396  -2.086  -2.301  0.00  0.00    +0.066 C 
ATOM     33  N   UNL     1       2.569  -2.591  -0.932  0.00  0.00    -0.306 NA
ATOM     34  C   UNL     1       1.428  -2.210  -0.088  0.00  0.00    +0.066 C 
ATOM     35  C   UNL     1       1.295  -0.686  -0.071  0.00  0.00    -0.064 C 
ATOM     36  H   UNL     1       0.264  -0.612  -1.829  0.00  0.00    -0.082 HD
ENDBRANCH  28  33
ENDBRANCH  27  28
ENDBRANCH  26  27
ENDBRANCH  20  26
ENDBRANCH   1  23
BRANCH   5  37
ATOM     37  N   UNL     1       6.478  -9.412   5.083  0.00  0.00    -0.342 N 
ATOM     38  H   UNL     1       6.615  -8.464   4.933  0.00  0.00    +0.144 HD
ATOM     39  H   UNL     1       7.032  -9.887   5.722  0.00  0.00    +0.144 HD
ENDBRANCH   5  37
TORSDOF 8
