REMARK  Name = ZINC09051765
REMARK  6 active torsions:
REMARK  status: ('A' for Active; 'I' for Inactive)
REMARK    1  A    between atoms: C_3  and  C_6
REMARK    2  A    between atoms: C_9  and  C_29
REMARK    3  A    between atoms: C_12  and  C_14
REMARK    4  A    between atoms: C_14  and  N_15
REMARK    5  A    between atoms: C_17  and  C_20
REMARK    6  A    between atoms: C_23  and  C_26
REMARK                            x       y       z     vdW  Elec       q    Type
REMARK                         _______ _______ _______ _____ _____    ______ ____
ROOT
ATOM      1  C   UNL     1       4.038   8.782   3.010  0.00  0.00    +0.173 C 
ATOM      2  C   UNL     1       4.905  10.019   2.702  0.00  0.00    +0.090 C 
ATOM      3  C   UNL     1       4.928  10.081   1.191  0.00  0.00    +0.069 C 
ATOM      4  N   UNL     1       4.239   9.104   0.711  0.00  0.00    -0.181 NA
ATOM      5  N   UNL     1       3.673   8.276   1.678  0.00  0.00    -0.180 N 
ATOM      6  C   UNL     1       2.912   7.191   1.433  0.00  0.00    +0.259 C 
ATOM      7  O   UNL     1       2.469   6.540   2.356  0.00  0.00    -0.272 OA
ENDROOT
BRANCH   3   8
ATOM      8  C   UNL     1       5.630  11.101   0.392  0.00  0.00    -0.002 A 
ATOM      9  C   UNL     1       6.345  12.120   1.026  0.00  0.00    +0.011 A 
ATOM     10  C   UNL     1       7.004  13.069   0.273  0.00  0.00    +0.020 A 
ATOM     11  C   UNL     1       6.950  13.019  -1.110  0.00  0.00    +0.041 A 
ATOM     12  C   UNL     1       6.239  12.014  -1.745  0.00  0.00    +0.020 A 
ATOM     13  C   UNL     1       5.580  11.057  -1.004  0.00  0.00    +0.011 A 
ATOM     14 CL   UNL     1       7.777  14.220  -2.051  0.00  0.00    -0.084 Cl
ENDBRANCH   3   8
BRANCH   1  17
ATOM     15  C   UNL     1       5.661   6.463   5.370  0.00  0.00    +0.041 A 
ATOM     16  C   UNL     1       4.734   7.492   5.084  0.00  0.00    +0.046 A 
ATOM     17  C   UNL     1       4.837   7.754   3.769  0.00  0.00    +0.128 A 
ATOM     18  O   UNL     1       5.767   6.939   3.245  0.00  0.00    -0.466 OA
ATOM     19  C   UNL     1       6.274   6.158   4.212  0.00  0.00    +0.195 A 
ENDBRANCH   1  17
BRANCH   6  20
ATOM     20  C   UNL     1       2.611   6.787   0.013  0.00  0.00    +0.265 C 
BRANCH  20  21
ATOM     21  N   UNL     1       1.771   5.587   0.014  0.00  0.00    -0.154 N 
ATOM     22  N   UNL     1       2.205   4.373   0.009  0.00  0.00    -0.130 NA
ATOM     23  C   UNL     1       1.160   3.570   0.010  0.00  0.00    +0.205 A 
ATOM     24  N   UNL     1       0.073   4.356   0.024  0.00  0.00    -0.108 NA
ATOM     25  N   UNL     1       0.484   5.578   0.026  0.00  0.00    -0.045 NA
BRANCH  23  26
ATOM     26  C   UNL     1       1.181   2.087   0.002  0.00  0.00    +0.023 A 
ATOM     27  C   UNL     1      -0.017   1.373   0.010  0.00  0.00    +0.012 A 
ATOM     28  C   UNL     1       0.002  -0.004   0.002  0.00  0.00    +0.014 A 
ATOM     29  C   UNL     1       1.222  -0.685  -0.013  0.00  0.00    +0.037 A 
ATOM     30  C   UNL     1       2.421   0.031  -0.021  0.00  0.00    +0.014 A 
ATOM     31  C   UNL     1       2.399   1.408  -0.013  0.00  0.00    +0.012 A 
BRANCH  29  32
ATOM     32  C   UNL     1       1.243  -2.163  -0.021  0.00  0.00    +0.242 C 
ATOM     33  O   UNL     1       0.199  -2.786  -0.014  0.00  0.00    -0.270 OA
ATOM     34  N   UNL     1       2.420  -2.819  -0.036  0.00  0.00    -0.325 N 
ATOM     35  H   UNL     1       3.253  -2.322  -0.041  0.00  0.00    +0.145 HD
ATOM     36  H   UNL     1       2.434  -3.789  -0.041  0.00  0.00    +0.145 HD
ENDBRANCH  29  32
ENDBRANCH  23  26
ENDBRANCH  20  21
ENDBRANCH   6  20
TORSDOF 6
