REMARK  Name = ZINC38591951
REMARK  10 active torsions:
REMARK  status: ('A' for Active; 'I' for Inactive)
REMARK    1  A    between atoms: C_1  and  C_2
REMARK    2  A    between atoms: C_2  and  O_3
REMARK    3  A    between atoms: O_3  and  C_4
REMARK    4  A    between atoms: C_4  and  C_6
REMARK    5  A    between atoms: N_9  and  C_12
REMARK    6  A    between atoms: C_12  and  C_13
REMARK    7  A    between atoms: N_15  and  C_16
REMARK    8  A    between atoms: C_24  and  C_26
REMARK    9  A    between atoms: C_26  and  O_28
REMARK   10  A    between atoms: O_28  and  C_29
REMARK                            x       y       z     vdW  Elec       q    Type
REMARK                         _______ _______ _______ _____ _____    ______ ____
ROOT
ATOM      1  C   UNL     1       2.004  -6.200   6.149  0.00  0.00    +0.200 C 
ATOM      2  O   UNL     1       1.689  -6.659   5.073  0.00  0.00    -0.278 OA
ATOM      3  N   UNL     1       2.223  -7.021   7.195  0.00  0.00    -0.288 N 
ATOM      4  H   UNL     1       2.551  -6.662   8.034  0.00  0.00    +0.155 HD
ENDROOT
BRANCH   3   5
ATOM      5  C   UNL     1       1.983  -8.357   7.074  0.00  0.00    +0.053 C 
ATOM      6  C   UNL     1       2.283  -9.347   7.994  0.00  0.00    +0.018 A 
ATOM      7  C   UNL     1       2.892  -9.310   9.271  0.00  0.00    +0.011 A 
ATOM      8  C   UNL     1       3.064 -10.461   9.967  0.00  0.00    +0.001 A 
ATOM      9  C   UNL     1       2.653 -11.695   9.454  0.00  0.00    +0.002 A 
ATOM     10  C   UNL     1       2.064 -11.806   8.240  0.00  0.00    +0.026 A 
ATOM     11  C   UNL     1       1.849 -10.645   7.451  0.00  0.00    +0.045 A 
ATOM     12  N   UNL     1       1.308 -10.488   6.260  0.00  0.00    -0.367 N 
ATOM     13  C   UNL     1       1.328  -9.065   5.909  0.00  0.00    +0.234 C 
ATOM     14  H   UNL     1       0.949 -11.199   5.707  0.00  0.00    +0.161 HD
BRANCH  13  15
ATOM     15  C   UNL     1      -0.076  -8.554   5.714  0.00  0.00    +0.335 C 
ATOM     16  O   UNL     1      -0.998  -9.088   6.285  0.00  0.00    -0.248 OA
BRANCH  15  17
ATOM     17  O   UNL     1      -0.304  -7.506   4.907  0.00  0.00    -0.466 OA
ATOM     18  C   UNL     1      -1.660  -7.076   4.769  0.00  0.00    +0.280 C 
ENDBRANCH  15  17
ENDBRANCH  13  15
ENDBRANCH   3   5
BRANCH   1  19
ATOM     19  C   UNL     1       2.152  -4.710   6.318  0.00  0.00    +0.019 C 
BRANCH  19  23
ATOM     20  C   UNL     1       2.509  -2.276   2.839  0.00  0.00    +0.094 C 
ATOM     21  C   UNL     1       1.509  -1.886   3.931  0.00  0.00    -0.004 C 
ATOM     22  C   UNL     1       1.889  -2.586   5.237  0.00  0.00    -0.077 C 
ATOM     23  N   UNL     1       1.862  -4.041   5.043  0.00  0.00    +0.385 N 
ATOM     24  C   UNL     1       2.870  -4.429   4.048  0.00  0.00    -0.077 C 
ATOM     25  C   UNL     1       2.527  -3.800   2.696  0.00  0.00    -0.004 C 
ATOM     26  H   UNL     1       0.948  -4.319   4.720  0.00  0.00    -0.081 HD
BRANCH  20  27
ATOM     27  C   UNL     1       2.096  -1.652   1.531  0.00  0.00    +0.310 C 
ATOM     28  O   UNL     1       1.841  -2.354   0.581  0.00  0.00    -0.251 OA
BRANCH  27  29
ATOM     29  O   UNL     1       2.011  -0.317   1.421  0.00  0.00    -0.465 OA
BRANCH  29  31
ATOM     30  C   UNL     1       1.573   1.734   0.219  0.00  0.00    +0.048 C 
ATOM     31  C   UNL     1       1.613   0.206   0.152  0.00  0.00    +0.229 C 
ENDBRANCH  29  31
ENDBRANCH  27  29
ENDBRANCH  20  27
ENDBRANCH  19  23
ENDBRANCH   1  19
TORSDOF 8
