REMARK  Name = ZINC16651836
REMARK  12 active torsions:
REMARK  status: ('A' for Active; 'I' for Inactive)
REMARK    1  A    between atoms: C_1  and  C_2
REMARK    2  A    between atoms: C_5  and  C_7
REMARK    3  A    between atoms: C_7  and  N_8
REMARK    4  A    between atoms: N_8  and  C_9
REMARK    5  A    between atoms: C_9  and  C_10
REMARK    6  A    between atoms: C_19  and  C_21
REMARK    7  A    between atoms: C_21  and  N_22
REMARK    8  A    between atoms: N_22  and  C_23
REMARK    9  A    between atoms: C_23  and  C_24
REMARK   10  A    between atoms: C_24  and  O_25
REMARK   11  A    between atoms: O_25  and  C_26
REMARK   12  A    between atoms: N_29  and  C_30
REMARK                            x       y       z     vdW  Elec       q    Type
REMARK                         _______ _______ _______ _____ _____    ______ ____
ROOT
ATOM      1  N   UNL     1      -3.116   1.026   1.919  0.00  0.00    -0.289 N 
ATOM      2  C   UNL     1      -2.650  -0.145   2.396  0.00  0.00    +0.234 C 
ATOM      3  O   UNL     1      -1.895  -0.815   1.724  0.00  0.00    -0.274 OA
ENDROOT
BRANCH   1   4
ATOM      4  C   UNL     1      -4.029   1.836   2.731  0.00  0.00    +0.182 C 
BRANCH   4   9
ATOM      5  C   UNL     1      -8.599   1.695   0.603  0.00  0.00    +0.086 C 
ATOM      6  C   UNL     1      -7.439   1.377   1.510  0.00  0.00    +0.102 A 
ATOM      7  C   UNL     1      -7.432   0.444   2.479  0.00  0.00    +0.045 A 
ATOM      8  C   UNL     1      -6.151   0.483   3.076  0.00  0.00    +0.046 A 
ATOM      9  C   UNL     1      -5.452   1.437   2.436  0.00  0.00    +0.122 A 
ATOM     10  O   UNL     1      -6.239   1.979   1.492  0.00  0.00    -0.463 OA
ENDBRANCH   4   9
ENDBRANCH   1   4
BRANCH   1  11
ATOM     11  C   UNL     1      -2.712   1.490   0.590  0.00  0.00    +0.143 C 
BRANCH  11  12
ATOM     12  C   UNL     1      -1.462   2.324   0.708  0.00  0.00    -0.026 A 
ATOM     13  C   UNL     1      -1.561   3.689   0.908  0.00  0.00    +0.009 A 
ATOM     14  C   UNL     1      -0.418   4.460   1.009  0.00  0.00    +0.050 A 
ATOM     15  C   UNL     1       0.830   3.865   0.919  0.00  0.00    +0.166 A 
ATOM     16  C   UNL     1       0.929   2.490   0.725  0.00  0.00    +0.167 A 
ATOM     17  C   UNL     1      -0.221   1.723   0.623  0.00  0.00    +0.054 A 
ATOM     18  O   UNL     1       2.250   2.151   0.671  0.00  0.00    -0.453 OA
ATOM     19  C   UNL     1       2.953   3.383   0.424  0.00  0.00    +0.466 C 
ATOM     20  O   UNL     1       2.089   4.388   0.986  0.00  0.00    -0.453 OA
ENDBRANCH  11  12
ENDBRANCH   1  11
BRANCH   2  21
ATOM     21  C   UNL     1      -3.066  -0.622   3.763  0.00  0.00    +0.205 C 
BRANCH  21  22
ATOM     22  N   UNL     1      -2.429  -1.910   4.047  0.00  0.00    -0.274 N 
ATOM     23  C   UNL     1      -1.223  -1.947   4.648  0.00  0.00    +0.307 C 
ATOM     24  O   UNL     1      -0.665  -0.912   4.956  0.00  0.00    -0.252 OA
ATOM     25  N   UNL     1      -0.636  -3.132   4.909  0.00  0.00    -0.269 N 
ATOM     26  H   UNL     1      -1.113  -3.959   4.734  0.00  0.00    +0.156 HD
BRANCH  25  27
ATOM     27  C   UNL     1       0.661  -3.171   5.431  0.00  0.00    +0.037 A 
ATOM     28  C   UNL     1       1.586  -2.200   5.068  0.00  0.00    +0.023 A 
ATOM     29  C   UNL     1       2.865  -2.237   5.588  0.00  0.00    +0.005 A 
ATOM     30  C   UNL     1       3.230  -3.245   6.462  0.00  0.00    +0.038 A 
ATOM     31  C   UNL     1       2.312  -4.217   6.822  0.00  0.00    +0.125 A 
ATOM     32  C   UNL     1       1.028  -4.182   6.308  0.00  0.00    +0.061 A 
ATOM     33  F   UNL     1       2.671  -5.201   7.676  0.00  0.00    -0.205 F 
ENDBRANCH  25  27
BRANCH  22  34
ATOM     34  C   UNL     1      -3.101  -3.158   3.676  0.00  0.00    +0.138 C 
BRANCH  34  35
ATOM     35  C   UNL     1      -2.690  -3.556   2.257  0.00  0.00    +0.178 C 
BRANCH  35  36
ATOM     36  O   UNL     1      -1.294  -3.858   2.232  0.00  0.00    -0.381 OA
ATOM     37  C   UNL     1      -0.805  -4.244   0.946  0.00  0.00    +0.194 C 
ENDBRANCH  35  36
ENDBRANCH  34  35
ENDBRANCH  22  34
ENDBRANCH  21  22
ENDBRANCH   2  21
TORSDOF 10
