REMARK  Name = ZINC12859182
REMARK  6 active torsions:
REMARK  status: ('A' for Active; 'I' for Inactive)
REMARK    1  A    between atoms: C_3  and  C_6
REMARK    2  A    between atoms: C_15  and  C_16
REMARK    3  A    between atoms: C_15  and  N_47
REMARK    4  A    between atoms: N_18  and  C_19
REMARK    5  A    between atoms: C_22  and  S_25
REMARK    6  A    between atoms: S_25  and  N_28
REMARK                            x       y       z     vdW  Elec       q    Type
REMARK                         _______ _______ _______ _____ _____    ______ ____
ROOT
ATOM      1  C   UNL     1       2.270   3.590   2.292  0.00  0.00    +0.020 C 
ENDROOT
BRANCH   1  10
ATOM      2  C   UNL     1       1.370   3.901   0.066  0.00  0.00    +0.002 C 
ATOM      3  C   UNL     1       1.643   4.566  -1.280  0.00  0.00    -0.046 A 
ATOM      4  C   UNL     1       1.005   4.211  -2.465  0.00  0.00    +0.010 A 
ATOM      5  C   UNL     1       1.310   4.853  -3.617  0.00  0.00    +0.045 A 
ATOM      6  S   UNL     1       2.547   6.022  -3.071  0.00  0.00    -0.101 S 
ATOM      7  C   UNL     1       2.562   5.569  -1.359  0.00  0.00    -0.010 A 
ATOM      8  C   UNL     1       3.373   6.128  -0.236  0.00  0.00    +0.024 C 
ATOM      9  C   UNL     1       2.752   5.632   1.081  0.00  0.00    -0.072 C 
ATOM     10  N   UNL     1       2.521   4.172   0.959  0.00  0.00    +0.393 N 
ATOM     11  H   UNL     1       3.360   3.737   0.558  0.00  0.00    -0.080 HD
BRANCH   2  14
ATOM     12  C   UNL     1       0.249   0.287  -0.381  0.00  0.00    +0.008 A 
ATOM     13  C   UNL     1       0.123   1.652  -0.205  0.00  0.00    +0.010 A 
ATOM     14  C   UNL     1       1.244   2.411  -0.122  0.00  0.00    -0.019 A 
ATOM     15  S   UNL     1       2.532   1.186  -0.295  0.00  0.00    -0.103 S 
ATOM     16  C   UNL     1       1.490  -0.253  -0.466  0.00  0.00    +0.045 A 
ENDBRANCH   2  14
ENDBRANCH   1  10
BRANCH   1  17
ATOM     17  C   UNL     1       3.533   3.694   3.107  0.00  0.00    +0.201 C 
ATOM     18  O   UNL     1       4.520   4.216   2.634  0.00  0.00    -0.278 OA
ATOM     19  N   UNL     1       3.566   3.207   4.364  0.00  0.00    -0.287 N 
ATOM     20  H   UNL     1       2.757   2.859   4.770  0.00  0.00    +0.155 HD
BRANCH  19  21
ATOM     21  C   UNL     1       4.767   3.203   5.081  0.00  0.00    +0.033 A 
ATOM     22  C   UNL     1       5.973   3.015   4.419  0.00  0.00    +0.025 A 
ATOM     23  C   UNL     1       7.157   3.017   5.130  0.00  0.00    +0.030 A 
ATOM     24  C   UNL     1       7.142   3.194   6.501  0.00  0.00    +0.105 A 
ATOM     25  C   UNL     1       5.943   3.376   7.164  0.00  0.00    +0.030 A 
ATOM     26  C   UNL     1       4.755   3.381   6.459  0.00  0.00    +0.025 A 
BRANCH  24  27
ATOM     27  S   UNL     1       8.655   3.190   7.405  0.00  0.00    +0.056 S 
ATOM     28  O   UNL     1       9.678   3.546   6.486  0.00  0.00    -0.153 OA
ATOM     29  O   UNL     1       8.416   3.920   8.600  0.00  0.00    -0.153 OA
BRANCH  27  30
ATOM     30  N   UNL     1       8.950   1.624   7.857  0.00  0.00    -0.204 NA
ATOM     31  H   UNL     1       8.328   0.922   7.610  0.00  0.00    +0.144 HD
ATOM     32  H   UNL     1       9.745   1.409   8.370  0.00  0.00    +0.144 HD
ENDBRANCH  27  30
ENDBRANCH  24  27
ENDBRANCH  19  21
ENDBRANCH   1  17
TORSDOF 6
