REMARK  Name = ZINC65397354
REMARK  5 active torsions:
REMARK  status: ('A' for Active; 'I' for Inactive)
REMARK    1  A    between atoms: C_4  and  C_7
REMARK    2  A    between atoms: C_9  and  C_22
REMARK    3  A    between atoms: N_11  and  C_14
REMARK    4  A    between atoms: C_14  and  C_15
REMARK    5  A    between atoms: C_15  and  C_16
REMARK                            x       y       z     vdW  Elec       q    Type
REMARK                         _______ _______ _______ _____ _____    ______ ____
ROOT
ATOM      1  C   UNL     1       3.711  -0.707  -0.038  0.00  0.00    +0.135 C 
ATOM      2  C   UNL     1       4.022  -1.227  -1.456  0.00  0.00    +0.131 C 
ATOM      3  N   UNL     1       4.078  -2.687  -1.270  0.00  0.00    -0.313 N 
ATOM      4  C   UNL     1       3.838  -2.962   0.043  0.00  0.00    +0.155 C 
ATOM      5  N   UNL     1       3.631  -1.927   0.777  0.00  0.00    -0.370 N 
ATOM      6  H   UNL     1       3.447  -1.948   1.730  0.00  0.00    +0.161 HD
ENDROOT
BRANCH   2   7
ATOM      7  C   UNL     1       2.922  -0.850  -2.414  0.00  0.00    -0.021 A 
ATOM      8  C   UNL     1       1.753  -1.588  -2.448  0.00  0.00    +0.009 A 
ATOM      9  C   UNL     1       0.743  -1.246  -3.327  0.00  0.00    +0.050 A 
ATOM     10  C   UNL     1       0.898  -0.161  -4.177  0.00  0.00    +0.162 A 
ATOM     11  C   UNL     1       2.072   0.582  -4.141  0.00  0.00    +0.162 A 
ATOM     12  C   UNL     1       3.081   0.236  -3.254  0.00  0.00    +0.055 A 
ATOM     13  O   UNL     1       2.242   1.655  -4.961  0.00  0.00    -0.485 OA
ATOM     14  C   UNL     1       1.365   1.749  -6.088  0.00  0.00    +0.270 C 
ATOM     15  C   UNL     1      -0.067   1.474  -5.608  0.00  0.00    +0.270 C 
ATOM     16  O   UNL     1      -0.104   0.161  -5.039  0.00  0.00    -0.485 OA
ENDBRANCH   2   7
BRANCH   1  20
ATOM     17  C   UNL     1      -0.017   1.378   0.010  0.00  0.00    +0.000 A 
ATOM     18  C   UNL     1       1.171   2.086   0.002  0.00  0.00    +0.000 A 
ATOM     19  C   UNL     1       2.377   1.411  -0.013  0.00  0.00    +0.006 A 
ATOM     20  C   UNL     1       2.396   0.029  -0.020  0.00  0.00    -0.023 A 
ATOM     21  C   UNL     1       1.208  -0.679  -0.012  0.00  0.00    +0.006 A 
ATOM     22  C   UNL     1       0.002  -0.004   0.002  0.00  0.00    +0.000 A 
ENDBRANCH   1  20
BRANCH   3  23
ATOM     23  C   UNL     1       4.346  -3.675  -2.318  0.00  0.00    +0.113 C 
BRANCH  23  24
ATOM     24  C   UNL     1       5.853  -3.929  -2.406  0.00  0.00    +0.073 C 
BRANCH  24  25
ATOM     25  C   UNL     1       6.128  -4.945  -3.484  0.00  0.00    +0.035 A 
ATOM     26  H   UNL     1       6.657  -6.026  -6.363  0.00  0.00    +0.166 HD
ATOM     27  C   UNL     1       6.272  -4.686  -4.798  0.00  0.00    +0.105 A 
ATOM     28  N   UNL     1       6.510  -5.885  -5.414  0.00  0.00    -0.352 N 
ATOM     29  C   UNL     1       6.503  -6.836  -4.455  0.00  0.00    +0.171 A 
ATOM     30  N   UNL     1       6.279  -6.266  -3.303  0.00  0.00    -0.350 N 
ATOM     31  H   UNL     1       6.228  -6.725  -2.450  0.00  0.00    +0.166 HD
ENDBRANCH  24  25
ENDBRANCH  23  24
ENDBRANCH   3  23
TORSDOF 5
