REMARK  Name = ZINC16256069
REMARK  10 active torsions:
REMARK  status: ('A' for Active; 'I' for Inactive)
REMARK    1  A    between atoms: C_1  and  C_2
REMARK    2  A    between atoms: C_4  and  C_33
REMARK    3  A    between atoms: C_5  and  N_9
REMARK    4  A    between atoms: C_6  and  C_8
REMARK    5  A    between atoms: C_10  and  C_12
REMARK    6  A    between atoms: C_12  and  N_13
REMARK    7  A    between atoms: C_14  and  C_16
REMARK    8  A    between atoms: C_16  and  N_17
REMARK    9  A    between atoms: C_20  and  C_24
REMARK   10  A    between atoms: C_20  and  C_25
REMARK                            x       y       z     vdW  Elec       q    Type
REMARK                         _______ _______ _______ _____ _____    ______ ____
ROOT
ATOM      1  N   UNL     1       1.568   1.453   1.503  0.00  0.00    -0.305 N 
ATOM      2  C   UNL     1       0.422   0.756   1.637  0.00  0.00    +0.231 C 
ATOM      3  O   UNL     1       0.244  -0.250   0.983  0.00  0.00    -0.274 OA
ATOM      4  H   UNL     1       1.710   2.257   2.026  0.00  0.00    +0.149 HD
ENDROOT
BRANCH   1   5
ATOM      5  C   UNL     1       2.598   0.996   0.567  0.00  0.00    +0.200 C 
BRANCH   5   7
ATOM      6  N   UNL     1       4.843   1.721  -0.177  0.00  0.00    -0.284 N 
ATOM      7  C   UNL     1       3.769   1.943   0.607  0.00  0.00    +0.234 C 
ATOM      8  O   UNL     1       3.745   2.906   1.344  0.00  0.00    -0.274 OA
ATOM      9  H   UNL     1       4.892   0.915  -0.714  0.00  0.00    +0.155 HD
BRANCH   6  14
ATOM     10  C   UNL     1       9.070   5.501  -0.336  0.00  0.00    +0.044 C 
ATOM     11  C   UNL     1       7.947   4.497  -0.294  0.00  0.00    -0.050 A 
ATOM     12  C   UNL     1       6.643   4.911  -0.500  0.00  0.00    +0.008 A 
ATOM     13  C   UNL     1       5.612   3.993  -0.462  0.00  0.00    -0.029 A 
ATOM     14  C   UNL     1       5.885   2.654  -0.216  0.00  0.00    +0.039 A 
ATOM     15  C   UNL     1       7.194   2.243  -0.004  0.00  0.00    -0.029 A 
ATOM     16  C   UNL     1       8.222   3.164  -0.050  0.00  0.00    +0.008 A 
ATOM     17  C   UNL     1       7.495   0.791   0.269  0.00  0.00    +0.045 C 
ATOM     18  C   UNL     1       4.192   4.444  -0.687  0.00  0.00    +0.045 C 
ENDBRANCH   6  14
ENDBRANCH   5   7
ENDBRANCH   1   5
BRANCH   2  19
ATOM     19  C   UNL     1      -0.640   1.229   2.595  0.00  0.00    +0.213 C 
BRANCH  19  20
ATOM     20  N   UNL     1      -1.781   0.311   2.553  0.00  0.00    -0.215 N 
ATOM     21  C   UNL     1      -2.833   0.449   1.722  0.00  0.00    +0.251 C 
ATOM     22  O   UNL     1      -3.008   1.323   0.901  0.00  0.00    -0.272 OA
ATOM     23  C   UNL     1      -3.752  -0.718   2.028  0.00  0.00    +0.135 C 
ATOM     24  N   UNL     1      -3.048  -1.441   3.101  0.00  0.00    -0.281 N 
ATOM     25  C   UNL     1      -1.909  -0.765   3.337  0.00  0.00    +0.310 C 
ATOM     26  O   UNL     1      -1.089  -1.095   4.171  0.00  0.00    -0.252 OA
ATOM     27  C   UNL     1      -3.922  -1.611   0.798  0.00  0.00    +0.047 C 
ATOM     28  H   UNL     1      -3.347  -2.248   3.549  0.00  0.00    +0.152 HD
BRANCH  23  29
ATOM     29  C   UNL     1      -5.090  -0.221   2.513  0.00  0.00    -0.014 A 
ATOM     30  C   UNL     1      -5.788  -0.937   3.468  0.00  0.00    +0.008 A 
ATOM     31  C   UNL     1      -7.014  -0.482   3.913  0.00  0.00    +0.022 A 
ATOM     32  C   UNL     1      -7.545   0.690   3.404  0.00  0.00    +0.059 A 
ATOM     33  C   UNL     1      -6.846   1.407   2.448  0.00  0.00    +0.060 A 
ATOM     34  C   UNL     1      -5.615   0.953   2.007  0.00  0.00    +0.027 A 
ATOM     35 CL   UNL     1      -7.509   2.877   1.808  0.00  0.00    -0.082 Cl
ATOM     36 CL   UNL     1      -9.086   1.261   3.963  0.00  0.00    -0.082 Cl
ENDBRANCH  23  29
ENDBRANCH  19  20
ENDBRANCH   2  19
TORSDOF 6
