REMARK  Name = ZINC63225079
REMARK  11 active torsions:
REMARK  status: ('A' for Active; 'I' for Inactive)
REMARK    1  A    between atoms: C_1  and  C_2
REMARK    2  A    between atoms: C_5  and  S_8
REMARK    3  A    between atoms: S_8  and  N_11
REMARK    4  A    between atoms: N_11  and  C_12
REMARK    5  A    between atoms: C_12  and  C_14
REMARK    6  A    between atoms: C_12  and  C_24
REMARK    7  A    between atoms: C_14  and  C_15
REMARK    8  A    between atoms: C_24  and  O_26
REMARK    9  A    between atoms: O_26  and  C_27
REMARK   10  A    between atoms: C_27  and  C_28
REMARK   11  A    between atoms: C_31  and  N_34
REMARK                            x       y       z     vdW  Elec       q    Type
REMARK                         _______ _______ _______ _____ _____    ______ ____
ROOT
ATOM      1  C   UNL     1       2.512  -4.699   1.113  0.00  0.00    +0.189 C 
ENDROOT
BRANCH   1   2
ATOM      2  N   UNL     1       1.651  -4.999  -0.034  0.00  0.00    -0.176 NA
ATOM      3  H   UNL     1       2.011  -5.473  -0.800  0.00  0.00    +0.149 HD
BRANCH   2   4
ATOM      4  S   UNL     1       0.063  -4.530  -0.023  0.00  0.00    +0.059 S 
ATOM      5  O   UNL     1      -0.476  -4.950   1.223  0.00  0.00    -0.153 OA
ATOM      6  O   UNL     1      -0.490  -4.937  -1.267  0.00  0.00    -0.153 OA
BRANCH   4  11
ATOM      7  C   UNL     1      -0.018   1.503   0.010  0.00  0.00    +0.044 C 
ATOM      8  C   UNL     1       0.002  -0.004   0.002  0.00  0.00    -0.050 A 
ATOM      9  C   UNL     1       0.006  -0.689  -1.199  0.00  0.00    +0.005 A 
ATOM     10  C   UNL     1       0.025  -2.071  -1.206  0.00  0.00    +0.029 A 
ATOM     11  C   UNL     1       0.040  -2.768  -0.013  0.00  0.00    +0.105 A 
ATOM     12  C   UNL     1       0.037  -2.084   1.188  0.00  0.00    +0.029 A 
ATOM     13  C   UNL     1       0.023  -0.702   1.195  0.00  0.00    +0.005 A 
ENDBRANCH   4  11
ENDBRANCH   2   4
ENDBRANCH   1   2
BRANCH   1  14
ATOM     14  C   UNL     1       3.908  -4.404   0.629  0.00  0.00    +0.327 C 
ATOM     15  O   UNL     1       4.159  -4.441  -0.553  0.00  0.00    -0.249 OA
BRANCH  14  16
ATOM     16  O   UNL     1       4.874  -4.101   1.510  0.00  0.00    -0.459 OA
BRANCH  16  17
ATOM     17  C   UNL     1       6.174  -3.833   0.982  0.00  0.00    +0.267 C 
BRANCH  17  18
ATOM     18  C   UNL     1       7.119  -3.513   2.111  0.00  0.00    -0.010 A 
ATOM     19  C   UNL     1       7.271  -2.207   2.537  0.00  0.00    +0.009 A 
ATOM     20  C   UNL     1       8.138  -1.914   3.573  0.00  0.00    +0.033 A 
ATOM     21  C   UNL     1       8.853  -2.928   4.183  0.00  0.00    +0.126 A 
ATOM     22  C   UNL     1       8.701  -4.234   3.758  0.00  0.00    +0.033 A 
ATOM     23  C   UNL     1       7.831  -4.527   2.724  0.00  0.00    +0.009 A 
BRANCH  21  24
ATOM     24  N   UNL     1       9.783  -2.614   5.292  0.00  0.00    +0.056 N 
ATOM     25  O   UNL     1       9.916  -1.471   5.664  0.00  0.00    -0.126 OA
ATOM     26  O   UNL     1      10.408  -3.500   5.825  0.00  0.00    -0.126 OA
ENDBRANCH  21  24
ENDBRANCH  17  18
ENDBRANCH  16  17
ENDBRANCH  14  16
ENDBRANCH   1  14
BRANCH   1  27
ATOM     27  C   UNL     1       2.542  -5.903   2.056  0.00  0.00    +0.065 C 
BRANCH  27  28
ATOM     28  C   UNL     1       1.168  -6.122   2.636  0.00  0.00    -0.039 C 
ATOM     29  C   UNL     1       0.218  -6.969   2.178  0.00  0.00    -0.001 A 
ATOM     30  C   UNL     1       0.181  -7.903   1.046  0.00  0.00    +0.010 A 
ATOM     31  C   UNL     1      -0.937  -8.634   0.836  0.00  0.00    +0.001 A 
ATOM     32  C   UNL     1      -2.059  -8.521   1.669  0.00  0.00    +0.002 A 
ATOM     33  C   UNL     1      -2.100  -7.685   2.728  0.00  0.00    +0.026 A 
ATOM     34  C   UNL     1      -0.979  -6.869   3.043  0.00  0.00    +0.043 A 
ATOM     35  N   UNL     1      -0.777  -5.994   3.998  0.00  0.00    -0.380 N 
ATOM     36  C   UNL     1       0.575  -5.444   3.851  0.00  0.00    +0.144 C 
ATOM     37  H   UNL     1      -1.414  -5.753   4.689  0.00  0.00    +0.160 HD
ENDBRANCH  27  28
ENDBRANCH   1  27
TORSDOF 10
