REMARK  Name = ZINC21699086
REMARK  7 active torsions:
REMARK  status: ('A' for Active; 'I' for Inactive)
REMARK    1  A    between atoms: C_1  and  C_2
REMARK    2  A    between atoms: C_11  and  S_16
REMARK    3  A    between atoms: N_12  and  C_13
REMARK    4  A    between atoms: S_16  and  C_17
REMARK    5  A    between atoms: C_17  and  C_18
REMARK    6  A    between atoms: N_20  and  C_21
REMARK    7  A    between atoms: C_26  and  N_27
REMARK                            x       y       z     vdW  Elec       q    Type
REMARK                         _______ _______ _______ _____ _____    ______ ____
ROOT
ATOM      1  C   UNL     1       7.650   6.809  -0.418  0.00  0.00    +0.007 C 
ATOM      2  C   UNL     1       6.698   5.683  -0.826  0.00  0.00    -0.011 C 
ATOM      3  C   UNL     1       6.742   4.569   0.224  0.00  0.00    +0.022 C 
ATOM      4  C   UNL     1       5.744   3.474  -0.158  0.00  0.00    +0.108 C 
ATOM      5  N   UNL     1       4.393   4.046  -0.234  0.00  0.00    -0.300 N 
ATOM      6  C   UNL     1       4.314   5.085  -1.268  0.00  0.00    +0.108 C 
ATOM      7  C   UNL     1       5.270   6.228  -0.919  0.00  0.00    +0.022 C 
ATOM      8  C   UNL     1       3.444   3.055  -0.450  0.00  0.00    +0.221 A 
ATOM      9  N   UNL     1       3.684   1.773  -0.574  0.00  0.00    -0.112 NA
ATOM     10  N   UNL     1       2.461   1.121  -0.779  0.00  0.00    -0.121 NA
ATOM     11  C   UNL     1       1.514   2.027  -0.774  0.00  0.00    +0.194 A 
ATOM     12  N   UNL     1       2.098   3.247  -0.575  0.00  0.00    -0.287 N 
ENDROOT
BRANCH  12  13
ATOM     13  C   UNL     1       1.401   4.534  -0.506  0.00  0.00    +0.093 C 
ATOM     14  C   UNL     1      -0.109   4.508  -0.258  0.00  0.00    +0.027 C 
ATOM     15  C   UNL     1       0.434   4.876  -1.641  0.00  0.00    +0.027 C 
ENDBRANCH  12  13
BRANCH  11  16
ATOM     16  S   UNL     1      -0.208   1.726  -0.993  0.00  0.00    -0.077 S 
BRANCH  16  17
ATOM     17  C   UNL     1      -0.315  -0.071  -1.214  0.00  0.00    +0.173 C 
BRANCH  17  18
ATOM     18  C   UNL     1      -1.755  -0.468  -1.413  0.00  0.00    +0.228 C 
ATOM     19  O   UNL     1      -2.624   0.379  -1.407  0.00  0.00    -0.275 OA
ATOM     20  N   UNL     1      -2.078  -1.763  -1.599  0.00  0.00    -0.283 N 
ATOM     21  H   UNL     1      -1.288  -2.528  -1.626  0.00  0.00    +0.155 HD
BRANCH  20  22
ATOM     22  C   UNL     1      -3.418  -2.135  -1.757  0.00  0.00    +0.064 A 
ATOM     23  C   UNL     1      -4.289  -1.314  -2.460  0.00  0.00    +0.025 A 
ATOM     24  C   UNL     1      -5.610  -1.686  -2.619  0.00  0.00    +0.002 A 
ATOM     25  C   UNL     1      -6.067  -2.870  -2.070  0.00  0.00    +0.002 A 
ATOM     26  C   UNL     1      -5.203  -3.687  -1.364  0.00  0.00    +0.034 A 
ATOM     27  C   UNL     1      -3.880  -3.323  -1.206  0.00  0.00    +0.147 A 
BRANCH  27  28
ATOM     28  N   UNL     1      -2.955  -4.198  -0.451  0.00  0.00    +0.058 N 
ATOM     29  O   UNL     1      -3.319  -5.305  -0.095  0.00  0.00    -0.126 OA
ATOM     30  O   UNL     1      -1.832  -3.811  -0.184  0.00  0.00    -0.126 OA
ENDBRANCH  27  28
ENDBRANCH  20  22
ENDBRANCH  17  18
ENDBRANCH  16  17
ENDBRANCH  11  16
TORSDOF 6
