REMARK  Name = ZINC09562703
REMARK  8 active torsions:
REMARK  status: ('A' for Active; 'I' for Inactive)
REMARK    1  A    between atoms: C_5  and  N_7
REMARK    2  A    between atoms: N_7  and  S_8
REMARK    3  A    between atoms: S_8  and  C_11
REMARK    4  A    between atoms: C_15  and  N_17
REMARK    5  A    between atoms: C_18  and  C_20
REMARK    6  A    between atoms: C_20  and  S_21
REMARK    7  A    between atoms: S_21  and  C_22
REMARK    8  A    between atoms: C_25  and  N_28
REMARK                            x       y       z     vdW  Elec       q    Type
REMARK                         _______ _______ _______ _____ _____    ______ ____
ROOT
ATOM      1  C   UNL     1       0.395  -4.617  -0.038  0.00  0.00    +0.112 A 
ATOM      2  C   UNL     1       0.377  -5.314  -1.233  0.00  0.00    +0.029 A 
ATOM      3  C   UNL     1       0.534  -6.688  -1.238  0.00  0.00    +0.004 A 
ATOM      4  C   UNL     1       0.710  -7.369  -0.049  0.00  0.00    +0.023 A 
ATOM      5  C   UNL     1       0.728  -6.672   1.152  0.00  0.00    +0.035 A 
ATOM      6  C   UNL     1       0.575  -5.292   1.153  0.00  0.00    +0.052 A 
ENDROOT
BRANCH   5   7
ATOM      7  N   UNL     1       0.905  -7.359   2.358  0.00  0.00    -0.285 N 
ATOM      8  C   UNL     1       1.682  -8.460   2.399  0.00  0.00    +0.227 C 
ATOM      9  O   UNL     1       2.303  -8.800   1.415  0.00  0.00    -0.275 OA
ATOM     10  H   UNL     1       0.469  -7.043   3.165  0.00  0.00    +0.155 HD
BRANCH   8  11
ATOM     11  C   UNL     1       1.778  -9.267   3.668  0.00  0.00    +0.170 C 
BRANCH  11  12
ATOM     12  S   UNL     1       2.891 -10.675   3.406  0.00  0.00    -0.116 S 
BRANCH  12  13
ATOM     13  C   UNL     1       2.898 -11.508   4.958  0.00  0.00    +0.008 A 
ATOM     14  C   UNL     1       2.136 -11.021   6.013  0.00  0.00    +0.017 A 
ATOM     15  C   UNL     1       2.144 -11.676   7.229  0.00  0.00    +0.034 A 
ATOM     16  C   UNL     1       2.908 -12.817   7.396  0.00  0.00    +0.126 A 
ATOM     17  C   UNL     1       3.667 -13.305   6.348  0.00  0.00    +0.034 A 
ATOM     18  C   UNL     1       3.660 -12.658   5.128  0.00  0.00    +0.017 A 
BRANCH  16  19
ATOM     19  N   UNL     1       2.913 -13.517   8.700  0.00  0.00    +0.056 N 
ATOM     20  O   UNL     1       2.250 -13.091   9.618  0.00  0.00    -0.126 OA
ATOM     21  O   UNL     1       3.581 -14.514   8.848  0.00  0.00    -0.126 OA
ENDBRANCH  16  19
ENDBRANCH  12  13
ENDBRANCH  11  12
ENDBRANCH   8  11
ENDBRANCH   5   7
BRANCH   1  22
ATOM     22  S   UNL     1       0.194  -2.867  -0.038  0.00  0.00    +0.092 S 
ATOM     23  O   UNL     1      -0.291  -2.514   1.250  0.00  0.00    -0.148 OA
ATOM     24  O   UNL     1      -0.503  -2.537  -1.231  0.00  0.00    -0.148 OA
BRANCH  22  25
ATOM     25  N   UNL     1       1.704  -2.201  -0.173  0.00  0.00    -0.095 NA
BRANCH  25  30
ATOM     26  C   UNL     1       0.894   1.385  -0.138  0.00  0.00    +0.002 A 
ATOM     27  C   UNL     1       2.155   1.941  -0.251  0.00  0.00    +0.003 A 
ATOM     28  C   UNL     1       3.269   1.125  -0.338  0.00  0.00    +0.040 A 
ATOM     29  C   UNL     1       3.123  -0.250  -0.312  0.00  0.00    +0.148 A 
ATOM     30  C   UNL     1       1.856  -0.811  -0.199  0.00  0.00    +0.109 A 
ATOM     31  C   UNL     1       0.741   0.012  -0.112  0.00  0.00    +0.029 A 
ATOM     32  F   UNL     1       4.211  -1.047  -0.397  0.00  0.00    -0.203 F 
ENDBRANCH  25  30
ENDBRANCH  22  25
ENDBRANCH   1  22
TORSDOF 8
