REMARK  Name = ZINC64426085
REMARK  7 active torsions:
REMARK  status: ('A' for Active; 'I' for Inactive)
REMARK    1  A    between atoms: C_1  and  C_2
REMARK    2  A    between atoms: C_2  and  C_3
REMARK    3  A    between atoms: C_3  and  C_4
REMARK    4  A    between atoms: C_4  and  N_5
REMARK    5  A    between atoms: N_8  and  N_9
REMARK    6  A    between atoms: C_10  and  C_12
REMARK    7  A    between atoms: C_18  and  C_20
REMARK                            x       y       z     vdW  Elec       q    Type
REMARK                         _______ _______ _______ _____ _____    ______ ____
ROOT
ATOM      1  C   UNL     1      -7.584  -2.621   0.545  0.00  0.00    +0.094 C 
ATOM      2  C   UNL     1      -8.886  -3.313   0.953  0.00  0.00    +0.016 C 
ATOM      3  C   UNL     1     -10.026  -2.292   0.970  0.00  0.00    +0.020 C 
ATOM      4  C   UNL     1     -10.207  -1.712  -0.437  0.00  0.00    +0.108 C 
ATOM      5  N   UNL     1      -8.919  -1.173  -0.895  0.00  0.00    -0.297 N 
ATOM      6  C   UNL     1      -7.737  -2.045  -0.866  0.00  0.00    +0.120 C 
ATOM      7  C   UNL     1      -8.824   0.098  -1.335  0.00  0.00    +0.247 C 
ATOM      8  O   UNL     1      -7.737   0.566  -1.611  0.00  0.00    -0.270 OA
ENDROOT
BRANCH   7   9
ATOM      9  C   UNL     1     -10.042   0.922  -1.481  0.00  0.00    +0.037 A 
ATOM     10  C   UNL     1     -10.032   2.263  -1.091  0.00  0.00    +0.014 A 
ATOM     11  C   UNL     1     -11.171   3.027  -1.230  0.00  0.00    +0.021 A 
ATOM     12  C   UNL     1     -12.325   2.467  -1.754  0.00  0.00    +0.041 A 
ATOM     13  C   UNL     1     -12.341   1.137  -2.142  0.00  0.00    +0.021 A 
ATOM     14  C   UNL     1     -11.206   0.364  -2.014  0.00  0.00    +0.014 A 
ATOM     15 CL   UNL     1     -13.755   3.435  -1.925  0.00  0.00    -0.084 Cl
ENDBRANCH   7   9
BRANCH   1  17
ATOM     16  N   UNL     1      -5.208  -3.234   0.229  0.00  0.00    -0.233 N 
ATOM     17  C   UNL     1      -6.456  -3.621   0.560  0.00  0.00    +0.234 C 
ATOM     18  O   UNL     1      -6.672  -4.773   0.871  0.00  0.00    -0.274 OA
ATOM     19  H   UNL     1      -5.036  -2.313  -0.019  0.00  0.00    +0.173 HD
BRANCH  16  23
ATOM     20  N   UNL     1      -2.672  -2.497  -0.432  0.00  0.00    -0.298 N 
ATOM     21  C   UNL     1      -2.912  -3.777  -0.087  0.00  0.00    +0.316 C 
ATOM     22  O   UNL     1      -2.002  -4.584  -0.075  0.00  0.00    -0.251 OA
ATOM     23  N   UNL     1      -4.160  -4.164   0.244  0.00  0.00    -0.218 N 
ATOM     24  H   UNL     1      -3.398  -1.853  -0.442  0.00  0.00    +0.150 HD
ATOM     25  H   UNL     1      -4.333  -5.085   0.492  0.00  0.00    +0.174 HD
BRANCH  20  26
ATOM     26  C   UNL     1      -1.316  -2.076  -0.792  0.00  0.00    +0.106 C 
BRANCH  26  27
ATOM     27  C   UNL     1      -1.319  -0.586  -1.138  0.00  0.00    +0.018 C 
BRANCH  27  29
ATOM     28  C   UNL     1       0.095   1.343  -1.861  0.00  0.00    +0.004 C 
ATOM     29  C   UNL     1       0.098  -0.147  -1.514  0.00  0.00    -0.002 C 
ENDBRANCH  27  29
ENDBRANCH  26  27
ENDBRANCH  20  26
ENDBRANCH  16  23
ENDBRANCH   1  17
TORSDOF 6
