REMARK  Name = ZINC11234075
REMARK  7 active torsions:
REMARK  status: ('A' for Active; 'I' for Inactive)
REMARK    1  A    between atoms: C_1  and  C_2
REMARK    2  A    between atoms: C_5  and  C_8
REMARK    3  A    between atoms: C_8  and  C_10
REMARK    4  A    between atoms: C_8  and  N_13
REMARK    5  A    between atoms: C_14  and  C_16
REMARK    6  A    between atoms: C_19  and  N_23
REMARK    7  A    between atoms: C_20  and  C_22
REMARK                            x       y       z     vdW  Elec       q    Type
REMARK                         _______ _______ _______ _____ _____    ______ ____
ROOT
ATOM      1  N   UNL     1       1.618   0.338   2.605  0.00  0.00    -0.304 N 
ATOM      2  C   UNL     1       0.718   0.916   3.425  0.00  0.00    +0.245 C 
ATOM      3  O   UNL     1       0.602   2.126   3.443  0.00  0.00    -0.270 OA
ATOM      4  H   UNL     1       1.710  -0.628   2.591  0.00  0.00    +0.150 HD
ENDROOT
BRANCH   2   5
ATOM      5  C   UNL     1      -0.127   0.079   4.303  0.00  0.00    +0.037 A 
ATOM      6  C   UNL     1      -0.001  -1.311   4.281  0.00  0.00    +0.015 A 
ATOM      7  C   UNL     1      -0.789  -2.085   5.106  0.00  0.00    +0.034 A 
ATOM      8  C   UNL     1      -1.711  -1.488   5.947  0.00  0.00    +0.129 A 
ATOM      9  C   UNL     1      -1.846  -0.112   5.970  0.00  0.00    -0.020 A 
ATOM     10  C   UNL     1      -1.060   0.675   5.153  0.00  0.00    +0.018 A 
ATOM     11  C   UNL     1      -2.853   0.530   6.889  0.00  0.00    +0.046 C 
BRANCH   8  12
ATOM     12  N   UNL     1      -2.558  -2.326   6.826  0.00  0.00    +0.057 N 
ATOM     13  O   UNL     1      -2.096  -3.330   7.339  0.00  0.00    -0.126 OA
ATOM     14  O   UNL     1      -3.716  -2.012   7.036  0.00  0.00    -0.126 OA
ENDBRANCH   8  12
ENDBRANCH   2   5
BRANCH   1  15
ATOM     15  C   UNL     1       2.456   1.167   1.736  0.00  0.00    +0.107 C 
BRANCH  15  20
ATOM     16  C   UNL     1       7.326  -1.675   0.473  0.00  0.00    +0.044 C 
ATOM     17  C   UNL     1       6.056  -0.934   0.802  0.00  0.00    -0.050 A 
ATOM     18  C   UNL     1       6.096   0.422   1.066  0.00  0.00    +0.004 A 
ATOM     19  C   UNL     1       4.931   1.102   1.368  0.00  0.00    +0.006 A 
ATOM     20  C   UNL     1       3.726   0.426   1.406  0.00  0.00    -0.027 A 
ATOM     21  C   UNL     1       3.687  -0.932   1.148  0.00  0.00    +0.006 A 
ATOM     22  C   UNL     1       4.851  -1.611   0.842  0.00  0.00    +0.004 A 
ENDBRANCH  15  20
BRANCH  15  23
ATOM     23  C   UNL     1       1.698   1.479   0.444  0.00  0.00    +0.014 C 
ATOM     24  C   UNL     1       0.434   2.334   0.555  0.00  0.00    +0.006 C 
ATOM     25  C   UNL     1       0.321   0.837   0.260  0.00  0.00    +0.006 C 
ENDBRANCH  15  23
ENDBRANCH   1  15
TORSDOF 5
