REMARK  Name = ZINC08561399
REMARK  13 active torsions:
REMARK  status: ('A' for Active; 'I' for Inactive)
REMARK    1  A    between atoms: C_1  and  C_2
REMARK    2  A    between atoms: C_2  and  C_4
REMARK    3  A    between atoms: C_2  and  O_22
REMARK    4  A    between atoms: N_6  and  N_7
REMARK    5  A    between atoms: C_8  and  C_10
REMARK    6  A    between atoms: C_13  and  O_16
REMARK    7  A    between atoms: O_16  and  C_17
REMARK    8  A    between atoms: C_17  and  C_18
REMARK    9  A    between atoms: C_18  and  C_19
REMARK   10  A    between atoms: C_19  and  C_20
REMARK   11  A    between atoms: C_19  and  C_21
REMARK   12  A    between atoms: O_22  and  C_23
REMARK   13  A    between atoms: C_26  and  N_29
REMARK                            x       y       z     vdW  Elec       q    Type
REMARK                         _______ _______ _______ _____ _____    ______ ____
ROOT
ATOM      1  C   UNL     1      -1.426  -0.749  -0.046  0.00  0.00    +0.270 C 
ATOM      2  O   UNL     1      -1.835  -1.187  -1.100  0.00  0.00    -0.270 OA
ATOM      3  N   UNL     1      -2.233  -0.726   1.034  0.00  0.00    -0.231 N 
ATOM      4  H   UNL     1      -1.905  -0.376   1.877  0.00  0.00    +0.173 HD
ENDROOT
BRANCH   3   5
ATOM      5  N   UNL     1      -3.544  -1.209   0.938  0.00  0.00    -0.230 N 
ATOM      6  C   UNL     1      -4.351  -1.187   2.017  0.00  0.00    +0.260 C 
ATOM      7  O   UNL     1      -3.941  -0.747   3.074  0.00  0.00    -0.269 OA
ATOM      8  H   UNL     1      -3.872  -1.560   0.094  0.00  0.00    +0.173 HD
BRANCH   6   9
ATOM      9  C   UNL     1      -5.733  -1.696   1.915  0.00  0.00    +0.038 A 
ATOM     10  C   UNL     1      -6.205  -2.206   0.703  0.00  0.00    +0.016 A 
ATOM     11  C   UNL     1      -7.495  -2.680   0.613  0.00  0.00    +0.046 A 
ATOM     12  C   UNL     1      -8.327  -2.650   1.726  0.00  0.00    +0.121 A 
ATOM     13  C   UNL     1      -7.862  -2.143   2.933  0.00  0.00    +0.046 A 
ATOM     14  C   UNL     1      -6.572  -1.673   3.033  0.00  0.00    +0.016 A 
BRANCH  12  15
ATOM     15  O   UNL     1      -9.598  -3.117   1.632  0.00  0.00    -0.492 OA
BRANCH  15  16
ATOM     16  C   UNL     1     -10.400  -3.057   2.814  0.00  0.00    +0.229 C 
BRANCH  16  17
ATOM     17  C   UNL     1     -11.790  -3.623   2.516  0.00  0.00    +0.044 C 
BRANCH  17  18
ATOM     18  C   UNL     1     -12.648  -3.559   3.781  0.00  0.00    -0.014 C 
ATOM     19  C   UNL     1     -12.881  -2.096   4.166  0.00  0.00    +0.007 C 
ATOM     20  C   UNL     1     -13.994  -4.238   3.520  0.00  0.00    +0.007 C 
ENDBRANCH  17  18
ENDBRANCH  16  17
ENDBRANCH  15  16
ENDBRANCH  12  15
ENDBRANCH   6   9
ENDBRANCH   3   5
BRANCH   1  22
ATOM     21  C   UNL     1      -0.044   1.273   0.345  0.00  0.00    +0.062 C 
ATOM     22  C   UNL     1      -0.015  -0.229   0.058  0.00  0.00    +0.257 C 
BRANCH  22  23
ATOM     23  O   UNL     1       0.671  -0.465  -1.174  0.00  0.00    -0.480 OA
BRANCH  23  24
ATOM     24  C   UNL     1       2.026  -0.553  -1.118  0.00  0.00    +0.122 A 
ATOM     25  C   UNL     1       2.690  -0.309   0.075  0.00  0.00    +0.048 A 
ATOM     26  C   UNL     1       4.067  -0.400   0.129  0.00  0.00    +0.036 A 
ATOM     27  C   UNL     1       4.784  -0.733  -1.005  0.00  0.00    +0.126 A 
ATOM     28  C   UNL     1       4.125  -0.977  -2.196  0.00  0.00    +0.036 A 
ATOM     29  C   UNL     1       2.747  -0.893  -2.253  0.00  0.00    +0.048 A 
BRANCH  27  30
ATOM     30  N   UNL     1       6.260  -0.830  -0.944  0.00  0.00    +0.056 N 
ATOM     31  O   UNL     1       6.837  -0.617   0.096  0.00  0.00    -0.126 OA
ATOM     32  O   UNL     1       6.888  -1.121  -1.935  0.00  0.00    -0.126 OA
ENDBRANCH  27  30
ENDBRANCH  23  24
ENDBRANCH  22  23
ENDBRANCH   1  22
TORSDOF 10
