REMARK  Name = ZINC59109684
REMARK  7 active torsions:
REMARK  status: ('A' for Active; 'I' for Inactive)
REMARK    1  A    between atoms: C_4  and  S_10
REMARK    2  A    between atoms: C_5  and  N_7
REMARK    3  A    between atoms: S_10  and  N_13
REMARK    4  A    between atoms: N_13  and  C_14
REMARK    5  A    between atoms: C_17  and  C_19
REMARK    6  A    between atoms: C_19  and  O_20
REMARK    7  A    between atoms: O_20  and  C_21
REMARK                            x       y       z     vdW  Elec       q    Type
REMARK                         _______ _______ _______ _____ _____    ______ ____
ROOT
ATOM      1  C   UNL     1       5.215  -2.482   1.439  0.00  0.00    +0.224 A 
ATOM      2  N   UNL     1       6.203  -2.790   0.609  0.00  0.00    -0.122 NA
ATOM      3  N   UNL     1       7.152  -3.545   0.956  0.00  0.00    -0.141 NA
ATOM      4  C   UNL     1       7.224  -4.074   2.160  0.00  0.00    +0.141 A 
ATOM      5  S   UNL     1       5.738  -3.392   2.890  0.00  0.00    -0.029 S 
ENDROOT
BRANCH   1   6
ATOM      6  N   UNL     1       4.101  -1.680   1.242  0.00  0.00    -0.068 NA
BRANCH   6   7
ATOM      7  S   UNL     1       3.858  -0.946  -0.222  0.00  0.00    +0.096 S 
ATOM      8  O   UNL     1       3.618  -1.984  -1.162  0.00  0.00    -0.148 OA
ATOM      9  O   UNL     1       4.907  -0.001  -0.382  0.00  0.00    -0.148 OA
BRANCH   7  13
ATOM     10  C   UNL     1       0.016   1.428   0.090  0.00  0.00    +0.002 A 
ATOM     11  C   UNL     1       1.224   2.084  -0.062  0.00  0.00    +0.002 A 
ATOM     12  C   UNL     1       2.397   1.359  -0.157  0.00  0.00    +0.031 A 
ATOM     13  C   UNL     1       2.363  -0.022  -0.100  0.00  0.00    +0.140 A 
ATOM     14  C   UNL     1       1.156  -0.678   0.052  0.00  0.00    +0.153 A 
ATOM     15  C   UNL     1      -0.018   0.047   0.146  0.00  0.00    +0.035 A 
BRANCH  14  16
ATOM     16  N   UNL     1       1.119  -2.156   0.113  0.00  0.00    +0.058 N 
ATOM     17  O   UNL     1       0.221  -2.761  -0.425  0.00  0.00    -0.126 OA
ATOM     18  O   UNL     1       1.988  -2.759   0.699  0.00  0.00    -0.126 OA
ENDBRANCH  14  16
ENDBRANCH   7  13
ENDBRANCH   6   7
ENDBRANCH   1   6
BRANCH   4  19
ATOM     19  C   UNL     1       8.264  -4.988   2.756  0.00  0.00    +0.293 C 
BRANCH  19  20
ATOM     20  O   UNL     1       9.288  -4.205   3.374  0.00  0.00    -0.485 OA
BRANCH  20  21
ATOM     21  C   UNL     1      10.309  -4.880   3.964  0.00  0.00    +0.121 A 
ATOM     22  C   UNL     1      10.329  -6.267   3.942  0.00  0.00    +0.047 A 
ATOM     23  C   UNL     1      11.368  -6.952   4.542  0.00  0.00    +0.023 A 
ATOM     24  C   UNL     1      12.389  -6.255   5.164  0.00  0.00    +0.041 A 
ATOM     25  C   UNL     1      12.371  -4.872   5.187  0.00  0.00    +0.023 A 
ATOM     26  C   UNL     1      11.337  -4.183   4.582  0.00  0.00    +0.047 A 
ATOM     27 CL   UNL     1      13.694  -7.117   5.918  0.00  0.00    -0.084 Cl
ENDBRANCH  20  21
ENDBRANCH  19  20
ENDBRANCH   4  19
TORSDOF 7
