REMARK  Name = ZINC03383463
REMARK  5 active torsions:
REMARK  status: ('A' for Active; 'I' for Inactive)
REMARK    1  A    between atoms: C_4  and  O_21
REMARK    2  A    between atoms: C_5  and  C_7
REMARK    3  A    between atoms: N_8  and  N_9
REMARK    4  A    between atoms: C_10  and  C_12
REMARK    5  A    between atoms: O_21  and  C_22
REMARK                            x       y       z     vdW  Elec       q    Type
REMARK                         _______ _______ _______ _____ _____    ______ ____
ROOT
ATOM      1  N   UNL     1       3.600   5.951   0.001  0.00  0.00    -0.203 N 
ATOM      2  C   UNL     1       3.579   7.298   0.008  0.00  0.00    +0.263 C 
ATOM      3  O   UNL     1       2.516   7.889   0.021  0.00  0.00    -0.268 OA
ATOM      4  H   UNL     1       4.448   5.480  -0.010  0.00  0.00    +0.178 HD
ENDROOT
BRANCH   2   5
ATOM      5  C   UNL     1       4.844   8.057   0.001  0.00  0.00    +0.042 A 
ATOM      6  C   UNL     1       6.067   7.380  -0.009  0.00  0.00    +0.017 A 
ATOM      7  C   UNL     1       7.247   8.090  -0.021  0.00  0.00    +0.050 A 
ATOM      8  C   UNL     1       7.228   9.478  -0.013  0.00  0.00    +0.166 A 
ATOM      9  C   UNL     1       6.011  10.161   0.002  0.00  0.00    +0.167 A 
ATOM     10  C   UNL     1       4.824   9.454   0.008  0.00  0.00    +0.062 A 
ATOM     11  O   UNL     1       6.264  11.502   0.007  0.00  0.00    -0.453 OA
ATOM     12  C   UNL     1       7.640  11.631   0.409  0.00  0.00    +0.466 C 
ATOM     13  O   UNL     1       8.239  10.393  -0.017  0.00  0.00    -0.453 OA
ENDBRANCH   2   5
BRANCH   1  15
ATOM     14  C   UNL     1       2.420   3.933   0.001  0.00  0.00    +0.142 C 
ATOM     15  N   UNL     1       2.399   5.231   0.008  0.00  0.00    -0.187 NA
BRANCH  14  20
ATOM     16  C   UNL     1      -0.013   1.076   0.008  0.00  0.00    +0.001 A 
ATOM     17  C   UNL     1      -1.222   1.749   0.017  0.00  0.00    +0.004 A 
ATOM     18  C   UNL     1      -1.254   3.130   0.031  0.00  0.00    +0.046 A 
ATOM     19  C   UNL     1      -0.071   3.852   0.023  0.00  0.00    +0.135 A 
ATOM     20  C   UNL     1       1.156   3.175   0.008  0.00  0.00    +0.036 A 
ATOM     21  C   UNL     1       1.174   1.779   0.000  0.00  0.00    +0.013 A 
BRANCH  19  22
ATOM     22  O   UNL     1      -0.101   5.210   0.032  0.00  0.00    -0.434 OA
BRANCH  22  23
ATOM     23  C   UNL     1      -1.388   5.830   0.047  0.00  0.00    +0.541 C 
ATOM     24  F   UNL     1      -2.106   5.446  -1.091  0.00  0.00    -0.166 F 
ATOM     25  F   UNL     1      -2.084   5.433   1.194  0.00  0.00    -0.166 F 
ENDBRANCH  22  23
ENDBRANCH  19  22
ENDBRANCH  14  20
ENDBRANCH   1  15
TORSDOF 5
