REMARK  Name = ZINC19297408
REMARK  12 active torsions:
REMARK  status: ('A' for Active; 'I' for Inactive)
REMARK    1  A    between atoms: C_1  and  C_2
REMARK    2  A    between atoms: C_2  and  C_3
REMARK    3  A    between atoms: C_3  and  C_4
REMARK    4  A    between atoms: C_4  and  N_5
REMARK    5  A    between atoms: C_6  and  C_10
REMARK    6  A    between atoms: C_10  and  S_11
REMARK    7  A    between atoms: S_11  and  C_12
REMARK    8  A    between atoms: N_22  and  C_23
REMARK    9  A    between atoms: C_23  and  C_24
REMARK   10  A    between atoms: C_24  and  C_25
REMARK   11  A    between atoms: C_28  and  S_31
REMARK   12  A    between atoms: S_31  and  N_34
REMARK                            x       y       z     vdW  Elec       q    Type
REMARK                         _______ _______ _______ _____ _____    ______ ____
ROOT
ATOM      1  C   UNL     1      -2.284  -3.132   1.762  0.00  0.00    +0.173 A 
ATOM      2  N   UNL     1      -3.301  -2.932   0.960  0.00  0.00    -0.223 NA
ATOM      3  C   UNL     1      -4.031  -3.957   0.476  0.00  0.00    +0.079 A 
ATOM      4  C   UNL     1      -5.113  -3.744  -0.384  0.00  0.00    +0.028 A 
ATOM      5  C   UNL     1      -5.830  -4.811  -0.846  0.00  0.00    +0.002 A 
ATOM      6  C   UNL     1      -5.500  -6.108  -0.475  0.00  0.00    +0.001 A 
ATOM      7  C   UNL     1      -4.447  -6.349   0.364  0.00  0.00    +0.015 A 
ATOM      8  C   UNL     1      -3.699  -5.278   0.851  0.00  0.00    +0.065 A 
ATOM      9  C   UNL     1      -2.558  -5.476   1.756  0.00  0.00    +0.262 A 
ATOM     10  O   UNL     1      -2.223  -6.590   2.115  0.00  0.00    -0.267 OA
ATOM     11  N   UNL     1      -1.894  -4.374   2.175  0.00  0.00    -0.287 N 
ENDROOT
BRANCH   1  12
ATOM     12  S   UNL     1      -1.383  -1.732   2.341  0.00  0.00    -0.080 S 
BRANCH  12  13
ATOM     13  C   UNL     1      -2.296  -0.407   1.514  0.00  0.00    +0.155 C 
BRANCH  13  15
ATOM     14  N   UNL     1      -0.698   1.558   1.213  0.00  0.00    -0.228 N 
ATOM     15  C   UNL     1      -1.686   0.923   1.872  0.00  0.00    +0.161 A 
ATOM     16  N   UNL     1      -2.012   1.687   2.887  0.00  0.00    -0.113 NA
ATOM     17  N   UNL     1      -1.264   2.735   2.853  0.00  0.00    -0.023 NA
ATOM     18  N   UNL     1      -0.466   2.658   1.846  0.00  0.00    -0.044 NA
BRANCH  14  19
ATOM     19  C   UNL     1      -0.013   1.086   0.008  0.00  0.00    +0.147 C 
BRANCH  19  20
ATOM     20  C   UNL     1      -0.753   1.593  -1.232  0.00  0.00    +0.023 C 
BRANCH  20  22
ATOM     21  C   UNL     1      -0.777   1.606  -3.730  0.00  0.00    +0.004 C 
ATOM     22  C   UNL     1      -0.037   1.099  -2.490  0.00  0.00    -0.002 C 
ENDBRANCH  20  22
ENDBRANCH  19  20
ENDBRANCH  14  19
ENDBRANCH  13  15
ENDBRANCH  12  13
ENDBRANCH   1  12
BRANCH  11  23
ATOM     23  C   UNL     1      -0.749  -4.513   3.078  0.00  0.00    +0.132 C 
BRANCH  23  24
ATOM     24  C   UNL     1      -1.234  -4.462   4.528  0.00  0.00    +0.057 C 
BRANCH  24  25
ATOM     25  C   UNL     1      -0.057  -4.606   5.457  0.00  0.00    -0.046 A 
ATOM     26  C   UNL     1       0.339  -5.861   5.883  0.00  0.00    +0.005 A 
ATOM     27  C   UNL     1       1.422  -5.993   6.732  0.00  0.00    +0.029 A 
ATOM     28  C   UNL     1       2.104  -4.870   7.162  0.00  0.00    +0.105 A 
ATOM     29  C   UNL     1       1.705  -3.615   6.741  0.00  0.00    +0.029 A 
ATOM     30  C   UNL     1       0.625  -3.483   5.889  0.00  0.00    +0.005 A 
BRANCH  28  31
ATOM     31  S   UNL     1       3.482  -5.038   8.248  0.00  0.00    +0.056 S 
ATOM     32  O   UNL     1       3.989  -6.352   8.059  0.00  0.00    -0.153 OA
ATOM     33  O   UNL     1       4.284  -3.879   8.069  0.00  0.00    -0.153 OA
BRANCH  31  34
ATOM     34  N   UNL     1       2.896  -4.974   9.796  0.00  0.00    -0.204 NA
ATOM     35  H   UNL     1       3.729  -5.076  10.507  0.00  0.00    +0.144 HD
ATOM     36  H   UNL     1       2.179  -5.794   9.950  0.00  0.00    +0.144 HD
ENDBRANCH  31  34
ENDBRANCH  28  31
ENDBRANCH  24  25
ENDBRANCH  23  24
ENDBRANCH  11  23
TORSDOF 11
