REMARK  Name = ZINC09347533
REMARK  8 active torsions:
REMARK  status: ('A' for Active; 'I' for Inactive)
REMARK    1  A    between atoms: C_1  and  C_2
REMARK    2  A    between atoms: C_2  and  O_3
REMARK    3  A    between atoms: O_3  and  C_4
REMARK    4  A    between atoms: C_12  and  N_17
REMARK    5  A    between atoms: C_13  and  C_14
REMARK    6  A    between atoms: C_18  and  C_20
REMARK    7  A    between atoms: C_20  and  O_21
REMARK    8  A    between atoms: O_21  and  C_22
REMARK                            x       y       z     vdW  Elec       q    Type
REMARK                         _______ _______ _______ _____ _____    ______ ____
ROOT
ATOM      1  C   UNL     1      10.816  -4.840   0.926  0.00  0.00    +0.403 C 
ATOM      2  O   UNL     1      11.177  -5.989   1.090  0.00  0.00    -0.226 OA
ATOM      3  N   UNL     1       9.778  -4.570   0.109  0.00  0.00    -0.262 N 
ATOM      4  C   UNL     1       9.063  -5.644  -0.597  0.00  0.00    +0.116 C 
ATOM      5  C   UNL     1       7.617  -5.709  -0.100  0.00  0.00    +0.056 C 
ATOM      6  C   UNL     1       7.026  -4.305  -0.090  0.00  0.00    -0.020 A 
ATOM      7  C   UNL     1       7.818  -3.210  -0.092  0.00  0.00    +0.013 A 
ATOM      8  S   UNL     1       6.699  -1.839  -0.074  0.00  0.00    -0.076 S 
ATOM      9  C   UNL     1       5.198  -2.704  -0.065  0.00  0.00    +0.085 A 
ATOM     10  C   UNL     1       5.598  -4.033  -0.070  0.00  0.00    +0.068 A 
ATOM     11  C   UNL     1       9.316  -3.185  -0.110  0.00  0.00    +0.153 C 
ENDROOT
BRANCH  10  12
ATOM     12  C   UNL     1       4.617  -5.122  -0.061  0.00  0.00    +0.244 C 
ATOM     13  O   UNL     1       4.199  -5.574  -1.111  0.00  0.00    -0.270 OA
ATOM     14  N   UNL     1       4.179  -5.624   1.110  0.00  0.00    -0.325 N 
ATOM     15  H   UNL     1       4.512  -5.264   1.947  0.00  0.00    +0.145 HD
ATOM     16  H   UNL     1       3.530  -6.345   1.117  0.00  0.00    +0.145 HD
ENDBRANCH  10  12
BRANCH   9  17
ATOM     17  N   UNL     1       3.909  -2.193  -0.049  0.00  0.00    -0.277 N 
ATOM     18  C   UNL     1       3.713  -0.860  -0.040  0.00  0.00    +0.255 C 
ATOM     19  O   UNL     1       4.664  -0.107  -0.044  0.00  0.00    -0.272 OA
ATOM     20  H   UNL     1       3.148  -2.795  -0.045  0.00  0.00    +0.155 HD
BRANCH  18  21
ATOM     21  C   UNL     1       2.312  -0.304  -0.023  0.00  0.00    +0.325 C 
BRANCH  21  22
ATOM     22  O   UNL     1       2.366   1.123  -0.015  0.00  0.00    -0.481 OA
BRANCH  22  23
ATOM     23  C   UNL     1       1.179   1.786   0.000  0.00  0.00    +0.140 A 
ATOM     24  C   UNL     1      -0.013   1.076   0.008  0.00  0.00    +0.048 A 
ATOM     25  C   UNL     1      -1.218   1.751   0.017  0.00  0.00    +0.023 A 
ATOM     26  C   UNL     1      -1.238   3.134   0.031  0.00  0.00    +0.043 A 
ATOM     27  C   UNL     1      -0.051   3.845   0.023  0.00  0.00    +0.043 A 
ATOM     28  C   UNL     1       1.157   3.174   0.008  0.00  0.00    +0.084 A 
ATOM     29 CL   UNL     1       2.647   4.066  -0.001  0.00  0.00    -0.080 Cl
ATOM     30 CL   UNL     1      -2.754   3.979   0.050  0.00  0.00    -0.083 Cl
ENDBRANCH  22  23
ENDBRANCH  21  22
ENDBRANCH  18  21
ENDBRANCH   9  17
BRANCH   1  31
ATOM     31  O   UNL     1      11.452  -3.837   1.560  0.00  0.00    -0.451 OA
BRANCH  31  33
ATOM     32  C   UNL     1      13.155  -2.940   3.053  0.00  0.00    +0.048 C 
ATOM     33  C   UNL     1      12.561  -4.203   2.424  0.00  0.00    +0.230 C 
ENDBRANCH  31  33
ENDBRANCH   1  31
TORSDOF 7
