REMARK  Name = ZINC12602168
REMARK  8 active torsions:
REMARK  status: ('A' for Active; 'I' for Inactive)
REMARK    1  A    between atoms: C_1  and  C_2
REMARK    2  A    between atoms: C_2  and  C_3
REMARK    3  A    between atoms: C_2  and  N_4
REMARK    4  A    between atoms: N_7  and  C_8
REMARK    5  A    between atoms: C_8  and  C_9
REMARK    6  A    between atoms: C_17  and  C_19
REMARK    7  A    between atoms: C_21  and  C_25
REMARK    8  A    between atoms: N_23  and  C_24
REMARK                            x       y       z     vdW  Elec       q    Type
REMARK                         _______ _______ _______ _____ _____    ______ ____
ROOT
ATOM      1  C   UNL     1       1.802   0.904   1.558  0.00  0.00    -0.051 C 
ATOM      2  C   UNL     1       1.870   2.316   0.970  0.00  0.00    -0.010 C 
ATOM      3  C   UNL     1       1.267   2.295  -0.441  0.00  0.00    -0.007 C 
ATOM      4  C   UNL     1      -0.184   1.808  -0.344  0.00  0.00    -0.015 C 
ATOM      5  C   UNL     1      -0.197   0.411   0.281  0.00  0.00    -0.078 C 
ATOM      6  C   UNL     1       1.987  -0.083  -0.645  0.00  0.00    -0.068 C 
ATOM      7  C   UNL     1       2.060   1.300  -1.297  0.00  0.00    +0.024 C 
ATOM      8  N   UNL     1       1.181  -0.028   0.593  0.00  0.00    +0.383 N 
ATOM      9  H   UNL     1       1.146  -0.965   1.010  0.00  0.00    -0.081 HD
ENDROOT
BRANCH   7  10
ATOM     10  C   UNL     1       3.499   1.742  -1.382  0.00  0.00    +0.041 A 
ATOM     11  C   UNL     1       4.586   0.966  -1.170  0.00  0.00    +0.048 A 
ATOM     12  C   UNL     1       5.724   1.759  -1.350  0.00  0.00    +0.066 A 
ATOM     13  N   UNL     1       5.333   2.971  -1.652  0.00  0.00    -0.176 NA
ATOM     14  N   UNL     1       3.933   2.985  -1.679  0.00  0.00    -0.271 N 
ATOM     15  C   UNL     1       3.088   4.145  -1.976  0.00  0.00    +0.172 C 
BRANCH  12  16
ATOM     16  C   UNL     1       7.152   1.299  -1.214  0.00  0.00    +0.040 C 
ATOM     17  C   UNL     1       7.276  -0.177  -1.645  0.00  0.00    +0.010 C 
ATOM     18  C   UNL     1       8.314  -0.774  -0.664  0.00  0.00    +0.001 C 
ATOM     19  C   UNL     1       7.963  -0.075   0.673  0.00  0.00    +0.001 C 
ATOM     20  C   UNL     1       7.589   1.364   0.260  0.00  0.00    +0.010 C 
ENDBRANCH  12  16
ENDBRANCH   7  10
BRANCH   1  21
ATOM     21  C   UNL     1       3.216   0.416   1.880  0.00  0.00    +0.090 C 
BRANCH  21  25
ATOM     22  N   UNL     1       4.242  -2.894   3.107  0.00  0.00    -0.297 N 
ATOM     23  C   UNL     1       4.293  -1.616   2.683  0.00  0.00    +0.300 C 
ATOM     24  O   UNL     1       5.363  -1.042   2.611  0.00  0.00    -0.253 OA
ATOM     25  N   UNL     1       3.159  -0.973   2.341  0.00  0.00    -0.301 N 
ATOM     26  H   UNL     1       3.389  -3.352   3.165  0.00  0.00    +0.150 HD
ATOM     27  H   UNL     1       2.306  -1.431   2.399  0.00  0.00    +0.150 HD
BRANCH  22  29
ATOM     28  C   UNL     1       5.819  -3.278   4.937  0.00  0.00    +0.027 C 
ATOM     29  C   UNL     1       5.474  -3.593   3.479  0.00  0.00    +0.068 C 
ATOM     30  C   UNL     1       5.275  -5.101   3.317  0.00  0.00    +0.027 C 
ENDBRANCH  22  29
ENDBRANCH  21  25
ENDBRANCH   1  21
TORSDOF 5
