REMARK  Name = ZINC13355431
REMARK  8 active torsions:
REMARK  status: ('A' for Active; 'I' for Inactive)
REMARK    1  A    between atoms: C_2  and  C_3
REMARK    2  A    between atoms: C_3  and  N_4
REMARK    3  A    between atoms: C_8  and  C_27
REMARK    4  A    between atoms: C_13  and  S_14
REMARK    5  A    between atoms: S_14  and  C_15
REMARK    6  A    between atoms: C_15  and  C_16
REMARK    7  A    between atoms: N_18  and  C_19
REMARK    8  A    between atoms: C_22  and  C_25
REMARK                            x       y       z     vdW  Elec       q    Type
REMARK                         _______ _______ _______ _____ _____    ______ ____
ROOT
ATOM      1  N   UNL     1      -3.721   0.626   2.510  0.00  0.00    -0.283 N 
ATOM      2  C   UNL     1      -2.613   0.621   1.747  0.00  0.00    +0.264 A 
ATOM      3  O   UNL     1      -1.806   1.532   1.824  0.00  0.00    -0.267 OA
ATOM      4  C   UNL     1      -2.393  -0.465   0.846  0.00  0.00    +0.083 A 
ATOM      5  C   UNL     1      -1.280  -0.689  -0.073  0.00  0.00    +0.039 A 
ATOM      6  C   UNL     1      -1.288  -1.804  -0.846  0.00  0.00    +0.059 A 
ATOM      7  S   UNL     1      -2.796  -2.626  -0.371  0.00  0.00    -0.076 S 
ATOM      8  C   UNL     1      -3.382  -1.463   0.835  0.00  0.00    +0.117 A 
ATOM      9  N   UNL     1      -4.455  -1.400   1.616  0.00  0.00    -0.216 NA
ATOM     10  C   UNL     1      -4.634  -0.386   2.438  0.00  0.00    +0.173 A 
ENDROOT
BRANCH   5  11
ATOM     11  C   UNL     1      -0.170   0.281  -0.164  0.00  0.00    +0.136 A 
ATOM     12  C   UNL     1       1.156  -0.014  -0.100  0.00  0.00    +0.050 A 
ATOM     13  C   UNL     1       1.850   1.207  -0.228  0.00  0.00    +0.042 A 
ATOM     14  C   UNL     1       0.924   2.175  -0.362  0.00  0.00    +0.196 A 
ATOM     15  O   UNL     1      -0.296   1.613  -0.323  0.00  0.00    -0.463 OA
ENDBRANCH   5  11
BRANCH   1  16
ATOM     16  C   UNL     1      -3.951   1.738   3.436  0.00  0.00    +0.154 C 
BRANCH  16  18
ATOM     17  C   UNL     1      -5.852   3.258   3.248  0.00  0.00    +0.005 C 
ATOM     18  C   UNL     1      -4.728   2.822   2.735  0.00  0.00    -0.013 C 
ENDBRANCH  16  18
ENDBRANCH   1  16
BRANCH  10  19
ATOM     19  S   UNL     1      -6.070  -0.336   3.458  0.00  0.00    -0.078 S 
BRANCH  19  20
ATOM     20  C   UNL     1      -6.872  -1.876   2.946  0.00  0.00    +0.173 C 
BRANCH  20  21
ATOM     21  C   UNL     1      -8.160  -2.049   3.710  0.00  0.00    +0.227 C 
ATOM     22  O   UNL     1      -8.501  -1.214   4.521  0.00  0.00    -0.275 OA
ATOM     23  N   UNL     1      -8.932  -3.132   3.492  0.00  0.00    -0.285 N 
ATOM     24  H   UNL     1      -8.699  -3.760   2.790  0.00  0.00    +0.155 HD
BRANCH  23  25
ATOM     25  C   UNL     1     -10.065  -3.349   4.274  0.00  0.00    +0.033 A 
ATOM     26  C   UNL     1     -10.068  -2.967   5.612  0.00  0.00    +0.024 A 
ATOM     27  C   UNL     1     -11.187  -3.175   6.387  0.00  0.00    +0.017 A 
ATOM     28  C   UNL     1     -12.317  -3.782   5.831  0.00  0.00    +0.063 A 
ATOM     29  C   UNL     1     -12.308  -4.169   4.487  0.00  0.00    +0.017 A 
ATOM     30  C   UNL     1     -11.188  -3.953   3.717  0.00  0.00    +0.024 A 
BRANCH  28  31
ATOM     31  C   UNL     1     -13.515  -4.011   6.659  0.00  0.00    +0.387 C 
ATOM     32  O   UNL     1     -14.497  -4.538   6.173  0.00  0.00    -0.241 OA
ATOM     33  O   UNL     1     -13.522  -3.637   7.953  0.00  0.00    -0.241 OA
ENDBRANCH  28  31
ENDBRANCH  23  25
ENDBRANCH  20  21
ENDBRANCH  19  20
ENDBRANCH  10  19
TORSDOF 8
