REMARK  Name = ZINC66190264
REMARK  8 active torsions:
REMARK  status: ('A' for Active; 'I' for Inactive)
REMARK    1  A    between atoms: C_1  and  C_2
REMARK    2  A    between atoms: C_2  and  C_3
REMARK    3  A    between atoms: C_2  and  C_4
REMARK    4  A    between atoms: C_2  and  O_5
REMARK    5  A    between atoms: O_5  and  C_6
REMARK    6  A    between atoms: C_13  and  C_15
REMARK    7  A    between atoms: C_15  and  N_16
REMARK    8  A    between atoms: C_22  and  N_25
REMARK                            x       y       z     vdW  Elec       q    Type
REMARK                         _______ _______ _______ _____ _____    ______ ____
ROOT
ATOM      1  N   UNL     1       3.328   1.473  -1.291  0.00  0.00    -0.297 N 
ATOM      2  C   UNL     1       3.584   2.425  -0.371  0.00  0.00    +0.302 C 
ATOM      3  O   UNL     1       4.694   2.516   0.116  0.00  0.00    -0.253 OA
ATOM      4  N   UNL     1       2.609   3.275   0.008  0.00  0.00    -0.287 N 
ATOM      5  C   UNL     1       1.202   3.208  -0.414  0.00  0.00    +0.108 C 
ATOM      6  C   UNL     1       0.469   4.394   0.248  0.00  0.00    +0.005 C 
ATOM      7  C   UNL     1       1.620   5.388   0.552  0.00  0.00    -0.049 C 
ATOM      8  C   UNL     1       2.775   4.421   0.920  0.00  0.00    +0.094 C 
ATOM      9  H   UNL     1       2.465   1.445  -1.733  0.00  0.00    +0.150 HD
ENDROOT
BRANCH   7  10
ATOM     10  N   UNL     1       1.280   6.256   1.688  0.00  0.00    +0.383 N 
ATOM     11  C   UNL     1       2.356   7.257   1.907  0.00  0.00    -0.078 C 
ATOM     12  C   UNL     1       1.637   8.384   2.691  0.00  0.00    -0.020 C 
ATOM     13  C   UNL     1       0.236   8.421   2.036  0.00  0.00    -0.020 C 
ATOM     14  C   UNL     1       0.060   7.035   1.387  0.00  0.00    -0.078 C 
ATOM     15  H   UNL     1       1.143   5.703   2.520  0.00  0.00    -0.081 HD
ENDBRANCH   7  10
BRANCH   1  16
ATOM     16  C   UNL     1       4.353   0.481  -1.624  0.00  0.00    +0.128 C 
BRANCH  16  24
ATOM     17  C   UNL     1       5.978  -1.540  -2.330  0.00  0.00    +0.404 C 
ATOM     18  O   UNL     1       6.181  -0.764  -1.418  0.00  0.00    -0.226 OA
ATOM     19  N   UNL     1       4.878  -1.406  -3.097  0.00  0.00    -0.263 N 
ATOM     20  C   UNL     1       4.672  -2.268  -4.269  0.00  0.00    +0.111 C 
ATOM     21  C   UNL     1       4.419  -1.384  -5.494  0.00  0.00    +0.019 C 
ATOM     22  C   UNL     1       3.256  -0.434  -5.201  0.00  0.00    +0.003 C 
ATOM     23  C   UNL     1       3.618   0.470  -4.020  0.00  0.00    +0.024 C 
ATOM     24  C   UNL     1       3.859  -0.397  -2.775  0.00  0.00    +0.096 C 
BRANCH  17  25
ATOM     25  O   UNL     1       6.851  -2.535  -2.575  0.00  0.00    -0.445 OA
BRANCH  25  27
ATOM     26  C   UNL     1       7.459  -2.849  -0.257  0.00  0.00    +0.055 C 
ATOM     27  C   UNL     1       7.965  -2.653  -1.688  0.00  0.00    +0.107 C 
ATOM     28  C   UNL     1       8.812  -1.381  -1.760  0.00  0.00    +0.055 C 
ATOM     29  C   UNL     1       8.817  -3.857  -2.096  0.00  0.00    +0.055 C 
ENDBRANCH  25  27
ENDBRANCH  17  25
ENDBRANCH  16  24
ENDBRANCH   1  16
TORSDOF 5
