REMARK  Name = ZINC33340699
REMARK  7 active torsions:
REMARK  status: ('A' for Active; 'I' for Inactive)
REMARK    1  A    between atoms: C_1  and  C_2
REMARK    2  A    between atoms: C_2  and  C_22
REMARK    3  A    between atoms: N_3  and  N_4
REMARK    4  A    between atoms: C_5  and  C_7
REMARK    5  A    between atoms: C_7  and  C_8
REMARK    6  A    between atoms: C_8  and  N_9
REMARK    7  A    between atoms: C_26  and  N_28
REMARK                            x       y       z     vdW  Elec       q    Type
REMARK                         _______ _______ _______ _____ _____    ______ ____
ROOT
ATOM      1  N   UNL     1      -0.011   0.966   0.007  0.00  0.00    -0.207 N 
ATOM      2  C   UNL     1      -1.187   1.624   0.017  0.00  0.00    +0.234 C 
ATOM      3  O   UNL     1      -1.204   2.837   0.023  0.00  0.00    -0.274 OA
ATOM      4  H   UNL     1       0.004  -0.134   0.006  0.00  0.00    +0.177 HD
ENDROOT
BRANCH   1   7
ATOM      5  C   UNL     1       2.345  -0.458  -0.023  0.00  0.00    +0.068 C 
ATOM      6  C   UNL     1       2.325   1.049  -0.015  0.00  0.00    +0.063 C 
ATOM      7  N   UNL     1       1.193   1.683  -0.000  0.00  0.00    -0.185 NA
BRANCH   6   8
ATOM      8  C   UNL     1       3.592   1.804  -0.022  0.00  0.00    -0.000 A 
ATOM      9  C   UNL     1       4.813   1.125  -0.032  0.00  0.00    +0.010 A 
ATOM     10  C   UNL     1       5.994   1.838  -0.043  0.00  0.00    +0.003 A 
ATOM     11  C   UNL     1       5.971   3.221  -0.036  0.00  0.00    +0.033 A 
ATOM     12  C   UNL     1       4.766   3.900  -0.022  0.00  0.00    +0.127 A 
ATOM     13  C   UNL     1       3.577   3.201  -0.015  0.00  0.00    +0.042 A 
BRANCH  12  14
ATOM     14  N   UNL     1       4.752   5.380  -0.014  0.00  0.00    +0.056 N 
ATOM     15  O   UNL     1       3.692   5.979  -0.001  0.00  0.00    -0.126 OA
ATOM     16  O   UNL     1       5.801   5.999  -0.020  0.00  0.00    -0.126 OA
ENDBRANCH  12  14
ENDBRANCH   6   8
ENDBRANCH   1   7
BRANCH   2  17
ATOM     17  C   UNL     1      -2.482   0.853   0.018  0.00  0.00    +0.119 C 
BRANCH  17  18
ATOM     18  C   UNL     1      -3.658   1.831   0.029  0.00  0.00    +0.131 C 
BRANCH  18  19
ATOM     19  N   UNL     1      -4.917   1.081   0.031  0.00  0.00    -0.343 N 
ATOM     20  C   UNL     1      -5.591   0.671   1.161  0.00  0.00    +0.050 A 
ATOM     21  C   UNL     1      -5.346   0.807   2.523  0.00  0.00    +0.026 A 
ATOM     22  C   UNL     1      -6.230   0.274   3.435  0.00  0.00    +0.002 A 
ATOM     23  C   UNL     1      -7.366  -0.401   3.008  0.00  0.00    +0.001 A 
ATOM     24  C   UNL     1      -7.627  -0.547   1.675  0.00  0.00    +0.010 A 
ATOM     25  C   UNL     1      -6.745  -0.014   0.732  0.00  0.00    +0.003 A 
ATOM     26  C   UNL     1      -6.710   0.020  -0.726  0.00  0.00    -0.019 A 
ATOM     27  C   UNL     1      -5.599   0.691  -1.086  0.00  0.00    +0.023 A 
ATOM     28  C   UNL     1      -5.196   0.934  -2.523  0.00  0.00    +0.054 C 
ATOM     29  C   UNL     1      -5.989  -0.022  -3.421  0.00  0.00    +0.006 C 
ATOM     30  C   UNL     1      -7.477   0.062  -3.071  0.00  0.00    +0.005 C 
ATOM     31  C   UNL     1      -7.709  -0.566  -1.691  0.00  0.00    +0.037 C 
ENDBRANCH  18  19
ENDBRANCH  17  18
ENDBRANCH   2  17
TORSDOF 6
