REMARK  Name = ZINC47050961
REMARK  7 active torsions:
REMARK  status: ('A' for Active; 'I' for Inactive)
REMARK    1  A    between atoms: C_1  and  C_2
REMARK    2  A    between atoms: C_2  and  N_9
REMARK    3  A    between atoms: N_9  and  N_10
REMARK    4  A    between atoms: N_13  and  C_14
REMARK    5  A    between atoms: C_14  and  C_15
REMARK    6  A    between atoms: C_19  and  O_21
REMARK    7  A    between atoms: O_21  and  C_22
REMARK                            x       y       z     vdW  Elec       q    Type
REMARK                         _______ _______ _______ _____ _____    ______ ____
ROOT
ATOM      1  N   UNL     1       0.170  -0.082  -2.061  0.00  0.00    -0.234 N 
ATOM      2  C   UNL     1       0.636  -0.374  -3.291  0.00  0.00    +0.314 C 
ATOM      3  O   UNL     1       0.052   0.035  -4.275  0.00  0.00    -0.252 OA
ATOM      4  N   UNL     1       1.751  -1.119  -3.430  0.00  0.00    -0.294 N 
ATOM      5  H   UNL     1      -0.632   0.454  -1.960  0.00  0.00    +0.171 HD
ATOM      6  H   UNL     1       2.217  -1.445  -2.645  0.00  0.00    +0.151 HD
ENDROOT
BRANCH   1   7
ATOM      7  N   UNL     1       0.827  -0.542  -0.955  0.00  0.00    -0.232 NA
ATOM      8  H   UNL     1       0.922  -1.546  -0.982  0.00  0.00    +0.145 HD
BRANCH   7  10
ATOM      9  C   UNL     1       0.109   1.419   0.300  0.00  0.00    +0.031 C 
ATOM     10  C   UNL     1       0.151  -0.111   0.276  0.00  0.00    +0.054 C 
ATOM     11  C   UNL     1      -1.282  -0.640   0.256  0.00  0.00    +0.047 C 
ATOM     12  C   UNL     1      -1.348  -2.043   0.920  0.00  0.00    +0.168 C 
ATOM     13  S   UNL     1      -0.176  -1.775   2.322  0.00  0.00    -0.029 S 
ATOM     14  O   UNL     1       0.513  -2.987   2.594  0.00  0.00    -0.174 OA
ATOM     15  O   UNL     1      -0.853  -1.100   3.374  0.00  0.00    -0.174 OA
ATOM     16  C   UNL     1       0.970  -0.601   1.487  0.00  0.00    +0.189 C 
ENDBRANCH   7  10
ENDBRANCH   1   7
BRANCH   4  17
ATOM     17  C   UNL     1       2.258  -1.435  -4.768  0.00  0.00    +0.141 C 
BRANCH  17  18
ATOM     18  C   UNL     1       3.505  -2.273  -4.647  0.00  0.00    -0.027 A 
ATOM     19  C   UNL     1       4.743  -1.662  -4.569  0.00  0.00    +0.005 A 
ATOM     20  C   UNL     1       5.889  -2.428  -4.457  0.00  0.00    +0.004 A 
ATOM     21  C   UNL     1       5.799  -3.806  -4.425  0.00  0.00    +0.046 A 
ATOM     22  C   UNL     1       4.558  -4.422  -4.503  0.00  0.00    +0.129 A 
ATOM     23  C   UNL     1       3.409  -3.651  -4.609  0.00  0.00    +0.051 A 
BRANCH  22  24
ATOM     24  O   UNL     1       4.468  -5.777  -4.471  0.00  0.00    -0.456 OA
BRANCH  24  25
ATOM     25  C   UNL     1       4.052  -6.415  -5.597  0.00  0.00    +0.128 A 
ATOM     26  C   UNL     1       3.862  -5.701  -6.771  0.00  0.00    +0.046 A 
ATOM     27  C   UNL     1       3.439  -6.352  -7.913  0.00  0.00    +0.004 A 
ATOM     28  C   UNL     1       3.205  -7.714  -7.888  0.00  0.00    +0.000 A 
ATOM     29  C   UNL     1       3.393  -8.429  -6.719  0.00  0.00    +0.004 A 
ATOM     30  C   UNL     1       3.822  -7.784  -5.575  0.00  0.00    +0.046 A 
ENDBRANCH  24  25
ENDBRANCH  22  24
ENDBRANCH  17  18
ENDBRANCH   4  17
TORSDOF 6
