REMARK  Name = ZINC34779695
REMARK  7 active torsions:
REMARK  status: ('A' for Active; 'I' for Inactive)
REMARK    1  A    between atoms: C_1  and  C_2
REMARK    2  A    between atoms: N_6  and  C_20
REMARK    3  A    between atoms: N_9  and  C_17
REMARK    4  A    between atoms: C_12  and  C_13
REMARK    5  A    between atoms: N_15  and  N_16
REMARK    6  A    between atoms: C_17  and  C_18
REMARK    7  A    between atoms: C_20  and  C_21
REMARK                            x       y       z     vdW  Elec       q    Type
REMARK                         _______ _______ _______ _____ _____    ______ ____
ROOT
ATOM      1  C   UNL     1       0.142   1.411   0.045  0.00  0.00    +0.046 C 
ATOM      2  C   UNL     1       0.105  -0.095   0.010  0.00  0.00    -0.017 A 
ATOM      3  C   UNL     1       0.061  -0.797  -1.201  0.00  0.00    +0.074 A 
ATOM      4  C   UNL     1       0.044  -0.258  -2.583  0.00  0.00    +0.265 A 
ATOM      5  O   UNL     1       0.070   0.943  -2.777  0.00  0.00    -0.267 OA
ATOM      6  N   UNL     1       0.001  -1.114  -3.619  0.00  0.00    -0.256 N 
ATOM      7  C   UNL     1      -0.028  -2.444  -3.438  0.00  0.00    +0.333 A 
ATOM      8  O   UNL     1      -0.067  -3.175  -4.409  0.00  0.00    -0.246 OA
ATOM      9  N   UNL     1      -0.015  -2.987  -2.207  0.00  0.00    -0.283 N 
ATOM     10  C   UNL     1       0.030  -2.195  -1.094  0.00  0.00    +0.098 A 
ATOM     11  S   UNL     1       0.058  -2.507   0.547  0.00  0.00    -0.065 S 
ATOM     12  C   UNL     1       0.117  -0.834   1.158  0.00  0.00    +0.081 A 
ENDROOT
BRANCH  12  13
ATOM     13  C   UNL     1       0.166  -0.368   2.546  0.00  0.00    +0.264 C 
ATOM     14  O   UNL     1       0.201   0.825   2.786  0.00  0.00    -0.268 OA
ATOM     15  N   UNL     1       0.171  -1.260   3.556  0.00  0.00    -0.249 N 
ATOM     16  H   UNL     1       0.142  -2.210   3.364  0.00  0.00    +0.169 HD
BRANCH  15  17
ATOM     17  N   UNL     1       0.216  -0.825   4.850  0.00  0.00    -0.254 NA
ATOM     18  H   UNL     1      -0.545  -0.193   5.046  0.00  0.00    +0.140 HD
ATOM     19  H   UNL     1       0.214  -1.603   5.493  0.00  0.00    +0.140 HD
ENDBRANCH  15  17
ENDBRANCH  12  13
BRANCH   9  20
ATOM     20  C   UNL     1      -0.048  -4.444  -2.057  0.00  0.00    +0.154 C 
BRANCH  20  21
ATOM     21  C   UNL     1       1.361  -4.979  -2.037  0.00  0.00    -0.013 C 
ATOM     22  C   UNL     1       1.765  -5.722  -1.037  0.00  0.00    +0.005 C 
ENDBRANCH  20  21
ENDBRANCH   9  20
BRANCH   6  23
ATOM     23  C   UNL     1      -0.016  -0.580  -4.984  0.00  0.00    +0.166 C 
BRANCH  23  24
ATOM     24  C   UNL     1      -1.435  -0.541  -5.490  0.00  0.00    -0.009 A 
ATOM     25  C   UNL     1      -1.937  -1.600  -6.222  0.00  0.00    +0.007 A 
ATOM     26  C   UNL     1      -3.239  -1.565  -6.687  0.00  0.00    +0.000 A 
ATOM     27  C   UNL     1      -4.039  -0.469  -6.420  0.00  0.00    +0.001 A 
ATOM     28  C   UNL     1      -3.538   0.591  -5.688  0.00  0.00    +0.020 A 
ATOM     29  C   UNL     1      -2.237   0.553  -5.218  0.00  0.00    +0.046 A 
ATOM     30 CL   UNL     1      -1.609   1.881  -4.293  0.00  0.00    -0.083 Cl
ENDBRANCH  23  24
ENDBRANCH   6  23
TORSDOF 6
