REMARK  Name = ZINC13077296
REMARK  7 active torsions:
REMARK  status: ('A' for Active; 'I' for Inactive)
REMARK    1  A    between atoms: C_1  and  C_2
REMARK    2  A    between atoms: C_3  and  C_22
REMARK    3  A    between atoms: C_10  and  C_12
REMARK    4  A    between atoms: C_16  and  N_18
REMARK    5  A    between atoms: C_25  and  O_28
REMARK    6  A    between atoms: O_28  and  C_29
REMARK    7  A    between atoms: C_29  and  C_30
REMARK                            x       y       z     vdW  Elec       q    Type
REMARK                         _______ _______ _______ _____ _____    ______ ____
ROOT
ATOM      1  C   UNL     1      -4.961   1.587  -2.532  0.00  0.00    +0.043 C 
ATOM      2  C   UNL     1      -5.624   1.778  -1.193  0.00  0.00    -0.022 C 
ATOM      3  C   UNL     1      -6.875   2.214  -1.169  0.00  0.00    +0.042 C 
ATOM      4  N   UNL     1      -7.570   2.414   0.031  0.00  0.00    -0.282 N 
ATOM      5  C   UNL     1      -7.000   1.896   1.184  0.00  0.00    +0.240 A 
ATOM      6  N   UNL     1      -7.488   1.730   2.380  0.00  0.00    -0.092 NA
ATOM      7  N   UNL     1      -6.605   1.197   3.153  0.00  0.00    -0.021 NA
ATOM      8  N   UNL     1      -5.504   0.992   2.505  0.00  0.00    -0.042 NA
ATOM      9  N   UNL     1      -5.720   1.441   1.203  0.00  0.00    -0.202 N 
ATOM     10  C   UNL     1      -4.832   1.465   0.048  0.00  0.00    +0.170 C 
ATOM     11  H   UNL     1      -8.413   2.893   0.055  0.00  0.00    +0.155 HD
ENDROOT
BRANCH  10  12
ATOM     12  C   UNL     1      -3.775   2.521   0.248  0.00  0.00    -0.017 A 
ATOM     13  C   UNL     1      -4.143   3.843   0.412  0.00  0.00    +0.007 A 
ATOM     14  C   UNL     1      -3.175   4.812   0.597  0.00  0.00    +0.022 A 
ATOM     15  C   UNL     1      -1.837   4.457   0.621  0.00  0.00    +0.071 A 
ATOM     16  C   UNL     1      -1.470   3.135   0.451  0.00  0.00    +0.145 A 
ATOM     17  C   UNL     1      -2.439   2.167   0.267  0.00  0.00    +0.040 A 
ATOM     18 CL   UNL     1      -0.621   5.673   0.858  0.00  0.00    -0.081 Cl
BRANCH  16  19
ATOM     19  N   UNL     1      -0.039   2.755   0.472  0.00  0.00    +0.058 N 
ATOM     20  O   UNL     1       0.284   1.590   0.327  0.00  0.00    -0.126 OA
ATOM     21  O   UNL     1       0.815   3.609   0.628  0.00  0.00    -0.126 OA
ENDBRANCH  16  19
ENDBRANCH  10  12
BRANCH   3  22
ATOM     22  C   UNL     1      -7.561   2.499  -2.450  0.00  0.00    -0.004 A 
ATOM     23  C   UNL     1      -8.197   3.725  -2.645  0.00  0.00    +0.013 A 
ATOM     24  C   UNL     1      -8.829   3.990  -3.842  0.00  0.00    +0.046 A 
ATOM     25  C   UNL     1      -8.842   3.033  -4.848  0.00  0.00    +0.121 A 
ATOM     26  C   UNL     1      -8.216   1.809  -4.655  0.00  0.00    +0.046 A 
ATOM     27  C   UNL     1      -7.577   1.540  -3.463  0.00  0.00    +0.013 A 
BRANCH  25  28
ATOM     28  O   UNL     1      -9.470   3.294  -6.024  0.00  0.00    -0.481 OA
BRANCH  28  29
ATOM     29  C   UNL     1     -10.095   4.573  -6.155  0.00  0.00    +0.353 C 
BRANCH  29  30
ATOM     30  C   UNL     1     -10.735   4.682  -7.515  0.00  0.00    +0.393 C 
ATOM     31  O   UNL     1     -10.665   3.759  -8.292  0.00  0.00    -0.243 OA
ATOM     32  O   UNL     1     -11.384   5.804  -7.863  0.00  0.00    -0.243 OA
ENDBRANCH  29  30
ENDBRANCH  28  29
ENDBRANCH  25  28
ENDBRANCH   3  22
TORSDOF 6
