REMARK  Name = ZINC51303961
REMARK  7 active torsions:
REMARK  status: ('A' for Active; 'I' for Inactive)
REMARK    1  A    between atoms: C_1  and  N_2
REMARK    2  A    between atoms: C_4  and  C_11
REMARK    3  A    between atoms: N_13  and  N_14
REMARK    4  A    between atoms: N_17  and  C_18
REMARK    5  A    between atoms: C_18  and  C_19
REMARK    6  A    between atoms: C_23  and  O_25
REMARK    7  A    between atoms: O_25  and  C_26
REMARK                            x       y       z     vdW  Elec       q    Type
REMARK                         _______ _______ _______ _____ _____    ______ ____
ROOT
ATOM      1  N   UNL     1       0.043  -4.135  -3.890  0.00  0.00    -0.218 N 
ATOM      2  C   UNL     1       0.035  -3.935  -5.223  0.00  0.00    +0.316 C 
ATOM      3  O   UNL     1       0.045  -4.886  -5.980  0.00  0.00    -0.251 OA
ATOM      4  N   UNL     1       0.016  -2.680  -5.716  0.00  0.00    -0.294 N 
ATOM      5  H   UNL     1       0.057  -5.037  -3.535  0.00  0.00    +0.174 HD
ATOM      6  H   UNL     1       0.008  -1.922  -5.112  0.00  0.00    +0.151 HD
ENDROOT
BRANCH   1   9
ATOM      7  C   UNL     1       0.040  -3.239  -1.684  0.00  0.00    +0.262 C 
ATOM      8  O   UNL     1       0.057  -4.371  -1.239  0.00  0.00    -0.269 OA
ATOM      9  N   UNL     1       0.032  -3.039  -3.017  0.00  0.00    -0.229 N 
ATOM     10  H   UNL     1       0.018  -2.136  -3.372  0.00  0.00    +0.173 HD
BRANCH   7  14
ATOM     11  C   UNL     1      -0.018   1.461   0.010  0.00  0.00    +0.149 C 
ATOM     12  N   UNL     1       0.002  -0.004   0.002  0.00  0.00    -0.349 N 
ATOM     13  C   UNL     1       0.008  -0.771  -1.115  0.00  0.00    +0.099 A 
ATOM     14  C   UNL     1       0.028  -2.090  -0.769  0.00  0.00    +0.063 A 
ATOM     15  C   UNL     1       0.035  -2.135   0.705  0.00  0.00    +0.012 A 
ATOM     16  C   UNL     1       0.024  -0.797   1.131  0.00  0.00    +0.050 A 
ATOM     17  C   UNL     1       0.032  -0.515   2.493  0.00  0.00    +0.026 A 
ATOM     18  C   UNL     1       0.055  -1.545   3.408  0.00  0.00    +0.002 A 
ATOM     19  C   UNL     1       0.070  -2.866   2.986  0.00  0.00    +0.001 A 
ATOM     20  C   UNL     1       0.053  -3.166   1.641  0.00  0.00    +0.011 A 
ENDBRANCH   7  14
ENDBRANCH   1   9
BRANCH   4  21
ATOM     21  C   UNL     1       0.007  -2.463  -7.165  0.00  0.00    +0.141 C 
BRANCH  21  22
ATOM     22  C   UNL     1      -0.015  -0.984  -7.450  0.00  0.00    -0.027 A 
ATOM     23  C   UNL     1      -1.222  -0.321  -7.571  0.00  0.00    +0.005 A 
ATOM     24  C   UNL     1      -1.245   1.037  -7.833  0.00  0.00    +0.004 A 
ATOM     25  C   UNL     1      -0.061   1.734  -7.976  0.00  0.00    +0.046 A 
ATOM     26  C   UNL     1       1.152   1.071  -7.855  0.00  0.00    +0.127 A 
ATOM     27  C   UNL     1       1.172  -0.290  -7.586  0.00  0.00    +0.051 A 
BRANCH  26  28
ATOM     28  O   UNL     1       2.318   1.755  -7.995  0.00  0.00    -0.434 OA
BRANCH  28  29
ATOM     29  C   UNL     1       2.221   3.155  -8.265  0.00  0.00    +0.541 C 
ATOM     30  F   UNL     1       1.524   3.351  -9.463  0.00  0.00    -0.166 F 
ATOM     31  F   UNL     1       1.538   3.786  -7.220  0.00  0.00    -0.166 F 
ENDBRANCH  28  29
ENDBRANCH  26  28
ENDBRANCH  21  22
ENDBRANCH   4  21
TORSDOF 6
