REMARK  Name = ZINC21973666
REMARK  12 active torsions:
REMARK  status: ('A' for Active; 'I' for Inactive)
REMARK    1  A    between atoms: C_1  and  C_2
REMARK    2  A    between atoms: C_2  and  O_3
REMARK    3  A    between atoms: O_3  and  C_4
REMARK    4  A    between atoms: C_9  and  N_10
REMARK    5  A    between atoms: C_11  and  C_13
REMARK    6  A    between atoms: C_13  and  O_14
REMARK    7  A    between atoms: O_14  and  C_15
REMARK    8  A    between atoms: C_15  and  C_17
REMARK    9  A    between atoms: C_17  and  N_18
REMARK   10  A    between atoms: C_23  and  C_30
REMARK   11  A    between atoms: C_26  and  C_28
REMARK   12  A    between atoms: C_26  and  C_29
REMARK                            x       y       z     vdW  Elec       q    Type
REMARK                         _______ _______ _______ _____ _____    ______ ____
ROOT
ATOM      1  C   UNL     1      -0.230   2.775   1.151  0.00  0.00    +0.326 C 
ATOM      2  O   UNL     1      -1.305   3.316   1.042  0.00  0.00    -0.249 OA
ENDROOT
BRANCH   1   3
ATOM      3  O   UNL     1       0.363   2.699   2.353  0.00  0.00    -0.454 OA
BRANCH   3   4
ATOM      4  C   UNL     1      -0.344   3.288   3.476  0.00  0.00    +0.328 C 
BRANCH   4   6
ATOM      5  N   UNL     1       0.006   3.578   5.907  0.00  0.00    -0.280 N 
ATOM      6  C   UNL     1       0.469   3.107   4.732  0.00  0.00    +0.255 C 
ATOM      7  O   UNL     1       1.539   2.539   4.685  0.00  0.00    -0.272 OA
ATOM      8  H   UNL     1      -0.995   4.030   5.963  0.00  0.00    +0.155 HD
BRANCH   5  14
ATOM      9  C   UNL     1       0.621   4.396   8.101  0.00  0.00    +0.142 A 
ATOM     10  C   UNL     1       1.409   4.306   9.237  0.00  0.00    +0.047 A 
ATOM     11  C   UNL     1       2.373   3.320   9.333  0.00  0.00    +0.004 A 
ATOM     12  C   UNL     1       2.553   2.421   8.297  0.00  0.00    +0.002 A 
ATOM     13  C   UNL     1       1.766   2.501   7.164  0.00  0.00    +0.027 A 
ATOM     14  C   UNL     1       0.801   3.491   7.058  0.00  0.00    +0.076 A 
BRANCH   9  15
ATOM     15  O   UNL     1      -0.328   5.366   8.006  0.00  0.00    -0.490 OA
BRANCH  15  17
ATOM     16  C   UNL     1      -1.566   7.273   8.826  0.00  0.00    +0.048 C 
ATOM     17  C   UNL     1      -0.457   6.259   9.114  0.00  0.00    +0.226 C 
ENDBRANCH  15  17
ENDBRANCH   9  15
ENDBRANCH   5  14
ENDBRANCH   4   6
ENDBRANCH   3   4
ENDBRANCH   1   3
BRANCH   1  18
ATOM     18  C   UNL     1       0.445   2.187  -0.061  0.00  0.00    +0.238 C 
BRANCH  18  19
ATOM     19  N   UNL     1      -0.399   2.398  -1.240  0.00  0.00    -0.213 N 
ATOM     20  C   UNL     1      -1.341   1.530  -1.663  0.00  0.00    +0.247 C 
ATOM     21  O   UNL     1      -1.639   0.468  -1.161  0.00  0.00    -0.273 OA
ATOM     22  C   UNL     1      -1.948   2.162  -2.895  0.00  0.00    +0.113 C 
ATOM     23  C   UNL     1      -1.731   1.266  -4.109  0.00  0.00    +0.038 C 
ATOM     24  C   UNL     1      -2.318   1.940  -5.353  0.00  0.00    -0.011 C 
ATOM     25  C   UNL     1      -3.813   2.187  -5.140  0.00  0.00    +0.009 C 
ATOM     26  C   UNL     1      -4.013   3.104  -3.931  0.00  0.00    -0.032 C 
ATOM     27  C   UNL     1      -3.433   2.435  -2.683  0.00  0.00    +0.041 C 
ATOM     28  C   UNL     1      -5.508   3.358  -3.726  0.00  0.00    +0.011 C 
ATOM     29  C   UNL     1      -3.299   4.434  -4.176  0.00  0.00    +0.011 C 
ATOM     30  C   UNL     1      -2.120   1.030  -6.567  0.00  0.00    +0.007 C 
ATOM     31  N   UNL     1      -1.210   3.423  -3.048  0.00  0.00    -0.285 N 
ATOM     32  C   UNL     1      -0.326   3.473  -2.034  0.00  0.00    +0.310 C 
ATOM     33  O   UNL     1       0.451   4.391  -1.859  0.00  0.00    -0.252 OA
ATOM     34  H   UNL     1      -1.446   4.100  -3.883  0.00  0.00    +0.151 HD
ENDBRANCH  18  19
ENDBRANCH   1  18
TORSDOF 8
