REMARK  Name = ZINC00632171
REMARK  3 active torsions:
REMARK  status: ('A' for Active; 'I' for Inactive)
REMARK    1  A    between atoms: C_4  and  C_7
REMARK    2  A    between atoms: N_25  and  C_26
REMARK    3  A    between atoms: C_26  and  C_27
REMARK                            x       y       z     vdW  Elec       q    Type
REMARK                         _______ _______ _______ _____ _____    ______ ____
ROOT
ATOM      1  C   UNL     1       1.433   3.511   0.006  0.00  0.00    +0.004 A 
ATOM      2  C   UNL     1       2.705   3.976  -0.005  0.00  0.00    +0.056 A 
ATOM      3  S   UNL     1       3.690   2.491  -0.022  0.00  0.00    -0.076 S 
ATOM      4  C   UNL     1       2.385   1.288  -0.015  0.00  0.00    +0.116 A 
ATOM      5  C   UNL     1       1.212   2.068   0.002  0.00  0.00    +0.082 A 
ATOM      6  C   UNL     1      -0.016   1.345   0.009  0.00  0.00    +0.284 A 
ATOM      7  O   UNL     1      -1.079   1.944   0.018  0.00  0.00    -0.265 OA
ATOM      8  N   UNL     1       0.002  -0.004   0.002  0.00  0.00    -0.175 N 
ATOM      9  C   UNL     1       1.191  -0.680  -0.013  0.00  0.00    +0.167 A 
ATOM     10  N   UNL     1       2.344  -0.033  -0.022  0.00  0.00    -0.220 NA
ATOM     11  C   UNL     1       1.179  -2.149  -0.021  0.00  0.00    +0.030 A 
ATOM     12  C   UNL     1       2.357  -2.893  -0.037  0.00  0.00    +0.012 A 
ATOM     13  C   UNL     1       2.291  -4.270  -0.045  0.00  0.00    +0.001 A 
ATOM     14  C   UNL     1       1.064  -4.919  -0.036  0.00  0.00    +0.001 A 
ATOM     15  C   UNL     1      -0.113  -4.202  -0.021  0.00  0.00    +0.012 A 
ATOM     16  C   UNL     1      -0.069  -2.809  -0.013  0.00  0.00    +0.027 A 
ATOM     17  C   UNL     1      -1.292  -1.996   0.004  0.00  0.00    +0.148 A 
ATOM     18  N   UNL     1      -1.216  -0.695   0.010  0.00  0.00    -0.146 NA
ATOM     19  N   UNL     1      -2.534  -2.616   0.013  0.00  0.00    -0.325 N 
ATOM     20  H   UNL     1      -2.593  -3.584   0.008  0.00  0.00    +0.148 HD
ENDROOT
BRANCH   1  24
ATOM     21  C   UNL     1      -1.855   6.204   0.054  0.00  0.00    +0.000 A 
ATOM     22  C   UNL     1      -0.825   6.359   0.964  0.00  0.00    +0.001 A 
ATOM     23  C   UNL     1       0.245   5.488   0.953  0.00  0.00    +0.008 A 
ATOM     24  C   UNL     1       0.286   4.450   0.023  0.00  0.00    -0.017 A 
ATOM     25  C   UNL     1      -0.753   4.302  -0.895  0.00  0.00    +0.008 A 
ATOM     26  C   UNL     1      -1.821   5.175  -0.871  0.00  0.00    +0.001 A 
ENDBRANCH   1  24
BRANCH  19  27
ATOM     27  C   UNL     1      -3.756  -1.808   0.030  0.00  0.00    +0.134 C 
BRANCH  27  28
ATOM     28  C   UNL     1      -4.977  -2.729   0.037  0.00  0.00    +0.135 C 
ATOM     29  C   UNL     1      -6.268  -1.889   0.054  0.00  0.00    +0.035 C 
ATOM     30  C   UNL     1      -7.026  -2.331  -1.221  0.00  0.00    +0.031 C 
ATOM     31  C   UNL     1      -6.385  -3.711  -1.518  0.00  0.00    +0.160 C 
ATOM     32  O   UNL     1      -4.998  -3.521  -1.163  0.00  0.00    -0.375 OA
ENDBRANCH  27  28
ENDBRANCH  19  27
TORSDOF 3
