REMARK  Name = ZINC53526039
REMARK  6 active torsions:
REMARK  status: ('A' for Active; 'I' for Inactive)
REMARK    1  A    between atoms: C_1  and  C_2
REMARK    2  A    between atoms: C_2  and  O_3
REMARK    3  A    between atoms: O_3  and  C_4
REMARK    4  A    between atoms: N_14  and  C_15
REMARK    5  A    between atoms: C_15  and  C_16
REMARK    6  A    between atoms: C_16  and  N_22
REMARK                            x       y       z     vdW  Elec       q    Type
REMARK                         _______ _______ _______ _____ _____    ______ ____
ROOT
ATOM      1  C   UNL     1      -1.456  -1.861  -0.057  0.00  0.00    +0.403 C 
ATOM      2  O   UNL     1      -0.486  -2.594  -0.075  0.00  0.00    -0.226 OA
ATOM      3  N   UNL     1      -2.697  -2.387  -0.034  0.00  0.00    -0.264 N 
ATOM      4  C   UNL     1      -3.879  -1.514  -0.019  0.00  0.00    +0.130 C 
ATOM      5  C   UNL     1      -4.785  -1.895  -1.196  0.00  0.00    +0.128 C 
ATOM      6  N   UNL     1      -4.980  -3.352  -1.186  0.00  0.00    -0.283 N 
ATOM      7  C   UNL     1      -3.798  -4.225  -1.201  0.00  0.00    +0.128 C 
ATOM      8  C   UNL     1      -2.892  -3.844  -0.029  0.00  0.00    +0.130 C 
ATOM      9  C   UNL     1      -6.221  -3.877  -1.162  0.00  0.00    +0.302 C 
ATOM     10  O   UNL     1      -7.188  -3.149  -1.047  0.00  0.00    -0.253 OA
ATOM     11  N   UNL     1      -6.390  -5.210  -1.267  0.00  0.00    -0.297 N 
ATOM     12  H   UNL     1      -5.618  -5.797  -1.286  0.00  0.00    +0.150 HD
ENDROOT
BRANCH   1  13
ATOM     13  O   UNL     1      -1.291  -0.525  -0.061  0.00  0.00    -0.451 OA
BRANCH  13  15
ATOM     14  C   UNL     1       0.040   1.492  -0.087  0.00  0.00    +0.048 C 
ATOM     15  C   UNL     1       0.052  -0.038  -0.086  0.00  0.00    +0.230 C 
ENDBRANCH  13  15
ENDBRANCH   1  13
BRANCH  11  16
ATOM     16  C   UNL     1      -7.740  -5.773  -1.351  0.00  0.00    +0.128 C 
BRANCH  16  17
ATOM     17  C   UNL     1      -7.658  -7.300  -1.335  0.00  0.00    +0.038 C 
ATOM     18  C   UNL     1      -7.014  -7.763  -0.027  0.00  0.00    +0.024 C 
ATOM     19  C   UNL     1      -7.859  -7.285   1.155  0.00  0.00    +0.002 C 
ATOM     20  C   UNL     1      -9.268  -7.872   1.045  0.00  0.00    +0.000 C 
ATOM     21  C   UNL     1      -9.912  -7.410  -0.263  0.00  0.00    +0.002 C 
ATOM     22  C   UNL     1      -9.067  -7.888  -1.445  0.00  0.00    +0.024 C 
BRANCH  17  23
ATOM     23  N   UNL     1      -6.846  -7.759  -2.470  0.00  0.00    -0.291 NA
ATOM     24  C   UNL     1      -6.764  -9.226  -2.500  0.00  0.00    +0.113 C 
ATOM     25  C   UNL     1      -5.863  -9.658  -3.660  0.00  0.00    +0.175 C 
ATOM     26  O   UNL     1      -6.375  -9.119  -4.882  0.00  0.00    -0.377 OA
ATOM     27  C   UNL     1      -6.467  -7.692  -4.887  0.00  0.00    +0.175 C 
ATOM     28  C   UNL     1      -7.375  -7.240  -3.740  0.00  0.00    +0.113 C 
ENDBRANCH  17  23
ENDBRANCH  16  17
ENDBRANCH  11  16
TORSDOF 5
