REMARK  Name = ZINC09510169
REMARK  9 active torsions:
REMARK  status: ('A' for Active; 'I' for Inactive)
REMARK    1  A    between atoms: C_1  and  C_2
REMARK    2  A    between atoms: C_2  and  C_4
REMARK    3  A    between atoms: C_2  and  O_16
REMARK    4  A    between atoms: N_9  and  C_10
REMARK    5  A    between atoms: O_16  and  C_17
REMARK    6  A    between atoms: C_17  and  C_19
REMARK    7  A    between atoms: C_19  and  S_20
REMARK    8  A    between atoms: S_20  and  C_21
REMARK    9  A    between atoms: C_24  and  C_26
REMARK                            x       y       z     vdW  Elec       q    Type
REMARK                         _______ _______ _______ _____ _____    ______ ____
ROOT
ATOM      1  O   UNL     1       6.829   0.358   2.063  0.00  0.00    -0.452 OA
ENDROOT
BRANCH   1   3
ATOM      2  C   UNL     1       6.487   1.313  -0.151  0.00  0.00    +0.062 C 
ATOM      3  C   UNL     1       5.979   1.246   1.291  0.00  0.00    +0.259 C 
BRANCH   3   4
ATOM      4  C   UNL     1       4.565   0.725   1.301  0.00  0.00    +0.261 C 
ATOM      5  O   UNL     1       4.300  -0.295   1.901  0.00  0.00    -0.271 OA
ATOM      6  N   UNL     1       3.596   1.392   0.645  0.00  0.00    -0.237 N 
ATOM      7  C   UNL     1       2.331   0.926   0.654  0.00  0.00    +0.306 C 
ATOM      8  O   UNL     1       2.065  -0.097   1.255  0.00  0.00    -0.252 OA
ATOM      9  N   UNL     1       1.362   1.593  -0.002  0.00  0.00    -0.296 N 
ATOM     10  H   UNL     1       3.808   2.208   0.165  0.00  0.00    +0.159 HD
ATOM     11  H   UNL     1       1.574   2.409  -0.482  0.00  0.00    +0.151 HD
BRANCH   9  12
ATOM     12  C   UNL     1      -0.013   1.086   0.008  0.00  0.00    +0.074 C 
ATOM     13  C   UNL     1      -0.729   1.579   1.267  0.00  0.00    +0.022 C 
ATOM     14  C   UNL     1      -2.164   1.050   1.278  0.00  0.00    +0.002 C 
ATOM     15  C   UNL     1      -2.904   1.556   0.038  0.00  0.00    +0.000 C 
ATOM     16  C   UNL     1      -2.188   1.063  -1.221  0.00  0.00    +0.002 C 
ATOM     17  C   UNL     1      -0.753   1.593  -1.232  0.00  0.00    +0.022 C 
ENDBRANCH   9  12
ENDBRANCH   3   4
ENDBRANCH   1   3
BRANCH   1  18
ATOM     18  C   UNL     1       7.888   0.908   2.677  0.00  0.00    +0.318 C 
ATOM     19  O   UNL     1       8.098   2.094   2.573  0.00  0.00    -0.250 OA
BRANCH  18  20
ATOM     20  C   UNL     1       8.814   0.048   3.497  0.00  0.00    +0.199 C 
BRANCH  20  21
ATOM     21  S   UNL     1      10.134   1.074   4.191  0.00  0.00    -0.054 S 
BRANCH  21  22
ATOM     22  C   UNL     1      11.042  -0.151   5.074  0.00  0.00    +0.278 A 
ATOM     23  N   UNL     1      10.755  -1.430   5.145  0.00  0.00    -0.101 NA
ATOM     24  N   UNL     1      11.632  -2.026   5.874  0.00  0.00    -0.106 NA
ATOM     25  C   UNL     1      12.512  -1.152   6.298  0.00  0.00    +0.249 A 
ATOM     26  O   UNL     1      12.161   0.052   5.796  0.00  0.00    -0.411 OA
BRANCH  25  27
ATOM     27  C   UNL     1      13.679  -1.434   7.160  0.00  0.00    +0.039 A 
ATOM     28  C   UNL     1      14.542  -0.401   7.530  0.00  0.00    +0.016 A 
ATOM     29  C   UNL     1      15.626  -0.669   8.339  0.00  0.00    +0.039 A 
ATOM     30  C   UNL     1      15.866  -1.962   8.775  0.00  0.00    +0.123 A 
ATOM     31  C   UNL     1      15.016  -2.993   8.406  0.00  0.00    +0.039 A 
ATOM     32  C   UNL     1      13.925  -2.735   7.602  0.00  0.00    +0.016 A 
ATOM     33  F   UNL     1      16.933  -2.220   9.563  0.00  0.00    -0.205 F 
ENDBRANCH  25  27
ENDBRANCH  21  22
ENDBRANCH  20  21
ENDBRANCH  18  20
ENDBRANCH   1  18
TORSDOF 8
