REMARK  Name = ZINC31119981
REMARK  6 active torsions:
REMARK  status: ('A' for Active; 'I' for Inactive)
REMARK    1  A    between atoms: C_1  and  C_2
REMARK    2  A    between atoms: C_3  and  S_29
REMARK    3  A    between atoms: C_8  and  C_10
REMARK    4  A    between atoms: C_17  and  C_19
REMARK    5  A    between atoms: S_29  and  C_30
REMARK    6  A    between atoms: C_30  and  C_31
REMARK                            x       y       z     vdW  Elec       q    Type
REMARK                         _______ _______ _______ _____ _____    ______ ____
ROOT
ATOM      1  C   UNL     1      -0.549   2.947   7.221  0.00  0.00    +0.093 C 
ATOM      2  C   UNL     1      -1.663   3.192   8.241  0.00  0.00    +0.016 C 
ATOM      3  C   UNL     1      -1.047   3.577   9.588  0.00  0.00    +0.020 C 
ATOM      4  C   UNL     1      -0.173   2.425  10.094  0.00  0.00    +0.108 C 
ATOM      5  N   UNL     1       0.810   2.086   9.056  0.00  0.00    -0.297 N 
ATOM      6  C   UNL     1       0.330   1.787   7.699  0.00  0.00    +0.120 C 
ATOM      7  C   UNL     1       2.127   2.050   9.342  0.00  0.00    +0.247 C 
ATOM      8  O   UNL     1       2.923   1.694   8.495  0.00  0.00    -0.270 OA
ENDROOT
BRANCH   1  16
ATOM      9  C   UNL     1      -0.315   1.131   0.078  0.00  0.00    +0.067 C 
ATOM     10  C   UNL     1      -1.022   1.451   1.369  0.00  0.00    +0.061 A 
ATOM     11  C   UNL     1      -2.383   1.453   1.423  0.00  0.00    +0.070 A 
ATOM     12  S   UNL     1      -2.646   1.880   3.139  0.00  0.00    -0.045 S 
ATOM     13  C   UNL     1      -0.923   2.020   3.597  0.00  0.00    +0.166 A 
ATOM     14  N   UNL     1      -0.327   1.737   2.454  0.00  0.00    -0.229 NA
ATOM     15  N   UNL     1      -0.361   2.341   4.830  0.00  0.00    -0.264 N 
ATOM     16  C   UNL     1      -1.157   2.599   5.886  0.00  0.00    +0.223 C 
ATOM     17  O   UNL     1      -2.363   2.553   5.763  0.00  0.00    -0.275 OA
ATOM     18  H   UNL     1       0.732   2.383   4.941  0.00  0.00    +0.157 HD
BRANCH  11  19
ATOM     19  S   UNL     1      -3.560   1.122   0.153  0.00  0.00    -0.107 S 
BRANCH  19  20
ATOM     20  C   UNL     1      -5.163   1.316   0.979  0.00  0.00    +0.170 C 
BRANCH  20  21
ATOM     21  C   UNL     1      -6.271   1.057  -0.008  0.00  0.00    +0.221 C 
ATOM     22  O   UNL     1      -6.006   0.770  -1.156  0.00  0.00    -0.275 OA
ATOM     23  N   UNL     1      -7.558   1.145   0.384  0.00  0.00    -0.329 N 
ATOM     24  H   UNL     1      -8.367   0.956  -0.337  0.00  0.00    +0.145 HD
ATOM     25  H   UNL     1      -7.799   1.406   1.425  0.00  0.00    +0.145 HD
ENDBRANCH  20  21
ENDBRANCH  19  20
ENDBRANCH  11  19
ENDBRANCH   1  16
BRANCH   7  26
ATOM     26  C   UNL     1       2.601   2.443  10.682  0.00  0.00    +0.045 A 
ATOM     27  C   UNL     1       2.087   1.830  11.815  0.00  0.00    +0.014 A 
ATOM     28  C   UNL     1       2.533   2.192  13.080  0.00  0.00    +0.001 A 
ATOM     29  C   UNL     1       3.476   3.162  13.244  0.00  0.00    +0.008 A 
ATOM     30  C   UNL     1       4.021   3.814  12.124  0.00  0.00    -0.017 A 
ATOM     31  C   UNL     1       3.583   3.455  10.826  0.00  0.00    -0.006 A 
ATOM     32  C   UNL     1       4.126   4.106   9.710  0.00  0.00    +0.009 A 
ATOM     33  C   UNL     1       5.069   5.074   9.886  0.00  0.00    +0.001 A 
ATOM     34  C   UNL     1       5.501   5.428  11.162  0.00  0.00    +0.001 A 
ATOM     35  C   UNL     1       4.995   4.817  12.268  0.00  0.00    +0.008 A 
ENDBRANCH   7  26
TORSDOF 5
