REMARK  Name = ZINC24767193
REMARK  9 active torsions:
REMARK  status: ('A' for Active; 'I' for Inactive)
REMARK    1  A    between atoms: C_1  and  C_2
REMARK    2  A    between atoms: C_2  and  N_3
REMARK    3  A    between atoms: N_3  and  C_4
REMARK    4  A    between atoms: N_3  and  C_14
REMARK    5  A    between atoms: C_4  and  C_5
REMARK    6  A    between atoms: N_7  and  C_8
REMARK    7  A    between atoms: C_8  and  C_9
REMARK    8  A    between atoms: C_14  and  C_15
REMARK    9  A    between atoms: N_17  and  C_18
REMARK                            x       y       z     vdW  Elec       q    Type
REMARK                         _______ _______ _______ _____ _____    ______ ____
ROOT
ATOM      1  C   UNL     1       0.093   1.526  -0.232  0.00  0.00    +0.020 C 
ENDROOT
BRANCH   1   2
ATOM      2  C   UNL     1       0.076   0.031  -0.047  0.00  0.00    +0.201 C 
ATOM      3  O   UNL     1      -0.454  -0.453   0.931  0.00  0.00    -0.278 OA
ATOM      4  N   UNL     1       0.649  -0.769  -0.968  0.00  0.00    -0.286 N 
ATOM      5  H   UNL     1       1.068  -0.336  -1.888  0.00  0.00    +0.155 HD
BRANCH   4   6
ATOM      6  C   UNL     1       0.711  -2.152  -0.753  0.00  0.00    +0.051 A 
ATOM      7  C   UNL     1      -0.321  -2.799  -0.088  0.00  0.00    +0.073 A 
ATOM      8  C   UNL     1      -0.260  -4.168   0.124  0.00  0.00    +0.164 A 
ATOM      9  C   UNL     1       0.836  -4.891  -0.332  0.00  0.00    +0.163 A 
ATOM     10  C   UNL     1       1.867  -4.242  -0.995  0.00  0.00    +0.066 A 
ATOM     11  C   UNL     1       1.803  -2.878  -1.210  0.00  0.00    +0.043 A 
ATOM     12 BR   UNL     1       3.208  -1.999  -2.122  0.00  0.00    -0.048 Br
ATOM     13  O   UNL     1       0.912  -6.237  -0.136  0.00  0.00    -0.485 OA
ATOM     14  C   UNL     1       0.045  -6.793   0.858  0.00  0.00    +0.270 C 
ATOM     15  C   UNL     1      -1.360  -6.210   0.650  0.00  0.00    +0.270 C 
ATOM     16  O   UNL     1      -1.278  -4.786   0.782  0.00  0.00    -0.485 OA
ENDBRANCH   4   6
ENDBRANCH   1   2
BRANCH   1  17
ATOM     17  N   UNL     1      -0.591   2.168   0.899  0.00  0.00    +0.391 N 
ATOM     18  H   UNL     1      -1.577   1.694   1.010  0.00  0.00    -0.080 HD
BRANCH  17  20
ATOM     19  C   UNL     1       1.505   2.673   2.061  0.00  0.00    -0.017 C 
ATOM     20  C   UNL     1       0.152   1.962   2.149  0.00  0.00    -0.081 C 
ENDBRANCH  17  20
BRANCH  17  21
ATOM     21  C   UNL     1      -0.804   3.598   0.642  0.00  0.00    +0.019 C 
BRANCH  21  22
ATOM     22  C   UNL     1      -1.830   4.135   1.607  0.00  0.00    +0.197 C 
ATOM     23  O   UNL     1      -2.273   3.419   2.480  0.00  0.00    -0.278 OA
ATOM     24  N   UNL     1      -2.255   5.409   1.500  0.00  0.00    -0.312 N 
ATOM     25  H   UNL     1      -1.853   6.058   0.708  0.00  0.00    +0.149 HD
BRANCH  24  26
ATOM     26  C   UNL     1      -3.252   5.930   2.438  0.00  0.00    +0.146 C 
BRANCH  26  27
ATOM     27  C   UNL     1      -3.553   7.369   2.104  0.00  0.00    +0.007 A 
ATOM     28  C   UNL     1      -4.490   7.872   1.264  0.00  0.00    +0.013 A 
ATOM     29  C   UNL     1      -4.589   9.242   1.113  0.00  0.00    +0.008 A 
ATOM     30  C   UNL     1      -3.739  10.042   1.802  0.00  0.00    +0.045 A 
ATOM     31  S   UNL     1      -2.762   8.851   2.705  0.00  0.00    -0.100 S 
ENDBRANCH  26  27
ENDBRANCH  24  26
ENDBRANCH  21  22
ENDBRANCH  17  21
ENDBRANCH   1  17
TORSDOF 8
