REMARK  Name = ZINC13051111
REMARK  10 active torsions:
REMARK  status: ('A' for Active; 'I' for Inactive)
REMARK    1  A    between atoms: C_1  and  C_2
REMARK    2  A    between atoms: C_2  and  C_3
REMARK    3  A    between atoms: C_10  and  C_12
REMARK    4  A    between atoms: C_12  and  S_13
REMARK    5  A    between atoms: S_13  and  C_14
REMARK    6  A    between atoms: C_18  and  C_30
REMARK    7  A    between atoms: N_24  and  C_25
REMARK    8  A    between atoms: C_25  and  C_26
REMARK    9  A    between atoms: C_26  and  C_28
REMARK   10  A    between atoms: C_26  and  O_29
REMARK                            x       y       z     vdW  Elec       q    Type
REMARK                         _______ _______ _______ _____ _____    ______ ____
ROOT
ATOM      1  C   UNL     1      -0.022   1.628   1.221  0.00  0.00    +0.173 A 
ATOM      2  N   UNL     1      -1.136   2.280   0.995  0.00  0.00    -0.223 NA
ATOM      3  C   UNL     1      -1.208   3.626   1.125  0.00  0.00    +0.080 A 
ATOM      4  C   UNL     1      -2.399   4.319   0.888  0.00  0.00    +0.043 A 
ATOM      5  C   UNL     1      -2.423   5.701   1.029  0.00  0.00    +0.065 A 
ATOM      6  C   UNL     1      -1.268   6.398   1.405  0.00  0.00    +0.016 A 
ATOM      7  C   UNL     1      -0.099   5.731   1.639  0.00  0.00    +0.016 A 
ATOM      8  C   UNL     1      -0.051   4.344   1.503  0.00  0.00    +0.065 A 
ATOM      9  C   UNL     1       1.187   3.587   1.745  0.00  0.00    +0.262 A 
ATOM     10  O   UNL     1       2.216   4.148   2.074  0.00  0.00    -0.267 OA
ATOM     11  N   UNL     1       1.140   2.244   1.590  0.00  0.00    -0.285 N 
ENDROOT
BRANCH   5  12
ATOM     12  C   UNL     1      -3.680   6.442   0.781  0.00  0.00    +0.387 C 
ATOM     13  O   UNL     1      -4.684   5.842   0.455  0.00  0.00    -0.241 OA
ATOM     14  O   UNL     1      -3.709   7.782   0.916  0.00  0.00    -0.241 OA
ENDBRANCH   5  12
BRANCH   1  15
ATOM     15  S   UNL     1      -0.022  -0.124   1.034  0.00  0.00    -0.078 S 
BRANCH  15  16
ATOM     16  C   UNL     1      -1.748  -0.389   0.556  0.00  0.00    +0.173 C 
BRANCH  16  23
ATOM     17  C   UNL     1      -3.432  -3.712  -0.356  0.00  0.00    +0.076 C 
ATOM     18  C   UNL     1      -4.592  -4.238   0.496  0.00  0.00    +0.022 C 
ATOM     19  C   UNL     1      -5.817  -3.345   0.288  0.00  0.00    +0.003 C 
ATOM     20  C   UNL     1      -5.494  -1.919   0.741  0.00  0.00    +0.019 C 
ATOM     21  C   UNL     1      -4.345  -1.368  -0.102  0.00  0.00    +0.108 C 
ATOM     22  N   UNL     1      -3.209  -2.297  -0.029  0.00  0.00    -0.298 N 
ATOM     23  C   UNL     1      -1.988  -1.860   0.336  0.00  0.00    +0.226 C 
ATOM     24  O   UNL     1      -1.081  -2.652   0.488  0.00  0.00    -0.275 OA
BRANCH  17  26
ATOM     25  C   UNL     1      -2.391  -5.982  -0.417  0.00  0.00    +0.006 C 
ATOM     26  C   UNL     1      -2.166  -4.514  -0.049  0.00  0.00    +0.019 C 
ENDBRANCH  17  26
ENDBRANCH  16  23
ENDBRANCH  15  16
ENDBRANCH   1  15
BRANCH  11  27
ATOM     27  C   UNL     1       2.345   1.443   1.819  0.00  0.00    +0.158 C 
BRANCH  27  28
ATOM     28  C   UNL     1       3.127   1.312   0.510  0.00  0.00    +0.131 C 
ATOM     29  C   UNL     1       4.317   0.374   0.719  0.00  0.00    +0.039 C 
BRANCH  28  30
ATOM     30  O   UNL     1       3.599   2.599   0.106  0.00  0.00    -0.390 OA
ATOM     31  H   UNL     1       4.186   3.022   0.748  0.00  0.00    +0.210 HD
ENDBRANCH  28  30
ENDBRANCH  27  28
ENDBRANCH  11  27
TORSDOF 8
