REMARK  Name = ZINC13177078
REMARK  9 active torsions:
REMARK  status: ('A' for Active; 'I' for Inactive)
REMARK    1  A    between atoms: C_1  and  C_2
REMARK    2  A    between atoms: C_2  and  C_4
REMARK    3  A    between atoms: C_2  and  S_15
REMARK    4  A    between atoms: N_6  and  C_7
REMARK    5  A    between atoms: C_7  and  C_13
REMARK    6  A    between atoms: S_15  and  C_16
REMARK    7  A    between atoms: N_26  and  C_27
REMARK    8  A    between atoms: C_27  and  C_28
REMARK    9  A    between atoms: C_28  and  C_29
REMARK                            x       y       z     vdW  Elec       q    Type
REMARK                         _______ _______ _______ _____ _____    ______ ____
ROOT
ATOM      1  C   UNL     1      -2.667  -3.024   0.748  0.00  0.00    +0.173 A 
ATOM      2  N   UNL     1      -3.625  -2.247   0.307  0.00  0.00    -0.223 NA
ATOM      3  C   UNL     1      -4.916  -2.652   0.296  0.00  0.00    +0.080 A 
ATOM      4  C   UNL     1      -5.939  -1.827  -0.177  0.00  0.00    +0.048 A 
ATOM      5  C   UNL     1      -7.240  -2.281  -0.164  0.00  0.00    +0.043 A 
ATOM      6  C   UNL     1      -7.546  -3.550   0.315  0.00  0.00    +0.021 A 
ATOM      7  C   UNL     1      -6.563  -4.375   0.784  0.00  0.00    +0.017 A 
ATOM      8  C   UNL     1      -5.238  -3.941   0.781  0.00  0.00    +0.065 A 
ATOM      9  C   UNL     1      -4.144  -4.789   1.274  0.00  0.00    +0.262 A 
ATOM     10  O   UNL     1      -4.357  -5.907   1.704  0.00  0.00    -0.267 OA
ATOM     11  N   UNL     1      -2.890  -4.281   1.233  0.00  0.00    -0.287 N 
ATOM     12 CL   UNL     1      -8.512  -1.256  -0.753  0.00  0.00    -0.083 Cl
ENDROOT
BRANCH   1  13
ATOM     13  S   UNL     1      -1.013  -2.417   0.720  0.00  0.00    -0.075 S 
BRANCH  13  15
ATOM     14  C   UNL     1      -1.809  -0.920  -1.423  0.00  0.00    +0.029 C 
ATOM     15  C   UNL     1      -1.293  -0.775   0.010  0.00  0.00    +0.137 C 
BRANCH  15  16
ATOM     16  C   UNL     1       0.002  -0.004   0.002  0.00  0.00    +0.227 C 
ATOM     17  O   UNL     1       1.060  -0.596  -0.011  0.00  0.00    -0.275 OA
ATOM     18  N   UNL     1      -0.016   1.344   0.009  0.00  0.00    -0.296 N 
ATOM     19  H   UNL     1      -0.863   1.817   0.016  0.00  0.00    +0.150 HD
BRANCH  18  20
ATOM     20  C   UNL     1       1.242   2.093   0.001  0.00  0.00    +0.121 C 
ATOM     21  C   UNL     1       2.062   1.728   1.241  0.00  0.00    +0.041 C 
ATOM     22  C   UNL     1       3.376   2.511   1.233  0.00  0.00    +0.003 C 
ATOM     23  C   UNL     1       3.076   4.011   1.244  0.00  0.00    +0.000 C 
ATOM     24  C   UNL     1       2.257   4.377   0.004  0.00  0.00    +0.003 C 
ATOM     25  C   UNL     1       0.943   3.594   0.012  0.00  0.00    +0.041 C 
BRANCH  20  26
ATOM     26  C   UNL     1       2.007   1.755  -1.210  0.00  0.00    +0.088 C 
ATOM     27  N   UNL     1       2.598   1.493  -2.144  0.00  0.00    -0.194 NA
ENDBRANCH  20  26
ENDBRANCH  18  20
ENDBRANCH  15  16
ENDBRANCH  13  15
ENDBRANCH   1  13
BRANCH  11  28
ATOM     28  C   UNL     1      -1.764  -5.085   1.713  0.00  0.00    +0.138 C 
BRANCH  28  29
ATOM     29  C   UNL     1      -1.549  -4.823   3.205  0.00  0.00    +0.147 C 
BRANCH  29  30
ATOM     30  C   UNL     1      -0.391  -5.651   3.699  0.00  0.00    +0.358 C 
ATOM     31  O   UNL     1       0.202  -6.376   2.936  0.00  0.00    -0.246 OA
ATOM     32  O   UNL     1      -0.017  -5.582   4.986  0.00  0.00    -0.246 OA
ENDBRANCH  29  30
ENDBRANCH  28  29
ENDBRANCH  11  28
TORSDOF 8
