REMARK  Name = ZINC58146850
REMARK  6 active torsions:
REMARK  status: ('A' for Active; 'I' for Inactive)
REMARK    1  A    between atoms: N_9  and  S_10
REMARK    2  A    between atoms: S_10  and  C_13
REMARK    3  A    between atoms: C_13  and  C_14
REMARK    4  A    between atoms: C_14  and  N_15
REMARK    5  A    between atoms: N_18  and  C_19
REMARK    6  A    between atoms: C_22  and  N_26
REMARK                            x       y       z     vdW  Elec       q    Type
REMARK                         _______ _______ _______ _____ _____    ______ ____
ROOT
ATOM      1  N   UNL     1       7.381   0.318   3.221  0.00  0.00    -0.298 N 
ATOM      2  C   UNL     1       8.633   0.683   3.562  0.00  0.00    +0.304 C 
ATOM      3  O   UNL     1       9.450   0.934   2.697  0.00  0.00    -0.253 OA
ATOM      4  N   UNL     1       8.979   0.771   4.861  0.00  0.00    -0.268 N 
ATOM      5  H   UNL     1       6.730   0.119   3.911  0.00  0.00    +0.150 HD
ATOM      6  H   UNL     1       8.311   0.636   5.551  0.00  0.00    +0.156 HD
ENDROOT
BRANCH   4   7
ATOM      7  C   UNL     1      10.303   1.059   5.215  0.00  0.00    +0.053 A 
ATOM      8  C   UNL     1      11.064   1.913   4.428  0.00  0.00    +0.027 A 
ATOM      9  C   UNL     1      12.369   2.195   4.780  0.00  0.00    +0.034 A 
ATOM     10  C   UNL     1      12.919   1.628   5.915  0.00  0.00    +0.128 A 
ATOM     11  C   UNL     1      12.165   0.776   6.701  0.00  0.00    +0.054 A 
ATOM     12  C   UNL     1      10.856   0.495   6.358  0.00  0.00    +0.064 A 
ATOM     13 CL   UNL     1       9.907  -0.568   7.350  0.00  0.00    -0.082 Cl
BRANCH  10  14
ATOM     14  N   UNL     1      14.319   1.932   6.288  0.00  0.00    +0.056 N 
ATOM     15  O   UNL     1      14.980   2.676   5.601  0.00  0.00    -0.126 OA
ATOM     16  O   UNL     1      14.802   1.437   7.280  0.00  0.00    -0.126 OA
ENDBRANCH  10  14
ENDBRANCH   4   7
BRANCH   1  17
ATOM     17  C   UNL     1       7.005   0.223   1.808  0.00  0.00    +0.130 C 
BRANCH  17  18
ATOM     18  C   UNL     1       5.541  -0.208   1.698  0.00  0.00    +0.207 C 
BRANCH  18  19
ATOM     19  S   UNL     1       5.075  -0.326  -0.051  0.00  0.00    +0.047 S 
ATOM     20  O   UNL     1       5.766  -1.403  -0.669  0.00  0.00    -0.155 OA
ATOM     21  O   UNL     1       5.068   0.965  -0.644  0.00  0.00    -0.155 OA
BRANCH  19  30
ATOM     22  C   UNL     1      -0.014   1.458   0.016  0.00  0.00    +0.000 A 
ATOM     23  C   UNL     1       1.181   2.153   0.010  0.00  0.00    +0.002 A 
ATOM     24  C   UNL     1       2.380   1.473  -0.008  0.00  0.00    +0.025 A 
ATOM     25  C   UNL     1       2.397   0.076  -0.020  0.00  0.00    +0.054 A 
ATOM     26  C   UNL     1       1.193  -0.611  -0.013  0.00  0.00    -0.023 A 
ATOM     27  C   UNL     1      -0.006   0.075   0.004  0.00  0.00    +0.005 A 
ATOM     28  C   UNL     1       1.487  -2.095  -0.028  0.00  0.00    +0.058 C 
ATOM     29  C   UNL     1       3.022  -2.184  -0.044  0.00  0.00    +0.136 C 
ATOM     30  N   UNL     1       3.487  -0.795  -0.038  0.00  0.00    -0.207 N 
ENDBRANCH  19  30
ENDBRANCH  18  19
ENDBRANCH  17  18
ENDBRANCH   1  17
TORSDOF 6
