REMARK  Name = ZINC12401063
REMARK  9 active torsions:
REMARK  status: ('A' for Active; 'I' for Inactive)
REMARK    1  A    between atoms: C_1  and  C_2
REMARK    2  A    between atoms: C_2  and  C_3
REMARK    3  A    between atoms: C_2  and  C_4
REMARK    4  A    between atoms: C_2  and  C_5
REMARK    5  A    between atoms: C_8  and  C_11
REMARK    6  A    between atoms: N_13  and  C_14
REMARK    7  A    between atoms: C_14  and  C_34
REMARK    8  A    between atoms: N_22  and  C_27
REMARK    9  A    between atoms: C_27  and  C_28
REMARK                            x       y       z     vdW  Elec       q    Type
REMARK                         _______ _______ _______ _____ _____    ______ ____
ROOT
ATOM      1  C   UNL     1      -3.407   0.260  -3.211  0.00  0.00    +0.240 C 
ATOM      2  C   UNL     1      -2.323   1.270  -2.920  0.00  0.00    +0.096 A 
ATOM      3  C   UNL     1      -1.964   2.487  -3.512  0.00  0.00    +0.262 A 
ATOM      4  O   UNL     1      -2.587   2.915  -4.469  0.00  0.00    -0.267 OA
ATOM      5  N   UNL     1      -0.920   3.183  -3.013  0.00  0.00    -0.275 N 
ATOM      6  H   UNL     1      -0.655   4.053  -3.429  0.00  0.00    +0.173 HD
ATOM      7  C   UNL     1      -0.235   2.707  -1.957  0.00  0.00    +0.331 A 
ATOM      8  O   UNL     1       0.702   3.346  -1.519  0.00  0.00    -0.246 OA
ATOM      9  N   UNL     1      -0.566   1.541  -1.375  0.00  0.00    -0.277 N 
ATOM     10  C   UNL     1      -1.621   0.793  -1.853  0.00  0.00    +0.121 A 
ATOM     11  N   UNL     1      -2.136  -0.405  -1.422  0.00  0.00    -0.269 N 
ATOM     12  C   UNL     1      -3.188  -0.808  -2.158  0.00  0.00    +0.256 C 
ATOM     13  O   UNL     1      -3.833  -1.824  -2.008  0.00  0.00    -0.272 OA
ATOM     14  H   UNL     1      -1.779  -0.907  -0.673  0.00  0.00    +0.156 HD
ENDROOT
BRANCH   1  17
ATOM     15  C   UNL     1      -5.088   1.438  -1.899  0.00  0.00    +0.245 C 
ATOM     16  O   UNL     1      -4.280   1.527  -0.995  0.00  0.00    -0.270 OA
ATOM     17  N   UNL     1      -4.732   0.867  -3.067  0.00  0.00    -0.287 N 
ATOM     18  H   UNL     1      -5.353   0.860  -3.812  0.00  0.00    +0.151 HD
BRANCH  15  22
ATOM     19  C   UNL     1      -9.033   2.923  -1.376  0.00  0.00    -0.042 A 
ATOM     20  C   UNL     1      -8.116   3.026  -0.345  0.00  0.00    +0.005 A 
ATOM     21  C   UNL     1      -6.833   2.545  -0.508  0.00  0.00    +0.013 A 
ATOM     22  C   UNL     1      -6.461   1.954  -1.717  0.00  0.00    +0.037 A 
ATOM     23  C   UNL     1      -7.389   1.858  -2.755  0.00  0.00    +0.013 A 
ATOM     24  C   UNL     1      -8.671   2.338  -2.576  0.00  0.00    +0.005 A 
BRANCH  19  26
ATOM     25  C   UNL     1     -10.377   4.949  -0.891  0.00  0.00    +0.015 C 
ATOM     26  C   UNL     1     -10.432   3.450  -1.190  0.00  0.00    -0.013 C 
ATOM     27  C   UNL     1     -11.240   3.214  -2.469  0.00  0.00    +0.015 C 
ATOM     28  C   UNL     1     -11.101   2.721  -0.023  0.00  0.00    +0.015 C 
ENDBRANCH  19  26
ENDBRANCH  15  22
ENDBRANCH   1  17
BRANCH   1  29
ATOM     29  C   UNL     1      -3.234  -0.326  -4.614  0.00  0.00    +0.424 C 
ATOM     30  F   UNL     1      -1.940  -0.840  -4.750  0.00  0.00    -0.167 F 
ATOM     31  F   UNL     1      -4.166  -1.350  -4.810  0.00  0.00    -0.167 F 
ATOM     32  F   UNL     1      -3.438   0.679  -5.567  0.00  0.00    -0.167 F 
ENDBRANCH   1  29
BRANCH   9  33
ATOM     33  C   UNL     1       0.206   1.059  -0.227  0.00  0.00    +0.163 C 
BRANCH  33  34
ATOM     34  C   UNL     1      -0.409   1.581   1.046  0.00  0.00    -0.028 A 
ATOM     35  C   UNL     1       0.012   2.788   1.572  0.00  0.00    +0.005 A 
ATOM     36  C   UNL     1      -0.555   3.269   2.737  0.00  0.00    +0.000 A 
ATOM     37  C   UNL     1      -1.535   2.539   3.382  0.00  0.00    +0.000 A 
ATOM     38  C   UNL     1      -1.952   1.329   2.859  0.00  0.00    +0.000 A 
ATOM     39  C   UNL     1      -1.389   0.850   1.691  0.00  0.00    +0.005 A 
ENDBRANCH  33  34
ENDBRANCH   9  33
TORSDOF 6
