REMARK  Name = ZINC40404654
REMARK  14 active torsions:
REMARK  status: ('A' for Active; 'I' for Inactive)
REMARK    1  A    between atoms: C_1  and  C_2
REMARK    2  A    between atoms: C_2  and  C_3
REMARK    3  A    between atoms: C_2  and  C_4
REMARK    4  A    between atoms: C_4  and  O_5
REMARK    5  A    between atoms: O_5  and  C_6
REMARK    6  A    between atoms: C_6  and  C_7
REMARK    7  A    between atoms: C_7  and  C_9
REMARK    8  A    between atoms: C_7  and  O_37
REMARK    9  A    between atoms: C_9  and  N_10
REMARK   10  A    between atoms: N_10  and  C_11
REMARK   11  A    between atoms: N_10  and  C_18
REMARK   12  A    between atoms: C_11  and  C_12
REMARK   13  A    between atoms: C_18  and  C_19
REMARK   14  A    between atoms: C_25  and  C_30
REMARK                            x       y       z     vdW  Elec       q    Type
REMARK                         _______ _______ _______ _____ _____    ______ ____
ROOT
ATOM      1  N   UNL     1      -3.606  -6.261  -0.453  0.00  0.00    +0.389 N 
ATOM      2  H   UNL     1      -2.999  -6.584  -1.192  0.00  0.00    -0.081 HD
ENDROOT
BRANCH   1   3
ATOM      3  C   UNL     1      -3.654  -4.792  -0.467  0.00  0.00    -0.044 C 
BRANCH   3   4
ATOM      4  C   UNL     1      -2.238  -4.237  -0.626  0.00  0.00    +0.124 C 
BRANCH   4   5
ATOM      5  O   UNL     1      -1.477  -4.529   0.547  0.00  0.00    -0.391 OA
ATOM      6  H   UNL     1      -1.861  -4.179   1.362  0.00  0.00    +0.210 HD
ENDBRANCH   4   5
BRANCH   4   7
ATOM      7  C   UNL     1      -2.304  -2.722  -0.827  0.00  0.00    +0.189 C 
BRANCH   7   8
ATOM      8  O   UNL     1      -0.993  -2.219  -1.092  0.00  0.00    -0.377 OA
BRANCH   8   9
ATOM      9  C   UNL     1      -0.942  -0.805  -1.296  0.00  0.00    +0.163 C 
BRANCH   9  11
ATOM     10  C   UNL     1       0.539   1.111  -1.911  0.00  0.00    +0.009 C 
ATOM     11  C   UNL     1       0.502  -0.380  -1.570  0.00  0.00    +0.009 C 
ATOM     12  C   UNL     1       1.354  -0.640  -0.326  0.00  0.00    +0.009 C 
ENDBRANCH   9  11
ENDBRANCH   8   9
ENDBRANCH   7   8
ENDBRANCH   4   7
ENDBRANCH   3   4
ENDBRANCH   1   3
BRANCH   1  13
ATOM     13  C   UNL     1      -3.090  -6.721   0.843  0.00  0.00    -0.042 C 
BRANCH  13  14
ATOM     14  C   UNL     1      -4.083  -6.389   1.926  0.00  0.00    -0.064 A 
ATOM     15  C   UNL     1      -4.051  -5.150   2.537  0.00  0.00    +0.002 A 
ATOM     16  C   UNL     1      -4.962  -4.845   3.531  0.00  0.00    +0.000 A 
ATOM     17  C   UNL     1      -5.906  -5.780   3.913  0.00  0.00    +0.000 A 
ATOM     18  C   UNL     1      -5.939  -7.019   3.302  0.00  0.00    +0.000 A 
ATOM     19  C   UNL     1      -5.030  -7.322   2.305  0.00  0.00    +0.002 A 
ENDBRANCH  13  14
ENDBRANCH   1  13
BRANCH   1  20
ATOM     20  C   UNL     1      -4.958  -6.797  -0.660  0.00  0.00    -0.003 C 
BRANCH  20  21
ATOM     21  C   UNL     1      -4.886  -8.294  -0.818  0.00  0.00    +0.094 A 
ATOM     22  N   UNL     1      -6.026  -8.998  -1.038  0.00  0.00    -0.312 N 
ATOM     23  H   UNL     1      -6.872  -8.527  -1.091  0.00  0.00    +0.170 HD
ATOM     24  C   UNL     1      -6.004 -10.335  -1.185  0.00  0.00    +0.260 A 
ATOM     25  O   UNL     1      -7.037 -10.952  -1.383  0.00  0.00    -0.267 OA
ATOM     26  C   UNL     1      -4.751 -11.022  -1.106  0.00  0.00    +0.080 A 
ATOM     27  C   UNL     1      -4.471 -12.447  -1.231  0.00  0.00    +0.006 A 
ATOM     28  C   UNL     1      -3.189 -12.871  -1.119  0.00  0.00    +0.056 A 
ATOM     29  S   UNL     1      -2.279 -11.365  -0.837  0.00  0.00    -0.076 S 
ATOM     30  C   UNL     1      -3.627 -10.212  -0.875  0.00  0.00    +0.116 A 
ATOM     31  N   UNL     1      -3.727  -8.892  -0.745  0.00  0.00    -0.229 NA
BRANCH  27  32
ATOM     32  C   UNL     1      -5.567 -13.414  -1.476  0.00  0.00    +0.019 A 
ATOM     33  C   UNL     1      -5.885 -14.370  -0.512  0.00  0.00    +0.011 A 
ATOM     34  C   UNL     1      -6.907 -15.268  -0.745  0.00  0.00    +0.001 A 
ATOM     35  C   UNL     1      -7.617 -15.221  -1.932  0.00  0.00    +0.003 A 
ATOM     36  C   UNL     1      -7.307 -14.276  -2.893  0.00  0.00    +0.039 A 
ATOM     37  C   UNL     1      -6.289 -13.368  -2.669  0.00  0.00    +0.131 A 
ATOM     38  F   UNL     1      -5.991 -12.441  -3.606  0.00  0.00    -0.205 F 
ENDBRANCH  27  32
ENDBRANCH  20  21
ENDBRANCH   1  20
TORSDOF 12
