REMARK  Name = ZINC08685560
REMARK  11 active torsions:
REMARK  status: ('A' for Active; 'I' for Inactive)
REMARK    1  A    between atoms: C_1  and  C_2
REMARK    2  A    between atoms: C_2  and  N_3
REMARK    3  A    between atoms: N_3  and  C_4
REMARK    4  A    between atoms: N_3  and  S_6
REMARK    5  A    between atoms: C_4  and  C_5
REMARK    6  A    between atoms: S_6  and  C_9
REMARK    7  A    between atoms: C_12  and  N_28
REMARK    8  A    between atoms: C_13  and  N_15
REMARK    9  A    between atoms: N_15  and  S_16
REMARK   10  A    between atoms: S_16  and  C_19
REMARK   11  A    between atoms: C_22  and  N_25
REMARK                            x       y       z     vdW  Elec       q    Type
REMARK                         _______ _______ _______ _____ _____    ______ ____
ROOT
ATOM      1  C   UNL     1      -0.337   0.586  -3.526  0.00  0.00    +0.107 A 
ATOM      2  C   UNL     1      -1.406   1.440  -3.328  0.00  0.00    +0.030 A 
ATOM      3  C   UNL     1      -1.530   2.587  -4.089  0.00  0.00    +0.027 A 
ATOM      4  C   UNL     1      -0.579   2.885  -5.054  0.00  0.00    +0.055 A 
ATOM      5  C   UNL     1       0.499   2.023  -5.253  0.00  0.00    +0.097 A 
ATOM      6  C   UNL     1       0.618   0.877  -4.482  0.00  0.00    +0.057 A 
ENDROOT
BRANCH   4   7
ATOM      7  N   UNL     1      -0.702   4.046  -5.826  0.00  0.00    -0.328 N 
ATOM      8  C   UNL     1      -1.417   4.152  -7.106  0.00  0.00    +0.105 C 
ATOM      9  C   UNL     1      -1.264   5.607  -7.598  0.00  0.00    +0.020 C 
ATOM     10  C   UNL     1       0.004   6.095  -6.849  0.00  0.00    +0.020 C 
ATOM     11  C   UNL     1      -0.142   5.367  -5.487  0.00  0.00    +0.105 C 
ENDBRANCH   4   7
BRANCH   1  12
ATOM     12  S   UNL     1      -0.188  -0.875  -2.551  0.00  0.00    +0.061 S 
ATOM     13  O   UNL     1       0.610  -1.782  -3.300  0.00  0.00    -0.153 OA
ATOM     14  O   UNL     1      -1.496  -1.201  -2.104  0.00  0.00    -0.153 OA
BRANCH  12  15
ATOM     15  N   UNL     1       0.688  -0.476  -1.203  0.00  0.00    -0.177 NA
BRANCH  15  17
ATOM     16  C   UNL     1      -0.019   1.526   0.010  0.00  0.00    +0.022 C 
ATOM     17  C   UNL     1       0.002  -0.004   0.002  0.00  0.00    +0.106 C 
ENDBRANCH  15  17
BRANCH  15  18
ATOM     18  C   UNL     1       2.148  -0.597  -1.216  0.00  0.00    +0.106 C 
ATOM     19  C   UNL     1       2.553  -1.951  -0.632  0.00  0.00    +0.022 C 
ENDBRANCH  15  18
ENDBRANCH  12  15
ENDBRANCH   1  12
BRANCH   5  20
ATOM     20  N   UNL     1       1.462   2.318  -6.226  0.00  0.00    -0.096 NA
BRANCH  20  21
ATOM     21  S   UNL     1       2.742   1.293  -6.461  0.00  0.00    +0.092 S 
ATOM     22  O   UNL     1       3.525   1.344  -5.277  0.00  0.00    -0.148 OA
ATOM     23  O   UNL     1       2.203   0.080  -6.967  0.00  0.00    -0.148 OA
BRANCH  21  24
ATOM     24  C   UNL     1       3.730   1.981  -7.748  0.00  0.00    +0.111 A 
ATOM     25  C   UNL     1       3.478   1.647  -9.066  0.00  0.00    +0.031 A 
ATOM     26  C   UNL     1       4.254   2.186 -10.075  0.00  0.00    +0.034 A 
ATOM     27  C   UNL     1       5.280   3.059  -9.767  0.00  0.00    +0.126 A 
ATOM     28  C   UNL     1       5.531   3.394  -8.450  0.00  0.00    +0.034 A 
ATOM     29  C   UNL     1       4.753   2.858  -7.441  0.00  0.00    +0.031 A 
BRANCH  27  30
ATOM     30  N   UNL     1       6.111   3.636 -10.848  0.00  0.00    +0.056 N 
ATOM     31  O   UNL     1       5.891   3.343 -12.001  0.00  0.00    -0.126 OA
ATOM     32  O   UNL     1       7.008   4.400 -10.579  0.00  0.00    -0.126 OA
ENDBRANCH  27  30
ENDBRANCH  21  24
ENDBRANCH  20  21
ENDBRANCH   5  20
TORSDOF 9
