REMARK  Name = ZINC66273418
REMARK  5 active torsions:
REMARK  status: ('A' for Active; 'I' for Inactive)
REMARK    1  A    between atoms: C_4  and  C_7
REMARK    2  A    between atoms: C_7  and  C_9
REMARK    3  A    between atoms: C_7  and  N_15
REMARK    4  A    between atoms: C_16  and  C_18
REMARK    5  A    between atoms: C_20  and  N_28
REMARK                            x       y       z     vdW  Elec       q    Type
REMARK                         _______ _______ _______ _____ _____    ______ ____
ROOT
ATOM      1  N   UNL     1       3.630  -1.873   0.845  0.00  0.00    -0.299 N 
ATOM      2  C   UNL     1       4.751  -2.385   1.391  0.00  0.00    +0.249 C 
ATOM      3  O   UNL     1       5.830  -1.879   1.150  0.00  0.00    -0.270 OA
ATOM      4  H   UNL     1       2.769  -2.277   1.038  0.00  0.00    +0.150 HD
ENDROOT
BRANCH   2   5
ATOM      5  C   UNL     1       4.670  -3.559   2.280  0.00  0.00    +0.084 A 
ATOM      6  C   UNL     1       3.432  -4.147   2.554  0.00  0.00    +0.049 A 
ATOM      7  C   UNL     1       3.360  -5.244   3.385  0.00  0.00    +0.131 A 
ATOM      8  C   UNL     1       4.510  -5.768   3.952  0.00  0.00    +0.082 A 
ATOM      9  C   UNL     1       5.745  -5.196   3.690  0.00  0.00    +0.165 A 
ATOM     10  C   UNL     1       5.833  -4.094   2.848  0.00  0.00    +0.174 A 
ATOM     11  O   UNL     1       7.035  -3.525   2.569  0.00  0.00    -0.484 OA
ATOM     12  C   UNL     1       8.120  -3.851   3.443  0.00  0.00    +0.270 C 
ATOM     13  C   UNL     1       8.117  -5.369   3.669  0.00  0.00    +0.270 C 
ATOM     14  O   UNL     1       6.861  -5.726   4.262  0.00  0.00    -0.485 OA
BRANCH   7  15
ATOM     15  N   UNL     1       2.048  -5.865   3.673  0.00  0.00    +0.057 N 
ATOM     16  O   UNL     1       1.042  -5.410   3.179  0.00  0.00    -0.126 OA
ATOM     17  O   UNL     1       1.981  -6.828   4.401  0.00  0.00    -0.126 OA
ENDBRANCH   7  15
ENDBRANCH   2   5
BRANCH   1  18
ATOM     18  C   UNL     1       3.711  -0.707  -0.038  0.00  0.00    +0.152 C 
BRANCH  18  22
ATOM     19  C   UNL     1      -0.017   1.378   0.010  0.00  0.00    +0.000 A 
ATOM     20  C   UNL     1       1.171   2.086   0.002  0.00  0.00    +0.000 A 
ATOM     21  C   UNL     1       2.377   1.411  -0.013  0.00  0.00    +0.006 A 
ATOM     22  C   UNL     1       2.396   0.029  -0.020  0.00  0.00    -0.021 A 
ATOM     23  C   UNL     1       1.208  -0.679  -0.012  0.00  0.00    +0.006 A 
ATOM     24  C   UNL     1       0.002  -0.004   0.002  0.00  0.00    +0.000 A 
ENDBRANCH  18  22
BRANCH  18  25
ATOM     25  C   UNL     1       4.014  -1.161  -1.442  0.00  0.00    +0.066 A 
ATOM     26  C   UNL     1       5.215  -0.808  -2.030  0.00  0.00    +0.025 A 
ATOM     27  C   UNL     1       5.484  -1.230  -3.323  0.00  0.00    +0.003 A 
ATOM     28  C   UNL     1       4.532  -1.995  -3.979  0.00  0.00    +0.020 A 
ATOM     29  C   UNL     1       3.354  -2.309  -3.327  0.00  0.00    +0.111 A 
ATOM     30  N   UNL     1       3.134  -1.894  -2.095  0.00  0.00    -0.258 NA
ENDBRANCH  18  25
ENDBRANCH   1  18
TORSDOF 5
