REMARK  Name = ZINC13318663
REMARK  9 active torsions:
REMARK  status: ('A' for Active; 'I' for Inactive)
REMARK    1  A    between atoms: C_1  and  C_2
REMARK    2  A    between atoms: C_2  and  O_3
REMARK    3  A    between atoms: O_3  and  C_4
REMARK    4  A    between atoms: C_9  and  N_10
REMARK    5  A    between atoms: C_11  and  S_15
REMARK    6  A    between atoms: S_15  and  C_16
REMARK    7  A    between atoms: C_16  and  C_17
REMARK    8  A    between atoms: C_23  and  C_31
REMARK    9  A    between atoms: C_24  and  C_28
REMARK                            x       y       z     vdW  Elec       q    Type
REMARK                         _______ _______ _______ _____ _____    ______ ____
ROOT
ATOM      1  C   UNL     1       4.078  -3.180  -6.543  0.00  0.00    +0.151 C 
ENDROOT
BRANCH   1   2
ATOM      2  C   UNL     1       4.534  -4.513  -7.077  0.00  0.00    +0.121 A 
ATOM      3  N   UNL     1       5.266  -4.549  -8.217  0.00  0.00    -0.310 N 
ATOM      4  H   UNL     1       5.484  -3.719  -8.669  0.00  0.00    +0.170 HD
ATOM      5  C   UNL     1       5.699  -5.715  -8.736  0.00  0.00    +0.260 A 
ATOM      6  O   UNL     1       6.357  -5.736  -9.761  0.00  0.00    -0.267 OA
ATOM      7  C   UNL     1       5.354  -6.969  -8.028  0.00  0.00    +0.076 A 
ATOM      8  C   UNL     1       5.681  -8.285  -8.360  0.00  0.00    -0.015 A 
ATOM      9  C   UNL     1       5.253  -9.315  -7.552  0.00  0.00    +0.106 A 
ATOM     10  S   UNL     1       4.357  -8.460  -6.267  0.00  0.00    -0.062 S 
ATOM     11  C   UNL     1       4.587  -6.800  -6.852  0.00  0.00    +0.116 A 
ATOM     12  N   UNL     1       4.217  -5.599  -6.426  0.00  0.00    -0.226 NA
ATOM     13  C   UNL     1       6.495  -8.576  -9.594  0.00  0.00    +0.046 C 
BRANCH   9  14
ATOM     14  C   UNL     1       5.470 -10.708  -7.704  0.00  0.00    +0.393 C 
ATOM     15  O   UNL     1       6.116 -11.127  -8.657  0.00  0.00    -0.240 OA
ATOM     16  O   UNL     1       5.013 -11.492  -6.882  0.00  0.00    -0.240 OA
ENDBRANCH   9  14
ENDBRANCH   1   2
BRANCH   1  17
ATOM     17  S   UNL     1       3.133  -3.432  -5.015  0.00  0.00    -0.076 S 
BRANCH  17  19
ATOM     18  N   UNL     1       1.953  -1.466  -3.426  0.00  0.00    -0.184 N 
ATOM     19  C   UNL     1       2.677  -1.803  -4.522  0.00  0.00    +0.215 A 
ATOM     20  N   UNL     1       2.975  -0.685  -5.147  0.00  0.00    -0.101 NA
ATOM     21  N   UNL     1       2.488   0.325  -4.520  0.00  0.00    -0.022 NA
ATOM     22  N   UNL     1       1.850  -0.064  -3.470  0.00  0.00    -0.038 NA
BRANCH  18  28
ATOM     23  C   UNL     1       0.090  -2.190  -2.057  0.00  0.00    +0.146 A 
ATOM     24  C   UNL     1      -0.436  -3.050  -1.106  0.00  0.00    +0.048 A 
ATOM     25  C   UNL     1       0.357  -4.040  -0.555  0.00  0.00    +0.004 A 
ATOM     26  C   UNL     1       1.675  -4.176  -0.950  0.00  0.00    +0.002 A 
ATOM     27  C   UNL     1       2.207  -3.322  -1.898  0.00  0.00    +0.031 A 
ATOM     28  C   UNL     1       1.416  -2.330  -2.459  0.00  0.00    +0.111 A 
BRANCH  23  29
ATOM     29  O   UNL     1      -0.687  -1.216  -2.599  0.00  0.00    -0.490 OA
BRANCH  29  31
ATOM     30  C   UNL     1      -2.751   0.015  -2.856  0.00  0.00    +0.048 C 
ATOM     31  C   UNL     1      -2.037  -1.132  -2.138  0.00  0.00    +0.226 C 
ENDBRANCH  29  31
ENDBRANCH  23  29
ENDBRANCH  18  28
ENDBRANCH  17  19
ENDBRANCH   1  17
TORSDOF 7
