REMARK  Name = ZINC00377178
REMARK  10 active torsions:
REMARK  status: ('A' for Active; 'I' for Inactive)
REMARK    1  A    between atoms: C_1  and  O_2
REMARK    2  A    between atoms: O_2  and  C_3
REMARK    3  A    between atoms: C_3  and  C_4
REMARK    4  A    between atoms: C_11  and  N_27
REMARK    5  A    between atoms: C_12  and  C_25
REMARK    6  A    between atoms: C_13  and  C_15
REMARK    7  A    between atoms: C_17  and  O_23
REMARK    8  A    between atoms: C_19  and  O_21
REMARK    9  A    between atoms: O_21  and  C_22
REMARK   10  A    between atoms: O_23  and  C_24
REMARK                            x       y       z     vdW  Elec       q    Type
REMARK                         _______ _______ _______ _____ _____    ______ ____
ROOT
ATOM      1  C   UNL     1      -3.131   1.032  -2.522  0.00  0.00    +0.096 A 
ATOM      2  C   UNL     1      -3.332   1.354  -1.187  0.00  0.00    +0.052 A 
ATOM      3  C   UNL     1      -4.462   2.120  -1.101  0.00  0.00    +0.223 A 
ATOM      4  N   UNL     1      -4.945   2.271  -2.345  0.00  0.00    -0.246 N 
ATOM      5  H   UNL     1      -5.765   2.784  -2.600  0.00  0.00    +0.192 HD
ATOM      6  N   UNL     1      -4.096   1.580  -3.223  0.00  0.00    -0.173 NA
ATOM      7  O   UNL     1      -4.934   2.599   0.076  0.00  0.00    -0.423 OA
ATOM      8  C   UNL     1      -4.423   2.080   1.211  0.00  0.00    +0.200 C 
ATOM      9  C   UNL     1      -3.307   1.319   1.255  0.00  0.00    +0.098 C 
ATOM     10  C   UNL     1      -2.512   0.977   0.020  0.00  0.00    +0.102 C 
ENDROOT
BRANCH  10  11
ATOM     11  C   UNL     1      -1.219   1.750   0.017  0.00  0.00    -0.028 A 
ATOM     12  C   UNL     1      -0.013   1.076   0.008  0.00  0.00    +0.050 A 
ATOM     13  C   UNL     1       1.180   1.785   0.000  0.00  0.00    +0.124 A 
ATOM     14  C   UNL     1       1.161   3.172   0.008  0.00  0.00    +0.091 A 
ATOM     15  C   UNL     1      -0.051   3.845   0.022  0.00  0.00    +0.124 A 
ATOM     16  C   UNL     1      -1.241   3.131   0.030  0.00  0.00    +0.050 A 
BRANCH  15  17
ATOM     17  O   UNL     1      -0.073   5.204   0.030  0.00  0.00    -0.495 OA
ATOM     18  C   UNL     1       1.189   5.874   0.022  0.00  0.00    +0.277 C 
ENDBRANCH  15  17
BRANCH  13  19
ATOM     19  O   UNL     1       2.366   1.122  -0.015  0.00  0.00    -0.495 OA
ATOM     20  C   UNL     1       3.554   1.917  -0.022  0.00  0.00    +0.277 C 
ENDBRANCH  13  19
ENDBRANCH  10  11
BRANCH   8  21
ATOM     21  N   UNL     1      -5.075   2.340   2.391  0.00  0.00    -0.328 N 
ATOM     22  H   UNL     1      -4.731   1.981   3.224  0.00  0.00    +0.145 HD
ATOM     23  H   UNL     1      -5.878   2.883   2.392  0.00  0.00    +0.145 HD
ENDBRANCH   8  21
BRANCH   9  24
ATOM     24  C   UNL     1      -2.863   0.819   2.521  0.00  0.00    +0.101 C 
ATOM     25  N   UNL     1      -2.510   0.423   3.526  0.00  0.00    -0.191 NA
ENDBRANCH   9  24
BRANCH   1  26
ATOM     26  C   UNL     1      -2.001   0.201  -3.072  0.00  0.00    +0.217 C 
BRANCH  26  28
ATOM     27  C   UNL     1       0.230   0.357  -3.933  0.00  0.00    +0.194 C 
ATOM     28  O   UNL     1      -0.900   1.051  -3.401  0.00  0.00    -0.377 OA
ENDBRANCH  26  28
ENDBRANCH   1  26
TORSDOF 7
