REMARK  Name = ZINC06616372
REMARK  5 active torsions:
REMARK  status: ('A' for Active; 'I' for Inactive)
REMARK    1  A    between atoms: C_7  and  C_11
REMARK    2  A    between atoms: N_12  and  N_13
REMARK    3  A    between atoms: C_14  and  C_16
REMARK    4  A    between atoms: C_16  and  N_17
REMARK    5  A    between atoms: N_17  and  C_18
REMARK                            x       y       z     vdW  Elec       q    Type
REMARK                         _______ _______ _______ _____ _____    ______ ____
ROOT
ATOM      1  N   UNL     1       7.492  -2.803   3.907  0.00  0.00    -0.206 N 
ATOM      2  C   UNL     1       6.867  -1.758   3.328  0.00  0.00    +0.249 C 
ATOM      3  O   UNL     1       7.435  -0.692   3.226  0.00  0.00    -0.272 OA
ATOM      4  H   UNL     1       7.038  -3.656   3.989  0.00  0.00    +0.177 HD
ENDROOT
BRANCH   1   6
ATOM      5  C   UNL     1       9.402  -3.662   4.949  0.00  0.00    +0.140 C 
ATOM      6  N   UNL     1       8.799  -2.656   4.391  0.00  0.00    -0.188 NA
BRANCH   5  13
ATOM      7  C   UNL     1      12.391  -0.058   5.037  0.00  0.00    +0.001 A 
ATOM      8  C   UNL     1      13.601  -0.389   5.631  0.00  0.00    +0.002 A 
ATOM      9  C   UNL     1      13.820  -1.660   6.116  0.00  0.00    +0.026 A 
ATOM     10  C   UNL     1      12.823  -2.624   6.011  0.00  0.00    +0.047 A 
ATOM     11  C   UNL     1      11.599  -2.288   5.411  0.00  0.00    +0.008 A 
ATOM     12  C   UNL     1      11.391  -0.998   4.925  0.00  0.00    +0.010 A 
ATOM     13  C   UNL     1      10.774  -3.508   5.457  0.00  0.00    +0.020 A 
ATOM     14  C   UNL     1      11.528  -4.463   6.066  0.00  0.00    +0.093 A 
ATOM     15  N   UNL     1      12.747  -3.947   6.393  0.00  0.00    -0.360 N 
ATOM     16  H   UNL     1      13.457  -4.439   6.834  0.00  0.00    +0.165 HD
ENDBRANCH   5  13
ENDBRANCH   1   6
BRANCH   2  17
ATOM     17  C   UNL     1       5.461  -1.916   2.808  0.00  0.00    +0.199 C 
BRANCH  17  18
ATOM     18  N   UNL     1       5.009  -0.648   2.230  0.00  0.00    -0.335 N 
ATOM     19  H   UNL     1       5.599   0.122   2.229  0.00  0.00    +0.147 HD
BRANCH  18  20
ATOM     20  C   UNL     1       3.727  -0.548   1.679  0.00  0.00    +0.031 A 
ATOM     21  C   UNL     1       2.883  -1.651   1.680  0.00  0.00    +0.027 A 
ATOM     22  C   UNL     1       1.616  -1.553   1.137  0.00  0.00    +0.051 A 
ATOM     23  C   UNL     1       1.184  -0.356   0.590  0.00  0.00    +0.166 A 
ATOM     24  C   UNL     1       2.029   0.752   0.587  0.00  0.00    +0.168 A 
ATOM     25  C   UNL     1       3.299   0.653   1.131  0.00  0.00    +0.072 A 
ATOM     26  O   UNL     1       1.376   1.797  -0.001  0.00  0.00    -0.453 OA
ATOM     27  C   UNL     1      -0.017   1.436   0.010  0.00  0.00    +0.466 C 
ATOM     28  O   UNL     1       0.002  -0.004   0.002  0.00  0.00    -0.453 OA
ENDBRANCH  18  20
ENDBRANCH  17  18
ENDBRANCH   2  17
TORSDOF 5
