REMARK  Name = ZINC07574102
REMARK  7 active torsions:
REMARK  status: ('A' for Active; 'I' for Inactive)
REMARK    1  A    between atoms: C_1  and  C_2
REMARK    2  A    between atoms: C_6  and  C_8
REMARK    3  A    between atoms: C_8  and  N_9
REMARK    4  A    between atoms: C_11  and  C_16
REMARK    5  A    between atoms: N_18  and  C_19
REMARK    6  A    between atoms: C_22  and  N_27
REMARK    7  A    between atoms: C_24  and  C_25
REMARK                            x       y       z     vdW  Elec       q    Type
REMARK                         _______ _______ _______ _____ _____    ______ ____
ROOT
ATOM      1  N   UNL     1       4.917  -2.973   0.358  0.00  0.00    -0.310 N 
ATOM      2  C   UNL     1       3.742  -2.321   0.277  0.00  0.00    +0.102 A 
ATOM      3  C   UNL     1       3.711  -0.945   0.174  0.00  0.00    +0.053 A 
ATOM      4  C   UNL     1       4.927  -0.219   0.167  0.00  0.00    +0.020 A 
ATOM      5  C   UNL     1       6.101  -0.899   0.256  0.00  0.00    +0.071 A 
ATOM      6  C   UNL     1       6.084  -2.303   0.354  0.00  0.00    +0.252 A 
ATOM      7  O   UNL     1       7.135  -2.917   0.434  0.00  0.00    -0.268 OA
ENDROOT
BRANCH   3   8
ATOM      8  C   UNL     1       2.422  -0.236   0.079  0.00  0.00    +0.250 C 
ATOM      9  O   UNL     1       1.381  -0.864   0.086  0.00  0.00    -0.270 OA
ATOM     10  N   UNL     1       2.398   1.108  -0.015  0.00  0.00    -0.280 N 
ATOM     11  H   UNL     1       3.227   1.603  -0.101  0.00  0.00    +0.155 HD
BRANCH  10  12
ATOM     12  C   UNL     1       1.181   1.786   0.011  0.00  0.00    +0.051 A 
ATOM     13  C   UNL     1       0.076   1.214   0.627  0.00  0.00    +0.027 A 
ATOM     14  C   UNL     1      -1.130   1.885   0.647  0.00  0.00    +0.034 A 
ATOM     15  C   UNL     1      -1.246   3.136   0.064  0.00  0.00    +0.128 A 
ATOM     16  C   UNL     1      -0.160   3.721  -0.551  0.00  0.00    +0.053 A 
ATOM     17  C   UNL     1       1.066   3.051  -0.584  0.00  0.00    +0.075 A 
BRANCH  15  18
ATOM     18  N   UNL     1      -2.544   3.847   0.098  0.00  0.00    +0.056 N 
ATOM     19  O   UNL     1      -2.650   4.945  -0.418  0.00  0.00    -0.126 OA
ATOM     20  O   UNL     1      -3.505   3.333   0.641  0.00  0.00    -0.126 OA
ENDBRANCH  15  18
BRANCH  17  21
ATOM     21  C   UNL     1       2.198   3.653  -1.222  0.00  0.00    +0.101 C 
ATOM     22  N   UNL     1       3.097   4.130  -1.728  0.00  0.00    -0.191 NA
ENDBRANCH  17  21
ENDBRANCH  10  12
ENDBRANCH   3   8
BRANCH   1  23
ATOM     23  C   UNL     1       4.925  -4.434   0.460  0.00  0.00    +0.160 C 
BRANCH  23  29
ATOM     24  C   UNL     1       2.287  -5.612   4.546  0.00  0.00    +0.044 C 
ATOM     25  C   UNL     1       3.615  -5.401   3.866  0.00  0.00    -0.050 A 
ATOM     26  C   UNL     1       4.790  -5.576   4.574  0.00  0.00    +0.003 A 
ATOM     27  C   UNL     1       6.008  -5.383   3.951  0.00  0.00    +0.001 A 
ATOM     28  C   UNL     1       6.052  -5.018   2.618  0.00  0.00    +0.005 A 
ATOM     29  C   UNL     1       4.877  -4.837   1.912  0.00  0.00    -0.027 A 
ATOM     30  C   UNL     1       3.659  -5.031   2.535  0.00  0.00    +0.008 A 
ENDBRANCH  23  29
ENDBRANCH   1  23
TORSDOF 6
