REMARK  Name = ZINC39533905
REMARK  8 active torsions:
REMARK  status: ('A' for Active; 'I' for Inactive)
REMARK    1  A    between atoms: C_4  and  C_7
REMARK    2  A    between atoms: C_10  and  C_13
REMARK    3  A    between atoms: C_13  and  C_15
REMARK    4  A    between atoms: C_13  and  N_18
REMARK    5  A    between atoms: C_15  and  N_16
REMARK    6  A    between atoms: C_22  and  S_25
REMARK    7  A    between atoms: S_25  and  O_28
REMARK    8  A    between atoms: O_28  and  C_29
REMARK                            x       y       z     vdW  Elec       q    Type
REMARK                         _______ _______ _______ _____ _____    ______ ____
ROOT
ATOM      1  N   UNL     1       7.357  -3.909  -0.925  0.00  0.00    -0.296 NA
ATOM      2  C   UNL     1       6.258  -4.781  -0.485  0.00  0.00    +0.066 C 
ATOM      3  C   UNL     1       6.131  -5.962  -1.450  0.00  0.00    -0.064 C 
ATOM      4  N   UNL     1       7.393  -6.712  -1.476  0.00  0.00    +0.398 N 
ATOM      5  C   UNL     1       8.476  -5.835  -1.940  0.00  0.00    +0.130 C 
ATOM      6  C   UNL     1       8.623  -4.653  -0.980  0.00  0.00    +0.095 C 
ATOM      7  H   UNL     1       7.606  -7.045  -0.547  0.00  0.00    -0.083 HD
ATOM      8  H   UNL     1       7.305  -7.498  -2.102  0.00  0.00    -0.083 HD
ENDROOT
BRANCH   5   9
ATOM      9  S   UNL     1      10.030  -6.769  -1.992  0.00  0.00    +0.109 S 
ATOM     10  O   UNL     1      11.049  -5.992  -2.606  0.00  0.00    -0.138 OA
ATOM     11  O   UNL     1      10.260  -7.407  -0.743  0.00  0.00    -0.138 OA
BRANCH   9  12
ATOM     12  O   UNL     1       9.770  -7.908  -2.967  0.00  0.00    -0.347 OA
BRANCH  12  13
ATOM     13  C   UNL     1       9.759  -7.527  -4.272  0.00  0.00    +0.156 A 
ATOM     14  C   UNL     1       8.575  -7.117  -4.866  0.00  0.00    +0.048 A 
ATOM     15  C   UNL     1       8.566  -6.730  -6.192  0.00  0.00    +0.004 A 
ATOM     16  C   UNL     1       9.737  -6.750  -6.927  0.00  0.00    +0.000 A 
ATOM     17  C   UNL     1      10.919  -7.159  -6.337  0.00  0.00    +0.004 A 
ATOM     18  C   UNL     1      10.934  -7.541  -5.010  0.00  0.00    +0.048 A 
ENDBRANCH  12  13
ENDBRANCH   9  12
ENDBRANCH   5   9
BRANCH   1  19
ATOM     19  C   UNL     1       7.475  -2.731  -0.055  0.00  0.00    +0.101 C 
BRANCH  19  23
ATOM     20  C   UNL     1       4.764   0.297  -1.381  0.00  0.00    -0.018 A 
ATOM     21  C   UNL     1       5.842   0.632  -0.565  0.00  0.00    +0.009 A 
ATOM     22  C   UNL     1       6.714  -0.349  -0.140  0.00  0.00    +0.006 A 
ATOM     23  C   UNL     1       6.519  -1.664  -0.522  0.00  0.00    -0.029 A 
ATOM     24  C   UNL     1       5.451  -2.003  -1.333  0.00  0.00    +0.006 A 
ATOM     25  C   UNL     1       4.569  -1.030  -1.759  0.00  0.00    +0.009 A 
BRANCH  20  29
ATOM     26  C   UNL     1       2.067   3.309  -2.699  0.00  0.00    +0.000 A 
ATOM     27  C   UNL     1       3.139   3.648  -1.894  0.00  0.00    +0.001 A 
ATOM     28  C   UNL     1       4.017   2.675  -1.463  0.00  0.00    +0.008 A 
ATOM     29  C   UNL     1       3.822   1.348  -1.841  0.00  0.00    -0.018 A 
ATOM     30  C   UNL     1       2.741   1.011  -2.652  0.00  0.00    +0.008 A 
ATOM     31  C   UNL     1       1.869   1.993  -3.077  0.00  0.00    +0.001 A 
ENDBRANCH  20  29
ENDBRANCH  19  23
BRANCH  19  32
ATOM     32  C   UNL     1       7.137  -3.124   1.384  0.00  0.00    +0.117 C 
BRANCH  32  33
ATOM     33  N   UNL     1       8.073  -4.160   1.841  0.00  0.00    -0.254 NA
ATOM     34 BR   UNL     1       7.847  -4.508   3.644  0.00  0.00    +0.010 Br
ATOM     35  H   UNL     1       7.974  -5.003   1.295  0.00  0.00    +0.135 HD
ENDBRANCH  32  33
ENDBRANCH  19  32
ENDBRANCH   1  19
TORSDOF 8
