REMARK  Name = ZINC04975144
REMARK  4 active torsions:
REMARK  status: ('A' for Active; 'I' for Inactive)
REMARK    1  A    between atoms: C_1  and  O_2
REMARK    2  A    between atoms: O_2  and  C_3
REMARK    3  A    between atoms: C_6  and  C_12
REMARK    4  A    between atoms: C_8  and  N_9
REMARK                            x       y       z     vdW  Elec       q    Type
REMARK                         _______ _______ _______ _____ _____    ______ ____
ROOT
ATOM      1  C   UNL     1       3.649  -2.029  -0.469  0.00  0.00    +0.105 C 
ATOM      2  C   UNL     1       2.557  -2.818   0.260  0.00  0.00    +0.029 C 
ATOM      3  C   UNL     1       2.373  -4.178  -0.476  0.00  0.00    +0.033 C 
ATOM      4  C   UNL     1       1.455  -3.829  -1.631  0.00  0.00    -0.030 C 
ATOM      5  C   UNL     1       0.791  -2.728  -1.375  0.00  0.00    -0.023 C 
ATOM      6  C   UNL     1       1.179  -2.189  -0.019  0.00  0.00    +0.049 C 
ATOM      7  C   UNL     1       1.207  -0.693  -0.013  0.00  0.00    -0.018 A 
ATOM      8  C   UNL     1       0.002  -0.004   0.002  0.00  0.00    +0.026 A 
ATOM      9  C   UNL     1      -0.017   1.377   0.010  0.00  0.00    +0.041 A 
ATOM     10  C   UNL     1       1.169   2.090   0.002  0.00  0.00    +0.022 A 
ATOM     11  C   UNL     1       2.373   1.415  -0.014  0.00  0.00    +0.024 A 
ATOM     12  C   UNL     1       2.392   0.026  -0.022  0.00  0.00    +0.031 A 
ATOM     13  N   UNL     1       3.617  -0.637  -0.007  0.00  0.00    -0.336 N 
ATOM     14 CL   UNL     1      -1.534   2.221   0.021  0.00  0.00    -0.084 Cl
ATOM     15  H   UNL     1       4.429  -0.190   0.278  0.00  0.00    +0.147 HD
ENDROOT
BRANCH   1  19
ATOM     16  C   UNL     1       7.469  -3.737   0.393  0.00  0.00    +0.150 A 
ATOM     17  C   UNL     1       6.865  -2.888   1.309  0.00  0.00    +0.048 A 
ATOM     18  C   UNL     1       5.630  -2.337   1.028  0.00  0.00    +0.009 A 
ATOM     19  C   UNL     1       4.996  -2.631  -0.165  0.00  0.00    -0.025 A 
ATOM     20  C   UNL     1       5.593  -3.481  -1.077  0.00  0.00    +0.042 A 
ATOM     21  C   UNL     1       6.831  -4.031  -0.803  0.00  0.00    +0.168 A 
BRANCH  21  22
ATOM     22  N   UNL     1       7.473  -4.936  -1.782  0.00  0.00    +0.060 N 
ATOM     23  O   UNL     1       6.912  -5.193  -2.833  0.00  0.00    -0.126 OA
ATOM     24  O   UNL     1       8.562  -5.424  -1.538  0.00  0.00    -0.126 OA
ENDBRANCH  21  22
BRANCH  16  26
ATOM     25  C   UNL     1       9.283  -3.934   1.918  0.00  0.00    +0.277 C 
ATOM     26  O   UNL     1       8.685  -4.280   0.667  0.00  0.00    -0.493 OA
ENDBRANCH  16  26
ENDBRANCH   1  19
TORSDOF 3
