REMARK  Name = ZINC65360138
REMARK  8 active torsions:
REMARK  status: ('A' for Active; 'I' for Inactive)
REMARK    1  A    between atoms: C_1  and  C_2
REMARK    2  A    between atoms: C_4  and  C_8
REMARK    3  A    between atoms: C_5  and  C_7
REMARK    4  A    between atoms: C_8  and  C_9
REMARK    5  A    between atoms: C_8  and  N_10
REMARK    6  A    between atoms: N_13  and  C_14
REMARK    7  A    between atoms: C_17  and  N_20
REMARK    8  A    between atoms: C_21  and  C_23
REMARK                            x       y       z     vdW  Elec       q    Type
REMARK                         _______ _______ _______ _____ _____    ______ ____
ROOT
ATOM      1  N   UNL     1      -2.787  -3.071  -0.577  0.00  0.00    -0.292 N 
ATOM      2  C   UNL     1      -3.497  -4.061  -1.153  0.00  0.00    +0.304 C 
ATOM      3  O   UNL     1      -3.043  -5.188  -1.197  0.00  0.00    -0.252 OA
ATOM      4  N   UNL     1      -4.710  -3.802  -1.680  0.00  0.00    -0.269 N 
ATOM      5  H   UNL     1      -3.149  -2.172  -0.541  0.00  0.00    +0.151 HD
ATOM      6  H   UNL     1      -5.101  -2.920  -1.585  0.00  0.00    +0.156 HD
ENDROOT
BRANCH   4   7
ATOM      7  C   UNL     1      -5.406  -4.808  -2.364  0.00  0.00    +0.035 A 
ATOM      8  C   UNL     1      -6.188  -4.485  -3.465  0.00  0.00    +0.025 A 
ATOM      9  C   UNL     1      -6.874  -5.476  -4.139  0.00  0.00    +0.025 A 
ATOM     10  C   UNL     1      -6.781  -6.795  -3.715  0.00  0.00    +0.034 A 
ATOM     11  C   UNL     1      -5.999  -7.118  -2.614  0.00  0.00    +0.025 A 
ATOM     12  C   UNL     1      -5.309  -6.128  -1.944  0.00  0.00    +0.025 A 
BRANCH  10  13
ATOM     13  N   UNL     1      -7.477  -7.800  -4.398  0.00  0.00    -0.279 N 
ATOM     14  C   UNL     1      -7.630  -7.724  -5.735  0.00  0.00    +0.284 C 
ATOM     15  O   UNL     1      -7.238  -6.742  -6.338  0.00  0.00    -0.266 OA
ATOM     16  H   UNL     1      -7.849  -8.551  -3.909  0.00  0.00    +0.155 HD
BRANCH  14  17
ATOM     17  C   UNL     1      -8.270  -8.824  -6.463  0.00  0.00    +0.189 A 
ATOM     18  C   UNL     1      -8.482  -8.878  -7.811  0.00  0.00    +0.054 A 
ATOM     19  C   UNL     1      -9.117 -10.102  -8.071  0.00  0.00    +0.042 A 
ATOM     20  C   UNL     1      -9.263 -10.734  -6.886  0.00  0.00    +0.196 A 
ATOM     21  O   UNL     1      -8.747  -9.963  -5.920  0.00  0.00    -0.458 OA
ENDBRANCH  14  17
ENDBRANCH  10  13
ENDBRANCH   4   7
BRANCH   1  22
ATOM     22  C   UNL     1      -1.468  -3.352  -0.004  0.00  0.00    +0.105 C 
ATOM     23  C   UNL     1      -1.633  -3.868   1.427  0.00  0.00    +0.033 C 
BRANCH  22  27
ATOM     24  C   UNL     1      -0.103   1.556   0.056  0.00  0.00    +0.086 C 
ATOM     25  C   UNL     1      -0.066   0.049   0.035  0.00  0.00    +0.103 A 
ATOM     26  C   UNL     1      -1.138  -0.764   0.030  0.00  0.00    +0.050 A 
ATOM     27  C   UNL     1      -0.646  -2.089   0.009  0.00  0.00    +0.013 A 
ATOM     28  C   UNL     1       0.697  -2.007   0.002  0.00  0.00    +0.107 A 
ATOM     29  O   UNL     1       1.042  -0.709   0.013  0.00  0.00    -0.465 OA
ATOM     30  C   UNL     1       1.651  -3.173  -0.018  0.00  0.00    +0.086 C 
ENDBRANCH  22  27
ENDBRANCH   1  22
TORSDOF 5
