REMARK  Name = ZINC05307686
REMARK  7 active torsions:
REMARK  status: ('A' for Active; 'I' for Inactive)
REMARK    1  A    between atoms: C_1  and  C_2
REMARK    2  A    between atoms: C_2  and  C_4
REMARK    3  A    between atoms: C_2  and  C_5
REMARK    4  A    between atoms: C_5  and  C_7
REMARK    5  A    between atoms: C_5  and  N_20
REMARK    6  A    between atoms: N_9  and  C_10
REMARK    7  A    between atoms: C_21  and  C_23
REMARK                            x       y       z     vdW  Elec       q    Type
REMARK                         _______ _______ _______ _____ _____    ______ ____
ROOT
ATOM      1  C   UNL     1       4.953  -2.739   0.140  0.00  0.00    +0.162 C 
ENDROOT
BRANCH   1   2
ATOM      2  C   UNL     1       3.639  -2.007   0.048  0.00  0.00    +0.238 C 
ATOM      3  O   UNL     1       2.597  -2.628   0.057  0.00  0.00    -0.273 OA
ATOM      4  N   UNL     1       3.621  -0.663  -0.046  0.00  0.00    -0.284 N 
ATOM      5  H   UNL     1       4.453  -0.172  -0.131  0.00  0.00    +0.155 HD
BRANCH   4   6
ATOM      6  C   UNL     1       2.401   0.025  -0.021  0.00  0.00    +0.037 A 
ATOM      7  C   UNL     1       1.346  -0.460   0.740  0.00  0.00    +0.027 A 
ATOM      8  C   UNL     1       0.142   0.217   0.764  0.00  0.00    +0.051 A 
ATOM      9  C   UNL     1      -0.016   1.384   0.029  0.00  0.00    +0.162 A 
ATOM     10  C   UNL     1       1.040   1.873  -0.731  0.00  0.00    +0.164 A 
ATOM     11  C   UNL     1       2.247   1.192  -0.756  0.00  0.00    +0.072 A 
ATOM     12  O   UNL     1       0.906   3.021  -1.451  0.00  0.00    -0.485 OA
ATOM     13  C   UNL     1      -0.429   3.473  -1.700  0.00  0.00    +0.270 C 
ATOM     14  C   UNL     1      -1.216   3.395  -0.384  0.00  0.00    +0.270 C 
ATOM     15  O   UNL     1      -1.213   2.033   0.059  0.00  0.00    -0.485 OA
ENDBRANCH   4   6
ENDBRANCH   1   2
BRANCH   1  16
ATOM     16  N   UNL     1       4.704  -4.180   0.232  0.00  0.00    -0.305 N 
ATOM     17  C   UNL     1       5.616  -4.986   0.812  0.00  0.00    +0.200 C 
ATOM     18  O   UNL     1       6.642  -4.518   1.258  0.00  0.00    -0.278 OA
ATOM     19  H   UNL     1       3.883  -4.554  -0.124  0.00  0.00    +0.149 HD
BRANCH  17  20
ATOM     20  C   UNL     1       5.360  -6.468   0.906  0.00  0.00    +0.021 C 
ATOM     21  C   UNL     1       4.421  -6.753   2.079  0.00  0.00    +0.028 C 
ATOM     22  C   UNL     1       4.352  -8.237   2.334  0.00  0.00    -0.047 A 
ATOM     23  C   UNL     1       3.308  -8.729   3.102  0.00  0.00    +0.004 A 
ATOM     24  C   UNL     1       3.209 -10.081   3.363  0.00  0.00    +0.000 A 
ATOM     25  C   UNL     1       4.158 -10.949   2.856  0.00  0.00    +0.000 A 
ATOM     26  C   UNL     1       5.197 -10.461   2.090  0.00  0.00    +0.002 A 
ATOM     27  C   UNL     1       5.296  -9.103   1.825  0.00  0.00    -0.061 A 
ATOM     28  C   UNL     1       6.443  -8.620   0.977  0.00  0.00    -0.045 C 
ATOM     29  N   UNL     1       6.634  -7.172   1.142  0.00  0.00    +0.389 N 
ATOM     30  H   UNL     1       6.959  -6.979   2.096  0.00  0.00    -0.084 HD
ATOM     31  H   UNL     1       7.335  -6.842   0.468  0.00  0.00    -0.084 HD
ENDBRANCH  17  20
ENDBRANCH   1  16
BRANCH   1  33
ATOM     32  C   UNL     1       7.124  -3.188  -1.012  0.00  0.00    +0.009 C 
ATOM     33  C   UNL     1       5.790  -2.445  -1.106  0.00  0.00    +0.012 C 
ATOM     34  C   UNL     1       5.032  -2.912  -2.351  0.00  0.00    +0.009 C 
ENDBRANCH   1  33
TORSDOF 5
