REMARK  Name = ZINC59507145
REMARK  6 active torsions:
REMARK  status: ('A' for Active; 'I' for Inactive)
REMARK    1  A    between atoms: C_6  and  C_7
REMARK    2  A    between atoms: N_8  and  N_9
REMARK    3  A    between atoms: C_10  and  C_12
REMARK    4  A    between atoms: C_12  and  S_13
REMARK    5  A    between atoms: S_13  and  C_14
REMARK    6  A    between atoms: C_19  and  N_23
REMARK                            x       y       z     vdW  Elec       q    Type
REMARK                         _______ _______ _______ _____ _____    ______ ____
ROOT
ATOM      1  C   UNL     1      -3.715  -4.901   0.013  0.00  0.00    +0.173 C 
ENDROOT
BRANCH   1   3
ATOM      2  N   UNL     1      -2.444  -2.779   0.011  0.00  0.00    -0.206 N 
ATOM      3  C   UNL     1      -2.422  -4.127   0.004  0.00  0.00    +0.242 C 
ATOM      4  O   UNL     1      -1.362  -4.716  -0.010  0.00  0.00    -0.273 OA
ATOM      5  H   UNL     1      -3.292  -2.308   0.022  0.00  0.00    +0.177 HD
BRANCH   2   7
ATOM      6  C   UNL     1      -1.263  -0.762   0.011  0.00  0.00    +0.138 C 
ATOM      7  N   UNL     1      -1.242  -2.059   0.003  0.00  0.00    -0.188 NA
BRANCH   6  13
ATOM      8  C   UNL     1      -0.017   1.393   0.010  0.00  0.00    +0.011 A 
ATOM      9  C   UNL     1       1.170   2.095   0.002  0.00  0.00    +0.020 A 
ATOM     10  C   UNL     1       2.378   1.419  -0.013  0.00  0.00    +0.041 A 
ATOM     11  C   UNL     1       2.404   0.035  -0.021  0.00  0.00    +0.020 A 
ATOM     12  C   UNL     1       1.225  -0.680  -0.013  0.00  0.00    +0.011 A 
ATOM     13  C   UNL     1       0.002  -0.004   0.002  0.00  0.00    -0.005 A 
ATOM     14 CL   UNL     1       3.868   2.311  -0.024  0.00  0.00    -0.084 Cl
ENDBRANCH   6  13
ENDBRANCH   2   7
ENDBRANCH   1   3
BRANCH   1  15
ATOM     15  S   UNL     1      -3.355  -6.679  -0.001  0.00  0.00    -0.089 S 
BRANCH  15  16
ATOM     16  C   UNL     1      -4.946  -7.436   0.011  0.00  0.00    +0.136 A 
ATOM     17  N   UNL     1      -6.130  -6.866   0.020  0.00  0.00    -0.233 NA
ATOM     18  C   UNL     1      -7.278  -7.579   0.028  0.00  0.00    +0.080 A 
ATOM     19  C   UNL     1      -8.606  -7.094   0.038  0.00  0.00    +0.031 A 
ATOM     20  C   UNL     1      -9.668  -7.961   0.046  0.00  0.00    +0.035 A 
ATOM     21  C   UNL     1      -9.482  -9.335   0.044  0.00  0.00    +0.127 A 
ATOM     22  C   UNL     1      -8.196  -9.844   0.034  0.00  0.00    +0.050 A 
ATOM     23  C   UNL     1      -7.127  -8.984   0.026  0.00  0.00    +0.042 A 
ATOM     24  S   UNL     1      -5.360  -9.175   0.006  0.00  0.00    -0.061 S 
BRANCH  21  25
ATOM     25  N   UNL     1     -10.647 -10.248   0.054  0.00  0.00    +0.056 N 
ATOM     26  O   UNL     1     -11.768  -9.796   0.064  0.00  0.00    -0.126 OA
ATOM     27  O   UNL     1     -10.477 -11.445   0.052  0.00  0.00    -0.126 OA
ENDBRANCH  21  25
ENDBRANCH  15  16
ENDBRANCH   1  15
TORSDOF 6
