REMARK  Name = ZINC63696036
REMARK  7 active torsions:
REMARK  status: ('A' for Active; 'I' for Inactive)
REMARK    1  A    between atoms: C_1  and  N_2
REMARK    2  A    between atoms: N_2  and  C_3
REMARK    3  A    between atoms: N_2  and  C_4
REMARK    4  A    between atoms: C_7  and  C_10
REMARK    5  A    between atoms: C_10  and  N_11
REMARK    6  A    between atoms: C_12  and  C_14
REMARK    7  A    between atoms: N_19  and  C_21
REMARK                            x       y       z     vdW  Elec       q    Type
REMARK                         _______ _______ _______ _____ _____    ______ ____
ROOT
ATOM      1  C   UNL     1      -3.057  -3.990  -6.915  0.00  0.00    +0.089 C 
ATOM      2  C   UNL     1      -3.764  -4.831  -5.849  0.00  0.00    +0.015 C 
ATOM      3  C   UNL     1      -5.187  -5.144  -6.317  0.00  0.00    +0.016 C 
ATOM      4  C   UNL     1      -5.128  -5.871  -7.663  0.00  0.00    +0.088 C 
ATOM      5  N   UNL     1      -4.444  -5.025  -8.649  0.00  0.00    -0.265 NA
ATOM      6  C   UNL     1      -3.060  -4.749  -8.243  0.00  0.00    +0.100 C 
ENDROOT
BRANCH   5   7
ATOM      7  C   UNL     1      -4.491  -5.631  -9.986  0.00  0.00    +0.252 C 
ATOM      8  N   UNL     1      -5.885  -5.830 -10.401  0.00  0.00    -0.351 N 
ATOM      9  C   UNL     1      -6.059  -7.106 -10.589  0.00  0.00    +0.061 A 
ATOM     10  C   UNL     1      -7.220  -7.905 -11.004  0.00  0.00    +0.029 A 
ATOM     11  C   UNL     1      -7.101  -9.243 -11.116  0.00  0.00    +0.022 A 
ATOM     12  C   UNL     1      -5.897  -9.922 -10.849  0.00  0.00    +0.043 A 
ATOM     13  C   UNL     1      -4.773  -9.284 -10.462  0.00  0.00    +0.047 A 
ATOM     14  C   UNL     1      -4.785  -7.824 -10.308  0.00  0.00    +0.063 A 
ATOM     15  N   UNL     1      -3.872  -6.962  -9.957  0.00  0.00    -0.351 N 
ATOM     16 CL   UNL     1      -5.858 -11.649 -11.025  0.00  0.00    -0.083 Cl
ATOM     17  H   UNL     1      -6.554  -5.137 -10.514  0.00  0.00    +0.163 HD
ATOM     18  H   UNL     1      -2.953  -7.163  -9.721  0.00  0.00    +0.163 HD
ENDBRANCH   5   7
BRANCH   1  20
ATOM     19  N   UNL     1      -1.388  -3.068  -5.339  0.00  0.00    -0.311 N 
ATOM     20  C   UNL     1      -1.636  -3.727  -6.488  0.00  0.00    +0.218 C 
ATOM     21  O   UNL     1      -0.715  -4.108  -7.179  0.00  0.00    -0.275 OA
ATOM     22  H   UNL     1      -2.125  -2.763  -4.786  0.00  0.00    +0.149 HD
BRANCH  19  23
ATOM     23  C   UNL     1      -0.006  -2.813  -4.924  0.00  0.00    +0.139 C 
BRANCH  23  27
ATOM     24  C   UNL     1       0.000  -0.696  -1.211  0.00  0.00    +0.029 A 
ATOM     25  C   UNL     1       0.013  -2.085  -1.221  0.00  0.00    +0.023 A 
ATOM     26  C   UNL     1       0.010  -2.766  -2.422  0.00  0.00    +0.007 A 
ATOM     27  C   UNL     1      -0.005  -2.066  -3.615  0.00  0.00    -0.030 A 
ATOM     28  C   UNL     1      -0.018  -0.684  -3.609  0.00  0.00    +0.007 A 
ATOM     29  C   UNL     1      -0.021   0.004  -2.411  0.00  0.00    +0.023 A 
BRANCH  24  31
ATOM     30  C   UNL     1      -0.018   1.461   0.010  0.00  0.00    +0.129 C 
ATOM     31  N   UNL     1       0.002  -0.004   0.002  0.00  0.00    -0.336 N 
ATOM     32  C   UNL     1       0.024  -0.743   1.267  0.00  0.00    +0.129 C 
ENDBRANCH  24  31
ENDBRANCH  23  27
ENDBRANCH  19  23
ENDBRANCH   1  20
TORSDOF 5
