REMARK  Name = ZINC29398640
REMARK  14 active torsions:
REMARK  status: ('A' for Active; 'I' for Inactive)
REMARK    1  A    between atoms: C_1  and  C_2
REMARK    2  A    between atoms: C_2  and  C_3
REMARK    3  A    between atoms: C_2  and  N_4
REMARK    4  A    between atoms: C_5  and  O_7
REMARK    5  A    between atoms: O_7  and  C_8
REMARK    6  A    between atoms: C_8  and  C_9
REMARK    7  A    between atoms: C_12  and  C_22
REMARK    8  A    between atoms: C_13  and  C_14
REMARK    9  A    between atoms: C_14  and  O_15
REMARK   10  A    between atoms: O_15  and  C_16
REMARK   11  A    between atoms: N_18  and  C_19
REMARK   12  A    between atoms: C_19  and  C_20
REMARK   13  A    between atoms: C_19  and  C_21
REMARK   14  A    between atoms: N_26  and  C_28
REMARK                            x       y       z     vdW  Elec       q    Type
REMARK                         _______ _______ _______ _____ _____    ______ ____
ROOT
ATOM      1  C   UNL     1       0.551  -3.404   4.546  0.00  0.00    +0.017 A 
ATOM      2  C   UNL     1      -0.401  -4.239   4.067  0.00  0.00    +0.026 A 
ATOM      3  N   UNL     1      -0.708  -3.862   2.795  0.00  0.00    -0.343 N 
ATOM      4  C   UNL     1       0.062  -2.769   2.468  0.00  0.00    +0.058 A 
ATOM      5  C   UNL     1       0.852  -2.476   3.537  0.00  0.00    +0.022 A 
ATOM      6  C   UNL     1      -1.739  -4.745   2.224  0.00  0.00    +0.122 C 
ATOM      7  C   UNL     1      -2.380  -5.468   3.427  0.00  0.00    +0.028 C 
ATOM      8  C   UNL     1      -1.236  -5.439   4.465  0.00  0.00    +0.055 C 
ENDROOT
BRANCH   4   9
ATOM      9  C   UNL     1       0.040  -2.045   1.179  0.00  0.00    +0.015 A 
ATOM     10  C   UNL     1       0.038  -2.747  -0.032  0.00  0.00    +0.014 A 
ATOM     11  C   UNL     1       0.017  -2.023  -1.210  0.00  0.00    +0.039 A 
ATOM     12  C   UNL     1      -0.006  -0.639  -1.155  0.00  0.00    +0.109 A 
ATOM     13  N   UNL     1       0.002  -0.004   0.002  0.00  0.00    -0.341 N 
ATOM     14  C   UNL     1       0.022  -0.650   1.150  0.00  0.00    +0.096 A 
ATOM     15  C   UNL     1      -0.018   1.461   0.010  0.00  0.00    +0.149 C 
ATOM     16 CL   UNL     1      -0.038   0.274  -2.631  0.00  0.00    -0.064 Cl
ENDBRANCH   4   9
BRANCH   1  17
ATOM     17  C   UNL     1       1.181  -3.465   5.914  0.00  0.00    +0.271 C 
BRANCH  17  18
ATOM     18  O   UNL     1       2.356  -4.317   5.869  0.00  0.00    -0.446 OA
BRANCH  18  20
ATOM     19  N   UNL     1       4.138  -5.256   7.045  0.00  0.00    -0.279 N 
ATOM     20  C   UNL     1       3.038  -4.478   7.018  0.00  0.00    +0.401 C 
ATOM     21  O   UNL     1       2.663  -3.921   8.031  0.00  0.00    -0.226 OA
ATOM     22  H   UNL     1       4.478  -5.760   6.128  0.00  0.00    +0.152 HD
BRANCH  19  24
ATOM     23  C   UNL     1       4.244  -6.556   9.114  0.00  0.00    +0.027 C 
ATOM     24  C   UNL     1       4.881  -5.431   8.296  0.00  0.00    +0.070 C 
ATOM     25  C   UNL     1       6.334  -5.790   7.979  0.00  0.00    +0.027 C 
ENDBRANCH  19  24
ENDBRANCH  18  20
ENDBRANCH  17  18
ENDBRANCH   1  17
BRANCH   5  26
ATOM     26  C   UNL     1       1.859  -1.359   3.622  0.00  0.00    +0.271 C 
BRANCH  26  27
ATOM     27  O   UNL     1       1.215  -0.164   4.136  0.00  0.00    -0.446 OA
BRANCH  27  28
ATOM     28  C   UNL     1       1.983   0.933   4.274  0.00  0.00    +0.401 C 
ATOM     29  O   UNL     1       3.159   0.893   3.974  0.00  0.00    -0.226 OA
ATOM     30  N   UNL     1       1.446   2.076   4.746  0.00  0.00    -0.279 N 
ATOM     31  H   UNL     1       0.381   2.113   5.018  0.00  0.00    +0.152 HD
BRANCH  30  32
ATOM     32  C   UNL     1       2.282   3.270   4.897  0.00  0.00    +0.070 C 
ATOM     33  C   UNL     1       2.344   4.021   3.565  0.00  0.00    +0.027 C 
ATOM     34  C   UNL     1       1.680   4.181   5.968  0.00  0.00    +0.027 C 
ENDBRANCH  30  32
ENDBRANCH  27  28
ENDBRANCH  26  27
ENDBRANCH   5  26
TORSDOF 9
