REMARK  Name = ZINC63582761
REMARK  6 active torsions:
REMARK  status: ('A' for Active; 'I' for Inactive)
REMARK    1  A    between atoms: C_1  and  C_2
REMARK    2  A    between atoms: C_5  and  N_23
REMARK    3  A    between atoms: C_7  and  C_8
REMARK    4  A    between atoms: C_14  and  S_16
REMARK    5  A    between atoms: S_16  and  C_17
REMARK    6  A    between atoms: C_17  and  C_18
REMARK                            x       y       z     vdW  Elec       q    Type
REMARK                         _______ _______ _______ _____ _____    ______ ____
ROOT
ATOM      1  C   UNL     1       0.242   0.021   2.481  0.00  0.00    +0.250 C 
ATOM      2  O   UNL     1       0.135   1.232   2.502  0.00  0.00    -0.270 OA
ATOM      3  N   UNL     1       0.465  -0.656   3.624  0.00  0.00    -0.259 N 
ATOM      4  C   UNL     1       0.573   0.030   4.830  0.00  0.00    +0.189 A 
ATOM      5  N   UNL     1       0.484   1.326   5.082  0.00  0.00    -0.125 NA
ATOM      6  N   UNL     1       0.606   1.791   6.248  0.00  0.00    -0.133 NA
ATOM      7  C   UNL     1       0.831   1.009   7.293  0.00  0.00    +0.160 A 
ATOM      8  S   UNL     1       0.862  -0.589   6.485  0.00  0.00    -0.024 S 
ATOM      9  H   UNL     1       0.550  -1.622   3.607  0.00  0.00    +0.157 HD
ENDROOT
BRANCH   1  16
ATOM     10  C   UNL     1      -0.513   1.452   0.082  0.00  0.00    +0.044 C 
ATOM     11  C   UNL     1      -0.235  -0.028   0.036  0.00  0.00    -0.038 A 
ATOM     12  C   UNL     1      -0.335  -0.714  -1.157  0.00  0.00    +0.006 A 
ATOM     13  C   UNL     1      -0.080  -2.073  -1.200  0.00  0.00    +0.033 A 
ATOM     14  C   UNL     1       0.275  -2.754  -0.049  0.00  0.00    +0.127 A 
ATOM     15  C   UNL     1       0.378  -2.081   1.150  0.00  0.00    +0.046 A 
ATOM     16  C   UNL     1       0.128  -0.708   1.200  0.00  0.00    +0.042 A 
BRANCH  14  17
ATOM     17  N   UNL     1       0.544  -4.209  -0.105  0.00  0.00    +0.056 N 
ATOM     18  O   UNL     1       0.454  -4.800  -1.155  0.00  0.00    -0.126 OA
ATOM     19  O   UNL     1       0.854  -4.805   0.900  0.00  0.00    -0.126 OA
ENDBRANCH  14  17
ENDBRANCH   1  16
BRANCH   7  20
ATOM     20  S   UNL     1       1.036   1.422   8.994  0.00  0.00    -0.092 S 
BRANCH  20  21
ATOM     21  C   UNL     1       0.867   3.228   9.030  0.00  0.00    +0.118 C 
BRANCH  21  22
ATOM     22  C   UNL     1       1.023   3.718  10.447  0.00  0.00    -0.000 A 
ATOM     23  C   UNL     1       2.148   4.101  11.098  0.00  0.00    +0.012 A 
ATOM     24  C   UNL     1       2.052   4.521  12.412  0.00  0.00    +0.008 A 
ATOM     25  C   UNL     1       0.836   4.538  13.009  0.00  0.00    +0.045 A 
ATOM     26  S   UNL     1      -0.227   3.954  11.699  0.00  0.00    -0.101 S 
ENDBRANCH  21  22
ENDBRANCH  20  21
ENDBRANCH   7  20
TORSDOF 5
