REMARK  Name = ZINC23281954
REMARK  9 active torsions:
REMARK  status: ('A' for Active; 'I' for Inactive)
REMARK    1  A    between atoms: C_1  and  C_2
REMARK    2  A    between atoms: C_2  and  C_4
REMARK    3  A    between atoms: C_2  and  N_14
REMARK    4  A    between atoms: C_15  and  C_17
REMARK    5  A    between atoms: C_17  and  C_19
REMARK    6  A    between atoms: C_17  and  S_20
REMARK    7  A    between atoms: S_20  and  C_21
REMARK    8  A    between atoms: C_24  and  C_27
REMARK    9  A    between atoms: N_25  and  N_26
REMARK                            x       y       z     vdW  Elec       q    Type
REMARK                         _______ _______ _______ _____ _____    ______ ____
ROOT
ATOM      1  N   UNL     1       5.822   4.278  -0.402  0.00  0.00    -0.308 N 
ATOM      2  C   UNL     1       5.421   4.169   0.880  0.00  0.00    +0.227 C 
ATOM      3  O   UNL     1       6.210   4.362   1.781  0.00  0.00    -0.275 OA
ATOM      4  H   UNL     1       5.106   4.103  -1.219  0.00  0.00    +0.149 HD
ENDROOT
BRANCH   1   6
ATOM      5  C   UNL     1       7.582   4.086  -2.089  0.00  0.00    +0.033 C 
ATOM      6  C   UNL     1       7.210   4.630  -0.708  0.00  0.00    +0.101 C 
BRANCH   6   7
ATOM      7  C   UNL     1       7.362   6.129  -0.701  0.00  0.00    -0.020 A 
ATOM      8  C   UNL     1       6.276   6.927  -0.891  0.00  0.00    +0.006 A 
ATOM      9  C   UNL     1       6.395   8.316  -0.883  0.00  0.00    +0.001 A 
ATOM     10  C   UNL     1       7.604   8.914  -0.696  0.00  0.00    +0.008 A 
ATOM     11  C   UNL     1       8.748   8.122  -0.502  0.00  0.00    -0.018 A 
ATOM     12  C   UNL     1       8.626   6.710  -0.505  0.00  0.00    -0.013 A 
ATOM     13  C   UNL     1       9.771   5.919  -0.311  0.00  0.00    +0.009 A 
ATOM     14  C   UNL     1      10.979   6.517  -0.123  0.00  0.00    +0.001 A 
ATOM     15  C   UNL     1      11.100   7.906  -0.120  0.00  0.00    +0.001 A 
ATOM     16  C   UNL     1      10.013   8.704  -0.305  0.00  0.00    +0.008 A 
ENDBRANCH   6   7
ENDBRANCH   1   6
BRANCH   2  17
ATOM     17  C   UNL     1       3.992   3.807   1.195  0.00  0.00    +0.137 C 
ATOM     18  C   UNL     1       3.111   5.051   1.065  0.00  0.00    +0.029 C 
BRANCH  17  19
ATOM     19  S   UNL     1       3.890   3.169   2.886  0.00  0.00    -0.072 S 
BRANCH  19  20
ATOM     20  C   UNL     1       2.194   2.696   2.933  0.00  0.00    +0.209 A 
ATOM     21  N   UNL     1       1.323   2.814   1.957  0.00  0.00    -0.121 NA
ATOM     22  N   UNL     1       0.179   2.369   2.336  0.00  0.00    -0.123 NA
ATOM     23  C   UNL     1       0.250   1.944   3.566  0.00  0.00    +0.255 A 
ATOM     24  N   UNL     1       1.535   2.137   3.990  0.00  0.00    -0.220 N 
BRANCH  23  25
ATOM     25  C   UNL     1      -0.877   1.349   4.372  0.00  0.00    +0.454 C 
ATOM     26  F   UNL     1      -1.928   1.000   3.517  0.00  0.00    -0.163 F 
ATOM     27  F   UNL     1      -0.420   0.208   5.039  0.00  0.00    -0.163 F 
ATOM     28  F   UNL     1      -1.327   2.287   5.306  0.00  0.00    -0.163 F 
ENDBRANCH  23  25
BRANCH  24  29
ATOM     29  N   UNL     1       2.054   1.834   5.217  0.00  0.00    -0.295 N 
ATOM     30  H   UNL     1       1.412   1.382   5.989  0.00  0.00    +0.163 HD
ATOM     31  H   UNL     1       3.112   2.041   5.434  0.00  0.00    +0.163 HD
ENDBRANCH  24  29
ENDBRANCH  19  20
ENDBRANCH  17  19
ENDBRANCH   2  17
TORSDOF 7
