REMARK  Name = ZINC63557898
REMARK  10 active torsions:
REMARK  status: ('A' for Active; 'I' for Inactive)
REMARK    1  A    between atoms: C_1  and  C_2
REMARK    2  A    between atoms: C_2  and  C_3
REMARK    3  A    between atoms: C_3  and  C_4
REMARK    4  A    between atoms: C_8  and  N_11
REMARK    5  A    between atoms: C_12  and  C_14
REMARK    6  A    between atoms: N_19  and  C_21
REMARK    7  A    between atoms: C_21  and  C_22
REMARK    8  A    between atoms: C_22  and  C_23
REMARK    9  A    between atoms: C_26  and  O_32
REMARK   10  A    between atoms: O_32  and  C_33
REMARK                            x       y       z     vdW  Elec       q    Type
REMARK                         _______ _______ _______ _____ _____    ______ ____
ROOT
ATOM      1  C   UNL     1      -2.437  -7.189   3.691  0.00  0.00    +0.101 C 
ATOM      2  C   UNL     1      -1.853  -8.109   2.594  0.00  0.00    +0.110 C 
ATOM      3  C   UNL     1      -2.364  -9.486   2.954  0.00  0.00    +0.216 C 
ATOM      4  O   UNL     1      -1.919 -10.528   2.519  0.00  0.00    -0.276 OA
ATOM      5  N   UNL     1      -3.383  -9.389   3.824  0.00  0.00    -0.300 N 
ATOM      6  C   UNL     1      -3.681  -7.987   4.142  0.00  0.00    +0.121 C 
ENDROOT
BRANCH   1   8
ATOM      7  N   UNL     1      -1.890  -5.032   2.613  0.00  0.00    -0.290 N 
ATOM      8  C   UNL     1      -2.832  -5.852   3.120  0.00  0.00    +0.220 C 
ATOM      9  O   UNL     1      -3.996  -5.513   3.117  0.00  0.00    -0.275 OA
ATOM     10  H   UNL     1      -0.959  -5.302   2.615  0.00  0.00    +0.151 HD
BRANCH   7  14
ATOM     11  C   UNL     1      -1.413  -2.063   0.004  0.00  0.00    +0.130 C 
ATOM     12  N   UNL     1      -2.795  -2.617  -0.027  0.00  0.00    -0.241 NA
ATOM     13  N   UNL     1      -2.891  -3.876   0.702  0.00  0.00    -0.227 NA
ATOM     14  C   UNL     1      -2.273  -3.731   2.058  0.00  0.00    +0.216 C 
ATOM     15  S   UNL     1      -0.791  -2.726   1.608  0.00  0.00    -0.102 S 
ATOM     16  H   UNL     1      -3.121  -2.723  -0.976  0.00  0.00    +0.142 HD
ATOM     17  H   UNL     1      -2.457  -4.627   0.186  0.00  0.00    +0.143 HD
BRANCH  11  18
ATOM     18  C   UNL     1      -1.433  -0.534   0.013  0.00  0.00    +0.031 C 
BRANCH  18  20
ATOM     19  C   UNL     1      -0.019   1.526   0.010  0.00  0.00    +0.004 C 
ATOM     20  C   UNL     1       0.002  -0.004   0.002  0.00  0.00    -0.001 C 
ENDBRANCH  18  20
ENDBRANCH  11  18
ENDBRANCH   7  14
ENDBRANCH   1   8
BRANCH   5  21
ATOM     21  C   UNL     1      -4.104 -10.534   4.386  0.00  0.00    +0.112 C 
BRANCH  21  22
ATOM     22  C   UNL     1      -3.421 -10.982   5.680  0.00  0.00    +0.052 C 
BRANCH  22  23
ATOM     23  C   UNL     1      -4.163 -12.160   6.257  0.00  0.00    -0.040 C 
ATOM     24  C   UNL     1      -3.871 -13.469   6.082  0.00  0.00    +0.002 A 
ATOM     25  C   UNL     1      -2.819 -14.163   5.331  0.00  0.00    +0.055 A 
ATOM     26  C   UNL     1      -2.776 -15.517   5.338  0.00  0.00    +0.121 A 
ATOM     27  C   UNL     1      -3.711 -16.293   6.045  0.00  0.00    +0.047 A 
ATOM     28  C   UNL     1      -4.714 -15.747   6.764  0.00  0.00    +0.029 A 
ATOM     29  C   UNL     1      -4.855 -14.289   6.826  0.00  0.00    +0.043 A 
ATOM     30  N   UNL     1      -5.720 -13.517   7.436  0.00  0.00    -0.380 N 
ATOM     31  C   UNL     1      -5.379 -12.118   7.154  0.00  0.00    +0.144 C 
ATOM     32  H   UNL     1      -6.459 -13.820   7.986  0.00  0.00    +0.160 HD
BRANCH  26  33
ATOM     33  O   UNL     1      -1.796 -16.146   4.638  0.00  0.00    -0.495 OA
ATOM     34  C   UNL     1      -1.788 -17.574   4.673  0.00  0.00    +0.277 C 
ENDBRANCH  26  33
ENDBRANCH  22  23
ENDBRANCH  21  22
ENDBRANCH   5  21
TORSDOF 8
