REMARK  Name = ZINC13590929
REMARK  6 active torsions:
REMARK  status: ('A' for Active; 'I' for Inactive)
REMARK    1  A    between atoms: C_1  and  C_2
REMARK    2  A    between atoms: C_5  and  N_8
REMARK    3  A    between atoms: C_12  and  C_13
REMARK    4  A    between atoms: C_16  and  C_18
REMARK    5  A    between atoms: C_21  and  S_24
REMARK    6  A    between atoms: S_24  and  N_27
REMARK                            x       y       z     vdW  Elec       q    Type
REMARK                         _______ _______ _______ _____ _____    ______ ____
ROOT
ATOM      1  C   UNL     1      -0.315   0.650  -2.040  0.00  0.00    +0.130 A 
ATOM      2  C   UNL     1       0.635   1.143  -2.918  0.00  0.00    +0.050 A 
ATOM      3  C   UNL     1       0.119   2.329  -3.444  0.00  0.00    +0.050 A 
ATOM      4  C   UNL     1      -1.111   2.520  -2.879  0.00  0.00    +0.136 A 
ATOM      5  O   UNL     1      -1.364   1.499  -2.040  0.00  0.00    -0.455 OA
ENDROOT
BRANCH   1  10
ATOM      6  N   UNL     1      -3.482  -1.114   0.262  0.00  0.00    -0.224 N 
ATOM      7  C   UNL     1      -2.623  -0.511  -0.541  0.00  0.00    +0.263 C 
ATOM      8  O   UNL     1      -2.972   0.417  -1.249  0.00  0.00    -0.269 OA
ATOM      9  C   UNL     1      -1.274  -0.980  -0.555  0.00  0.00    +0.080 C 
ATOM     10  C   UNL     1      -0.208  -0.536  -1.283  0.00  0.00    +0.066 C 
ATOM     11  S   UNL     1      -1.364  -2.310   0.636  0.00  0.00    -0.061 S 
ATOM     12  C   UNL     1      -3.095  -2.144   1.047  0.00  0.00    +0.125 C 
ATOM     13  S   UNL     1      -4.028  -3.062   2.151  0.00  0.00    -0.027 S 
BRANCH   6  18
ATOM     14  C   UNL     1      -8.876   0.642   0.418  0.00  0.00    +0.044 C 
ATOM     15  C   UNL     1      -7.444   0.176   0.377  0.00  0.00    -0.050 A 
ATOM     16  C   UNL     1      -7.049  -0.758  -0.563  0.00  0.00    +0.005 A 
ATOM     17  C   UNL     1      -5.737  -1.188  -0.604  0.00  0.00    +0.024 A 
ATOM     18  C   UNL     1      -4.814  -0.680   0.300  0.00  0.00    +0.043 A 
ATOM     19  C   UNL     1      -5.214   0.255   1.246  0.00  0.00    +0.024 A 
ATOM     20  C   UNL     1      -6.526   0.684   1.278  0.00  0.00    +0.005 A 
ENDBRANCH   6  18
ENDBRANCH   1  10
BRANCH   4  21
ATOM     21  C   UNL     1      -2.015   3.655  -3.150  0.00  0.00    +0.017 A 
ATOM     22  C   UNL     1      -1.635   4.656  -4.048  0.00  0.00    +0.013 A 
ATOM     23  C   UNL     1      -2.487   5.710  -4.300  0.00  0.00    +0.029 A 
ATOM     24  C   UNL     1      -3.711   5.784  -3.659  0.00  0.00    +0.105 A 
ATOM     25  C   UNL     1      -4.091   4.799  -2.764  0.00  0.00    +0.029 A 
ATOM     26  C   UNL     1      -3.252   3.736  -2.506  0.00  0.00    +0.013 A 
BRANCH  24  27
ATOM     27  S   UNL     1      -4.790   7.139  -3.982  0.00  0.00    +0.056 S 
ATOM     28  O   UNL     1      -4.440   7.640  -5.264  0.00  0.00    -0.153 OA
ATOM     29  O   UNL     1      -6.104   6.695  -3.670  0.00  0.00    -0.153 OA
BRANCH  27  30
ATOM     30  N   UNL     1      -4.422   8.329  -2.892  0.00  0.00    -0.204 NA
ATOM     31  H   UNL     1      -4.550   9.261  -3.129  0.00  0.00    +0.144 HD
ATOM     32  H   UNL     1      -4.078   8.095  -2.015  0.00  0.00    +0.144 HD
ENDBRANCH  27  30
ENDBRANCH  24  27
ENDBRANCH   4  21
TORSDOF 5
