REMARK  Name = ZINC38577229
REMARK  8 active torsions:
REMARK  status: ('A' for Active; 'I' for Inactive)
REMARK    1  A    between atoms: C_1  and  C_2
REMARK    2  A    between atoms: C_5  and  C_9
REMARK    3  A    between atoms: C_6  and  O_8
REMARK    4  A    between atoms: C_11  and  C_15
REMARK    5  A    between atoms: N_17  and  C_18
REMARK    6  A    between atoms: C_20  and  C_28
REMARK    7  A    between atoms: N_30  and  C_31
REMARK    8  A    between atoms: C_31  and  C_32
REMARK                            x       y       z     vdW  Elec       q    Type
REMARK                         _______ _______ _______ _____ _____    ______ ____
ROOT
ATOM      1  C   UNL     1       1.333  -7.176   0.946  0.00  0.00    +0.244 C 
ATOM      2  O   UNL     1       2.271  -7.279   0.183  0.00  0.00    -0.273 OA
ATOM      3  N   UNL     1       1.407  -7.712   2.180  0.00  0.00    -0.297 N 
ATOM      4  H   UNL     1       0.657  -7.630   2.790  0.00  0.00    +0.150 HD
ENDROOT
BRANCH   3   5
ATOM      5  C   UNL     1       2.620  -8.418   2.601  0.00  0.00    +0.167 C 
ATOM      6  C   UNL     1       2.987  -8.070   4.032  0.00  0.00    +0.045 C 
ATOM      7  C   UNL     1       2.735  -8.947   4.985  0.00  0.00    -0.046 C 
ATOM      8  C   UNL     1       3.079  -9.195   6.452  0.00  0.00    +0.032 C 
ATOM      9  C   UNL     1       2.873 -10.704   6.711  0.00  0.00    +0.006 C 
ATOM     10  C   UNL     1       2.785 -11.325   5.286  0.00  0.00    +0.019 C 
ATOM     11  C   UNL     1       1.997 -10.220   4.559  0.00  0.00    +0.075 C 
ATOM     12  S   UNL     1       2.316 -10.234   2.752  0.00  0.00    -0.126 S 
BRANCH   6  13
ATOM     13  C   UNL     1       3.613  -6.778   4.351  0.00  0.00    +0.243 C 
ATOM     14  O   UNL     1       3.903  -6.510   5.501  0.00  0.00    -0.270 OA
ATOM     15  N   UNL     1       3.865  -5.891   3.368  0.00  0.00    -0.304 N 
ATOM     16  H   UNL     1       3.634  -6.104   2.451  0.00  0.00    +0.149 HD
BRANCH  15  17
ATOM     17  C   UNL     1       4.489  -4.604   3.686  0.00  0.00    +0.179 C 
BRANCH  17  18
ATOM     18  C   UNL     1       4.660  -3.803   2.421  0.00  0.00    +0.122 A 
ATOM     19  C   UNL     1       3.765  -2.938   1.909  0.00  0.00    +0.046 A 
ATOM     20  C   UNL     1       4.332  -2.416   0.724  0.00  0.00    +0.041 A 
ATOM     21  C   UNL     1       5.539  -2.992   0.582  0.00  0.00    +0.195 A 
ATOM     22  O   UNL     1       5.735  -3.826   1.616  0.00  0.00    -0.466 OA
ENDBRANCH  17  18
ENDBRANCH  15  17
ENDBRANCH   6  13
ENDBRANCH   3   5
BRANCH   1  25
ATOM     23  C   UNL     1       0.058  -4.259  -0.033  0.00  0.00    +0.095 C 
ATOM     24  C   UNL     1       0.069  -5.037   1.067  0.00  0.00    +0.041 C 
ATOM     25  C   UNL     1       0.086  -6.450   0.512  0.00  0.00    +0.238 C 
ATOM     26  N   UNL     1       0.083  -6.239  -0.945  0.00  0.00    -0.170 NA
ATOM     27  N   UNL     1       0.062  -5.025  -1.156  0.00  0.00    -0.153 NA
BRANCH  23  32
ATOM     28  C   UNL     1      -0.018   1.503   0.010  0.00  0.00    +0.044 C 
ATOM     29  C   UNL     1       0.002  -0.004   0.002  0.00  0.00    -0.047 A 
ATOM     30  C   UNL     1       0.006  -0.686  -1.202  0.00  0.00    +0.004 A 
ATOM     31  C   UNL     1       0.024  -2.066  -1.219  0.00  0.00    +0.014 A 
ATOM     32  C   UNL     1       0.039  -2.776  -0.021  0.00  0.00    +0.043 A 
ATOM     33  C   UNL     1       0.036  -2.084   1.194  0.00  0.00    +0.126 A 
ATOM     34  C   UNL     1       0.023  -0.698   1.197  0.00  0.00    +0.049 A 
BRANCH  33  35
ATOM     35  O   UNL     1       0.051  -2.767   2.368  0.00  0.00    -0.506 OA
ATOM     36  H   UNL     1       0.939  -2.954   2.704  0.00  0.00    +0.292 HD
ENDBRANCH  33  35
ENDBRANCH  23  32
ENDBRANCH   1  25
TORSDOF 7
