REMARK  Name = ZINC04901252
REMARK  5 active torsions:
REMARK  status: ('A' for Active; 'I' for Inactive)
REMARK    1  A    between atoms: C_3  and  N_24
REMARK    2  A    between atoms: C_4  and  C_10
REMARK    3  A    between atoms: C_6  and  N_7
REMARK    4  A    between atoms: N_12  and  C_13
REMARK    5  A    between atoms: C_13  and  C_14
REMARK                            x       y       z     vdW  Elec       q    Type
REMARK                         _______ _______ _______ _____ _____    ______ ____
ROOT
ATOM      1  C   UNL     1      -1.217   1.749   0.017  0.00  0.00    +0.034 A 
ATOM      2  C   UNL     1      -0.013   1.076   0.008  0.00  0.00    +0.026 A 
ATOM      3  C   UNL     1       1.181   1.786   0.000  0.00  0.00    +0.042 A 
ATOM      4  C   UNL     1       1.155   3.189   0.008  0.00  0.00    +0.060 A 
ATOM      5  C   UNL     1      -0.073   3.856   0.024  0.00  0.00    +0.047 A 
ATOM      6  C   UNL     1      -1.247   3.134   0.031  0.00  0.00    +0.127 A 
ENDROOT
BRANCH   3   7
ATOM      7  N   UNL     1       2.395   1.111  -0.015  0.00  0.00    -0.325 N 
ATOM      8  C   UNL     1       2.547   0.329  -1.251  0.00  0.00    +0.133 C 
ATOM      9  C   UNL     1       3.920  -0.349  -1.254  0.00  0.00    +0.178 C 
ATOM     10  O   UNL     1       4.048  -1.158  -0.082  0.00  0.00    -0.377 OA
ATOM     11  C   UNL     1       3.906  -0.429   1.140  0.00  0.00    +0.178 C 
ATOM     12  C   UNL     1       2.533   0.248   1.167  0.00  0.00    +0.133 C 
ENDBRANCH   3   7
BRANCH   4  13
ATOM     13  C   UNL     1       2.414   3.956  -0.000  0.00  0.00    +0.246 C 
ATOM     14  O   UNL     1       3.481   3.372  -0.014  0.00  0.00    -0.270 OA
ATOM     15  N   UNL     1       2.384   5.303   0.007  0.00  0.00    -0.311 N 
ATOM     16  H   UNL     1       1.533   5.769   0.018  0.00  0.00    +0.149 HD
BRANCH  15  17
ATOM     17  C   UNL     1       3.635   6.064  -0.001  0.00  0.00    +0.111 C 
BRANCH  17  18
ATOM     18  C   UNL     1       3.321   7.562   0.010  0.00  0.00    -0.013 C 
ATOM     19  C   UNL     1       2.499   7.920  -1.229  0.00  0.00    +0.012 C 
ATOM     20  C   UNL     1       2.185   9.417  -1.218  0.00  0.00    -0.010 C 
ATOM     21  C   UNL     1       3.492  10.212  -1.227  0.00  0.00    +0.007 C 
ATOM     22  C   UNL     1       4.315   9.854   0.013  0.00  0.00    -0.010 C 
ATOM     23  C   UNL     1       4.629   8.357   0.001  0.00  0.00    +0.012 C 
ATOM     24  C   UNL     1       3.517  10.199   1.272  0.00  0.00    +0.007 C 
ATOM     25  C   UNL     1       2.210   9.404   1.280  0.00  0.00    -0.010 C 
ATOM     26  C   UNL     1       1.387   9.762   0.041  0.00  0.00    +0.007 C 
ATOM     27  C   UNL     1       2.523   7.906   1.269  0.00  0.00    +0.012 C 
ENDBRANCH  17  18
ENDBRANCH  15  17
ENDBRANCH   4  13
BRANCH   6  28
ATOM     28  N   UNL     1      -2.547   3.842   0.046  0.00  0.00    +0.056 N 
ATOM     29  O   UNL     1      -2.577   5.060   0.053  0.00  0.00    -0.126 OA
ATOM     30  O   UNL     1      -3.586   3.208   0.053  0.00  0.00    -0.126 OA
ENDBRANCH   6  28
TORSDOF 5
