REMARK  Name = ZINC67102926
REMARK  8 active torsions:
REMARK  status: ('A' for Active; 'I' for Inactive)
REMARK    1  A    between atoms: C_1  and  C_2
REMARK    2  A    between atoms: C_6  and  C_8
REMARK    3  A    between atoms: N_10  and  N_11
REMARK    4  A    between atoms: N_14  and  C_15
REMARK    5  A    between atoms: C_15  and  C_17
REMARK    6  A    between atoms: C_15  and  C_18
REMARK    7  A    between atoms: C_21  and  N_24
REMARK    8  A    between atoms: C_25  and  C_31
REMARK                            x       y       z     vdW  Elec       q    Type
REMARK                         _______ _______ _______ _____ _____    ______ ____
ROOT
ATOM      1  N   UNL     1       0.134  -4.896   3.626  0.00  0.00    -0.218 N 
ATOM      2  C   UNL     1       0.130  -6.243   3.623  0.00  0.00    +0.316 C 
ATOM      3  O   UNL     1       0.127  -6.853   4.675  0.00  0.00    -0.251 OA
ATOM      4  N   UNL     1       0.130  -6.915   2.455  0.00  0.00    -0.292 N 
ATOM      5  H   UNL     1       0.134  -4.412   4.467  0.00  0.00    +0.174 HD
ATOM      6  H   UNL     1       0.132  -6.428   1.616  0.00  0.00    +0.151 HD
ENDROOT
BRANCH   1   9
ATOM      7  C   UNL     1       0.141  -2.845   2.416  0.00  0.00    +0.260 C 
ATOM      8  O   UNL     1       0.142  -2.239   3.470  0.00  0.00    -0.269 OA
ATOM      9  N   UNL     1       0.138  -4.193   2.414  0.00  0.00    -0.229 N 
ATOM     10  H   UNL     1       0.137  -4.676   1.573  0.00  0.00    +0.173 HD
BRANCH   7  16
ATOM     11  C   UNL     1       0.155   1.485  -0.064  0.00  0.00    +0.044 C 
ATOM     12  C   UNL     1       0.151  -0.022  -0.061  0.00  0.00    -0.050 A 
ATOM     13  C   UNL     1       0.151  -0.715  -1.258  0.00  0.00    +0.003 A 
ATOM     14  C   UNL     1       0.148  -2.098  -1.265  0.00  0.00    +0.001 A 
ATOM     15  C   UNL     1       0.145  -2.796  -0.074  0.00  0.00    +0.013 A 
ATOM     16  C   UNL     1       0.145  -2.103   1.137  0.00  0.00    +0.038 A 
ATOM     17  C   UNL     1       0.154  -0.708   1.136  0.00  0.00    +0.016 A 
ENDBRANCH   7  16
ENDBRANCH   1   9
BRANCH   4  18
ATOM     18  C   UNL     1       0.126  -8.380   2.452  0.00  0.00    +0.102 C 
ATOM     19  C   UNL     1       1.561  -8.894   2.579  0.00  0.00    +0.033 C 
BRANCH  18  20
ATOM     20  C   UNL     1      -0.474  -8.878   1.163  0.00  0.00    -0.027 A 
ATOM     21  C   UNL     1      -0.173  -8.245  -0.029  0.00  0.00    +0.007 A 
ATOM     22  C   UNL     1      -0.721  -8.700  -1.212  0.00  0.00    +0.024 A 
ATOM     23  C   UNL     1      -1.575  -9.794  -1.205  0.00  0.00    +0.038 A 
ATOM     24  C   UNL     1      -1.877 -10.428  -0.006  0.00  0.00    +0.024 A 
ATOM     25  C   UNL     1      -1.321  -9.972   1.173  0.00  0.00    +0.007 A 
BRANCH  23  26
ATOM     26  N   UNL     1      -2.133 -10.257  -2.402  0.00  0.00    -0.251 N 
ATOM     27  C   UNL     1      -2.951 -11.469  -2.548  0.00  0.00    +0.097 C 
ATOM     28  C   UNL     1      -3.296 -11.504  -4.050  0.00  0.00    +0.128 C 
ATOM     29  N   UNL     1      -2.635 -10.306  -4.590  0.00  0.00    -0.297 N 
ATOM     30  C   UNL     1      -2.010  -9.662  -3.596  0.00  0.00    +0.307 C 
ATOM     31  O   UNL     1      -1.385  -8.632  -3.763  0.00  0.00    -0.252 OA
ATOM     32  C   UNL     1      -2.149 -12.710  -2.150  0.00  0.00    +0.030 C 
ATOM     33  H   UNL     1      -2.652 -10.026  -5.519  0.00  0.00    +0.150 HD
ENDBRANCH  23  26
ENDBRANCH  18  20
ENDBRANCH   4  18
TORSDOF 5
