REMARK  Name = ZINC39685468
REMARK  7 active torsions:
REMARK  status: ('A' for Active; 'I' for Inactive)
REMARK    1  A    between atoms: C_4  and  C_7
REMARK    2  A    between atoms: C_10  and  C_12
REMARK    3  A    between atoms: C_16  and  C_25
REMARK    4  A    between atoms: N_27  and  C_28
REMARK    5  A    between atoms: C_28  and  C_29
REMARK    6  A    between atoms: C_29  and  O_30
REMARK    7  A    between atoms: O_30  and  C_31
REMARK                            x       y       z     vdW  Elec       q    Type
REMARK                         _______ _______ _______ _____ _____    ______ ____
ROOT
ATOM      1  C   UNL     1       7.094  -0.806  -0.227  0.00  0.00    +0.282 C 
ATOM      2  O   UNL     1       7.874  -1.732  -0.356  0.00  0.00    -0.267 OA
ATOM      3  N   UNL     1       7.545   0.464  -0.249  0.00  0.00    -0.294 N 
ATOM      4  C   UNL     1       6.777   1.705   0.002  0.00  0.00    +0.121 C 
ATOM      5  C   UNL     1       7.737   2.602   0.814  0.00  0.00    +0.100 C 
ATOM      6  C   UNL     1       9.144   2.092   0.459  0.00  0.00    -0.004 C 
ATOM      7  C   UNL     1       8.925   0.933  -0.524  0.00  0.00    +0.115 C 
ATOM      8  C   UNL     1       9.957   3.201  -0.203  0.00  0.00    -0.010 C 
ATOM      9  C   UNL     1      11.370   2.688  -0.493  0.00  0.00    -0.082 C 
ATOM     10  N   UNL     1      12.008   2.268   0.760  0.00  0.00    +0.379 N 
ATOM     11  C   UNL     1      11.272   1.139   1.343  0.00  0.00    -0.082 C 
ATOM     12  C   UNL     1       9.855   1.587   1.711  0.00  0.00    -0.010 C 
ATOM     13  H   UNL     1      12.959   1.987   0.575  0.00  0.00    -0.086 HD
ATOM     14  H   UNL     1      12.008   3.039   1.411  0.00  0.00    -0.086 HD
ENDROOT
BRANCH   1  18
ATOM     15  C   UNL     1       3.502  -0.755   0.181  0.00  0.00    +0.136 A 
ATOM     16  C   UNL     1       3.710  -2.103   0.244  0.00  0.00    +0.050 A 
ATOM     17  C   UNL     1       5.085  -2.314   0.101  0.00  0.00    +0.055 A 
ATOM     18  C   UNL     1       5.665  -1.073  -0.046  0.00  0.00    +0.190 A 
ATOM     19  O   UNL     1       4.685  -0.145   0.000  0.00  0.00    -0.450 OA
BRANCH  15  23
ATOM     20  C   UNL     1      -0.263   1.185   0.486  0.00  0.00    +0.000 A 
ATOM     21  C   UNL     1       0.896   1.938   0.406  0.00  0.00    +0.001 A 
ATOM     22  C   UNL     1       2.122   1.314   0.307  0.00  0.00    +0.011 A 
ATOM     23  C   UNL     1       2.193  -0.080   0.288  0.00  0.00    +0.017 A 
ATOM     24  C   UNL     1       1.020  -0.834   0.369  0.00  0.00    +0.011 A 
ATOM     25  C   UNL     1      -0.200  -0.197   0.468  0.00  0.00    +0.001 A 
ENDBRANCH  15  23
ENDBRANCH   1  18
BRANCH   5  26
ATOM     26  C   UNL     1       7.478   2.447   2.290  0.00  0.00    +0.218 C 
ATOM     27  O   UNL     1       6.980   1.426   2.715  0.00  0.00    -0.275 OA
ATOM     28  N   UNL     1       7.799   3.444   3.139  0.00  0.00    -0.312 N 
ATOM     29  H   UNL     1       8.129   4.288   2.793  0.00  0.00    +0.149 HD
BRANCH  28  30
ATOM     30  C   UNL     1       7.649   3.253   4.584  0.00  0.00    +0.145 C 
BRANCH  30  31
ATOM     31  C   UNL     1       7.959   4.565   5.307  0.00  0.00    +0.247 C 
BRANCH  31  32
ATOM     32  O   UNL     1       6.976   5.543   4.961  0.00  0.00    -0.490 OA
BRANCH  32  33
ATOM     33  C   UNL     1       7.162   6.800   5.443  0.00  0.00    +0.123 A 
ATOM     34  C   UNL     1       8.320   7.114   6.139  0.00  0.00    +0.046 A 
ATOM     35  C   UNL     1       8.508   8.392   6.628  0.00  0.00    +0.006 A 
ATOM     36  C   UNL     1       7.542   9.360   6.425  0.00  0.00    +0.038 A 
ATOM     37  C   UNL     1       6.384   9.051   5.731  0.00  0.00    +0.127 A 
ATOM     38  C   UNL     1       6.196   7.773   5.234  0.00  0.00    +0.084 A 
ATOM     39  F   UNL     1       5.441   9.998   5.533  0.00  0.00    -0.205 F 
ENDBRANCH  32  33
ENDBRANCH  31  32
ENDBRANCH  30  31
ENDBRANCH  28  30
ENDBRANCH   5  26
TORSDOF 7
