REMARK  Name = ZINC65029992
REMARK  10 active torsions:
REMARK  status: ('A' for Active; 'I' for Inactive)
REMARK    1  A    between atoms: C_1  and  C_2
REMARK    2  A    between atoms: C_3  and  N_9
REMARK    3  A    between atoms: N_12  and  C_13
REMARK    4  A    between atoms: C_13  and  C_14
REMARK    5  A    between atoms: C_14  and  N_15
REMARK    6  A    between atoms: C_19  and  S_24
REMARK    7  A    between atoms: S_24  and  N_27
REMARK    8  A    between atoms: N_27  and  C_28
REMARK    9  A    between atoms: C_28  and  C_29
REMARK   10  A    between atoms: C_28  and  C_30
REMARK                            x       y       z     vdW  Elec       q    Type
REMARK                         _______ _______ _______ _____ _____    ______ ____
ROOT
ATOM      1  N   UNL     1       0.492  -0.410  -8.431  0.00  0.00    -0.242 N 
ATOM      2  C   UNL     1       1.654  -0.806  -9.050  0.00  0.00    +0.089 A 
ATOM      3  C   UNL     1       3.004  -0.683  -8.741  0.00  0.00    +0.031 A 
ATOM      4  C   UNL     1       3.945  -1.199  -9.588  0.00  0.00    +0.031 A 
ATOM      5  C   UNL     1       3.564  -1.844 -10.758  0.00  0.00    +0.107 A 
ATOM      6  C   UNL     1       2.247  -1.978 -11.084  0.00  0.00    +0.060 A 
ATOM      7  C   UNL     1       1.262  -1.459 -10.232  0.00  0.00    +0.115 A 
ATOM      8  N   UNL     1      -0.084  -1.436 -10.285  0.00  0.00    -0.129 NA
ATOM      9  N   UNL     1      -0.562  -0.840  -9.250  0.00  0.00    -0.065 NA
ENDROOT
BRANCH   5  10
ATOM     10  S   UNL     1       4.798  -2.498 -11.832  0.00  0.00    +0.059 S 
ATOM     11  O   UNL     1       4.213  -2.572 -13.125  0.00  0.00    -0.153 OA
ATOM     12  O   UNL     1       5.989  -1.766 -11.577  0.00  0.00    -0.153 OA
BRANCH  10  13
ATOM     13  N   UNL     1       5.088  -4.056 -11.354  0.00  0.00    -0.187 NA
ATOM     14  H   UNL     1       5.957  -4.301 -10.999  0.00  0.00    +0.148 HD
BRANCH  13  15
ATOM     15  C   UNL     1       4.033  -5.066 -11.467  0.00  0.00    +0.070 C 
ATOM     16  C   UNL     1       4.194  -5.827 -12.784  0.00  0.00    +0.025 C 
ATOM     17  C   UNL     1       4.137  -6.046 -10.296  0.00  0.00    +0.025 C 
ENDBRANCH  13  15
ENDBRANCH  10  13
ENDBRANCH   5  10
BRANCH   1  18
ATOM     18  C   UNL     1       0.378   0.312  -7.161  0.00  0.00    +0.164 C 
BRANCH  18  19
ATOM     19  C   UNL     1       0.296  -0.692  -6.009  0.00  0.00    +0.129 C 
BRANCH  19  23
ATOM     20  N   UNL     1      -0.010   0.011  -2.413  0.00  0.00    -0.269 N 
ATOM     21  C   UNL     1       0.095  -0.653  -3.581  0.00  0.00    +0.304 C 
ATOM     22  O   UNL     1       0.112  -1.869  -3.590  0.00  0.00    -0.253 OA
ATOM     23  N   UNL     1       0.182   0.030  -4.740  0.00  0.00    -0.297 N 
ATOM     24  H   UNL     1      -0.106   0.977  -2.411  0.00  0.00    +0.156 HD
ATOM     25  H   UNL     1       0.168   1.000  -4.733  0.00  0.00    +0.150 HD
BRANCH  20  28
ATOM     26  C   UNL     1      -1.262   1.188  -0.145  0.00  0.00    +0.047 C 
ATOM     27  C   UNL     1      -0.580  -0.153  -0.072  0.00  0.00    -0.011 A 
ATOM     28  C   UNL     1       0.019  -0.691  -1.203  0.00  0.00    +0.039 A 
ATOM     29  C   UNL     1       0.646  -1.928  -1.132  0.00  0.00    +0.024 A 
ATOM     30  C   UNL     1       0.673  -2.620   0.063  0.00  0.00    +0.003 A 
ATOM     31  C   UNL     1       0.076  -2.083   1.188  0.00  0.00    +0.020 A 
ATOM     32  C   UNL     1      -0.546  -0.848   1.123  0.00  0.00    +0.046 A 
ATOM     33 CL   UNL     1      -1.287  -0.173   2.540  0.00  0.00    -0.083 Cl
ENDBRANCH  20  28
ENDBRANCH  19  23
ENDBRANCH  18  19
ENDBRANCH   1  18
TORSDOF 7
