REMARK  Name = ZINC08901401
REMARK  9 active torsions:
REMARK  status: ('A' for Active; 'I' for Inactive)
REMARK    1  A    between atoms: C_1  and  C_2
REMARK    2  A    between atoms: C_2  and  O_3
REMARK    3  A    between atoms: O_3  and  C_4
REMARK    4  A    between atoms: C_9  and  N_10
REMARK    5  A    between atoms: C_11  and  S_15
REMARK    6  A    between atoms: S_15  and  C_16
REMARK    7  A    between atoms: C_16  and  C_17
REMARK    8  A    between atoms: N_19  and  C_20
REMARK    9  A    between atoms: C_21  and  C_29
REMARK                            x       y       z     vdW  Elec       q    Type
REMARK                         _______ _______ _______ _____ _____    ______ ____
ROOT
ATOM      1  C   UNL     1      -3.714   3.141   8.530  0.00  0.00    +0.228 C 
ATOM      2  O   UNL     1      -2.832   2.481   9.037  0.00  0.00    -0.275 OA
ATOM      3  N   UNL     1      -4.658   3.712   9.303  0.00  0.00    -0.279 N 
ATOM      4  H   UNL     1      -5.363   4.240   8.897  0.00  0.00    +0.155 HD
ENDROOT
BRANCH   3   5
ATOM      5  C   UNL     1      -4.620   3.546  10.679  0.00  0.00    +0.084 A 
ATOM      6  C   UNL     1      -5.490   4.056  11.633  0.00  0.00    +0.068 A 
ATOM      7  C   UNL     1      -5.228   3.728  13.024  0.00  0.00    -0.023 A 
ATOM      8  C   UNL     1      -4.140   2.956  13.238  0.00  0.00    -0.004 A 
ATOM      9  S   UNL     1      -3.472   2.659  11.626  0.00  0.00    -0.077 S 
ATOM     10  C   UNL     1      -3.624   2.468  14.557  0.00  0.00    +0.043 C 
ATOM     11  C   UNL     1      -4.299   3.282  15.671  0.00  0.00    +0.005 C 
ATOM     12  C   UNL     1      -5.806   3.328  15.405  0.00  0.00    +0.005 C 
ATOM     13  C   UNL     1      -6.092   4.205  14.185  0.00  0.00    +0.037 C 
BRANCH   6  14
ATOM     14  C   UNL     1      -6.633   4.891  11.251  0.00  0.00    +0.244 C 
ATOM     15  O   UNL     1      -7.708   4.375  11.006  0.00  0.00    -0.270 OA
ATOM     16  N   UNL     1      -6.494   6.229  11.172  0.00  0.00    -0.325 N 
ATOM     17  H   UNL     1      -5.637   6.639  11.367  0.00  0.00    +0.145 HD
ATOM     18  H   UNL     1      -7.250   6.781  10.919  0.00  0.00    +0.145 HD
ENDBRANCH   6  14
ENDBRANCH   3   5
BRANCH   1  19
ATOM     19  C   UNL     1      -3.755   3.321   7.034  0.00  0.00    +0.173 C 
BRANCH  19  20
ATOM     20  S   UNL     1      -2.364   2.439   6.282  0.00  0.00    -0.075 S 
BRANCH  20  22
ATOM     21  N   UNL     1      -1.899   2.399   3.531  0.00  0.00    -0.184 N 
ATOM     22  C   UNL     1      -2.650   2.810   4.583  0.00  0.00    +0.215 A 
ATOM     23  N   UNL     1      -3.632   3.537   4.095  0.00  0.00    -0.101 NA
ATOM     24  N   UNL     1      -3.547   3.608   2.816  0.00  0.00    -0.022 NA
ATOM     25  N   UNL     1      -2.521   2.951   2.397  0.00  0.00    -0.038 NA
BRANCH  21  31
ATOM     26  C   UNL     1      -0.618   0.519   2.699  0.00  0.00    +0.146 A 
ATOM     27  C   UNL     1       0.526  -0.264   2.735  0.00  0.00    +0.048 A 
ATOM     28  C   UNL     1       1.534   0.028   3.635  0.00  0.00    +0.004 A 
ATOM     29  C   UNL     1       1.405   1.099   4.500  0.00  0.00    +0.002 A 
ATOM     30  C   UNL     1       0.269   1.883   4.470  0.00  0.00    +0.031 A 
ATOM     31  C   UNL     1      -0.746   1.600   3.567  0.00  0.00    +0.111 A 
BRANCH  26  32
ATOM     32  O   UNL     1      -1.610   0.234   1.815  0.00  0.00    -0.490 OA
BRANCH  32  34
ATOM     33  C   UNL     1      -2.622  -1.049   0.034  0.00  0.00    +0.048 C 
ATOM     34  C   UNL     1      -1.408  -0.887   0.951  0.00  0.00    +0.226 C 
ENDBRANCH  32  34
ENDBRANCH  26  32
ENDBRANCH  21  31
ENDBRANCH  20  22
ENDBRANCH  19  20
ENDBRANCH   1  19
TORSDOF 8
