REMARK  Name = ZINC40372829
REMARK  13 active torsions:
REMARK  status: ('A' for Active; 'I' for Inactive)
REMARK    1  A    between atoms: C_1  and  C_2
REMARK    2  A    between atoms: C_2  and  C_4
REMARK    3  A    between atoms: C_2  and  N_25
REMARK    4  A    between atoms: C_4  and  N_5
REMARK    5  A    between atoms: N_5  and  C_6
REMARK    6  A    between atoms: C_6  and  C_7
REMARK    7  A    between atoms: C_7  and  N_8
REMARK    8  A    between atoms: C_14  and  C_16
REMARK    9  A    between atoms: C_26  and  O_28
REMARK   10  A    between atoms: O_28  and  C_29
REMARK   11  A    between atoms: C_29  and  C_30
REMARK   12  A    between atoms: C_29  and  C_31
REMARK   13  A    between atoms: C_29  and  C_32
REMARK                            x       y       z     vdW  Elec       q    Type
REMARK                         _______ _______ _______ _____ _____    ______ ____
ROOT
ATOM      1  N   UNL     1       0.434  -1.963   1.087  0.00  0.00    -0.295 N 
ATOM      2  C   UNL     1      -0.424  -2.470   1.995  0.00  0.00    +0.247 C 
ATOM      3  O   UNL     1      -1.035  -1.724   2.736  0.00  0.00    -0.270 OA
ENDROOT
BRANCH   2   4
ATOM      4  C   UNL     1      -0.623  -3.929   2.089  0.00  0.00    +0.041 A 
ATOM      5  C   UNL     1       0.378  -4.802   1.652  0.00  0.00    +0.017 A 
ATOM      6  C   UNL     1       0.191  -6.164   1.742  0.00  0.00    +0.050 A 
ATOM      7  C   UNL     1      -0.989  -6.675   2.264  0.00  0.00    +0.166 A 
ATOM      8  C   UNL     1      -1.992  -5.809   2.701  0.00  0.00    +0.167 A 
ATOM      9  C   UNL     1      -1.809  -4.442   2.620  0.00  0.00    +0.062 A 
ATOM     10  O   UNL     1      -3.038  -6.554   3.166  0.00  0.00    -0.453 OA
ATOM     11  C   UNL     1      -2.835  -7.875   2.633  0.00  0.00    +0.466 C 
ATOM     12  O   UNL     1      -1.408  -7.958   2.457  0.00  0.00    -0.453 OA
ENDBRANCH   2   4
BRANCH   1  13
ATOM     13  C   UNL     1       0.679  -0.520   1.037  0.00  0.00    +0.130 C 
BRANCH  13  15
ATOM     14  C   UNL     1      -0.145   1.654   0.121  0.00  0.00    +0.029 C 
ATOM     15  C   UNL     1      -0.319   0.134   0.080  0.00  0.00    +0.090 C 
BRANCH  15  16
ATOM     16  N   UNL     1      -1.684  -0.213   0.485  0.00  0.00    -0.277 N 
ATOM     17  C   UNL     1      -2.680  -0.203  -0.423  0.00  0.00    +0.401 C 
ATOM     18  O   UNL     1      -2.446   0.093  -1.578  0.00  0.00    -0.226 OA
ATOM     19  H   UNL     1      -1.870  -0.449   1.407  0.00  0.00    +0.152 HD
BRANCH  17  20
ATOM     20  O   UNL     1      -3.933  -0.522  -0.050  0.00  0.00    -0.445 OA
BRANCH  20  21
ATOM     21  C   UNL     1      -4.939  -0.492  -1.065  0.00  0.00    +0.107 C 
ATOM     22  C   UNL     1      -4.576  -1.481  -2.173  0.00  0.00    +0.055 C 
ATOM     23  C   UNL     1      -6.289  -0.880  -0.457  0.00  0.00    +0.055 C 
ATOM     24  C   UNL     1      -5.031   0.919  -1.650  0.00  0.00    +0.055 C 
ENDBRANCH  20  21
ENDBRANCH  17  20
ENDBRANCH  15  16
ENDBRANCH  13  15
ENDBRANCH   1  13
BRANCH   1  25
ATOM     25  C   UNL     1       1.121  -2.856   0.151  0.00  0.00    +0.123 C 
BRANCH  25  26
ATOM     26  C   UNL     1       2.591  -2.985   0.554  0.00  0.00    +0.103 C 
BRANCH  26  27
ATOM     27  N   UNL     1       3.307  -3.780  -0.452  0.00  0.00    -0.297 NA
ATOM     28  C   UNL     1       2.932  -5.199  -0.367  0.00  0.00    +0.112 C 
ATOM     29  C   UNL     1       3.654  -5.979  -1.469  0.00  0.00    +0.175 C 
ATOM     30  O   UNL     1       5.064  -5.784  -1.339  0.00  0.00    -0.377 OA
ATOM     31  C   UNL     1       5.465  -4.413  -1.417  0.00  0.00    +0.175 C 
ATOM     32  C   UNL     1       4.762  -3.617  -0.315  0.00  0.00    +0.112 C 
ENDBRANCH  26  27
ENDBRANCH  25  26
ENDBRANCH   1  25
TORSDOF 9
