REMARK  Name = ZINC29310441
REMARK  10 active torsions:
REMARK  status: ('A' for Active; 'I' for Inactive)
REMARK    1  A    between atoms: C_1  and  C_2
REMARK    2  A    between atoms: C_5  and  S_8
REMARK    3  A    between atoms: S_8  and  N_11
REMARK    4  A    between atoms: N_11  and  C_12
REMARK    5  A    between atoms: C_15  and  C_31
REMARK    6  A    between atoms: N_16  and  C_19
REMARK    7  A    between atoms: C_19  and  C_20
REMARK    8  A    between atoms: N_22  and  C_23
REMARK    9  A    between atoms: C_23  and  C_24
REMARK   10  A    between atoms: C_27  and  N_30
REMARK                            x       y       z     vdW  Elec       q    Type
REMARK                         _______ _______ _______ _____ _____    ______ ____
ROOT
ATOM      1  C   UNL     1      -5.337   2.739   1.651  0.00  0.00    +0.112 A 
ATOM      2  C   UNL     1      -5.677   3.061   0.365  0.00  0.00    +0.031 A 
ATOM      3  C   UNL     1      -5.169   2.290  -0.691  0.00  0.00    +0.023 A 
ATOM      4  C   UNL     1      -4.355   1.242  -0.433  0.00  0.00    +0.020 A 
ATOM      5  N   UNL     1      -4.017   0.919   0.844  0.00  0.00    -0.302 N 
ATOM      6  C   UNL     1      -4.489   1.634   1.883  0.00  0.00    +0.274 A 
ATOM      7  O   UNL     1      -4.180   1.330   3.024  0.00  0.00    -0.266 OA
ATOM      8  C   UNL     1      -3.816   0.420  -1.576  0.00  0.00    +0.063 C 
ENDROOT
BRANCH   1   9
ATOM      9  N   UNL     1      -5.830   3.492   2.724  0.00  0.00    -0.211 N 
ATOM     10  H   UNL     1      -5.489   3.279   3.748  0.00  0.00    +0.174 HD
BRANCH   9  11
ATOM     11  S   UNL     1      -6.927   4.702   2.451  0.00  0.00    +0.072 S 
ATOM     12  O   UNL     1      -7.270   5.233   3.724  0.00  0.00    -0.150 OA
ATOM     13  O   UNL     1      -6.392   5.507   1.409  0.00  0.00    -0.150 OA
BRANCH  11  18
ATOM     14  C   UNL     1     -11.920   2.127   0.252  0.00  0.00    +0.044 C 
ATOM     15  C   UNL     1     -10.673   2.770   0.801  0.00  0.00    -0.050 A 
ATOM     16  C   UNL     1     -10.465   2.820   2.167  0.00  0.00    +0.005 A 
ATOM     17  C   UNL     1      -9.321   3.410   2.671  0.00  0.00    +0.029 A 
ATOM     18  C   UNL     1      -8.385   3.950   1.809  0.00  0.00    +0.109 A 
ATOM     19  C   UNL     1      -8.595   3.905   0.443  0.00  0.00    +0.029 A 
ATOM     20  C   UNL     1      -9.737   3.311  -0.061  0.00  0.00    +0.005 A 
ENDBRANCH  11  18
ENDBRANCH   9  11
ENDBRANCH   1   9
BRANCH   5  21
ATOM     21  C   UNL     1      -3.133  -0.222   1.092  0.00  0.00    +0.220 C 
BRANCH  21  22
ATOM     22  C   UNL     1      -1.700   0.243   1.094  0.00  0.00    +0.233 C 
ATOM     23  O   UNL     1      -1.441   1.413   0.906  0.00  0.00    -0.274 OA
ATOM     24  N   UNL     1      -0.704  -0.641   1.304  0.00  0.00    -0.314 N 
ATOM     25  H   UNL     1      -0.939  -1.702   1.479  0.00  0.00    +0.149 HD
BRANCH  24  26
ATOM     26  C   UNL     1       0.689  -0.190   1.300  0.00  0.00    +0.107 C 
BRANCH  26  27
ATOM     27  C   UNL     1       1.613  -1.384   1.554  0.00  0.00    +0.006 C 
ATOM     28  C   UNL     1       1.367  -1.927   2.963  0.00  0.00    +0.003 C 
ATOM     29  C   UNL     1       2.290  -3.121   3.217  0.00  0.00    -0.016 C 
ATOM     30  C   UNL     1       3.748  -2.674   3.090  0.00  0.00    -0.075 C 
ATOM     31  C   UNL     1       3.993  -2.131   1.681  0.00  0.00    -0.016 C 
ATOM     32  C   UNL     1       3.070  -0.937   1.426  0.00  0.00    +0.003 C 
BRANCH  30  33
ATOM     33  N   UNL     1       4.635  -3.820   3.334  0.00  0.00    +0.380 N 
ATOM     34  H   UNL     1       5.683  -3.499   3.242  0.00  0.00    -0.090 HD
ATOM     35  H   UNL     1       4.426  -4.608   2.595  0.00  0.00    -0.090 HD
ATOM     36  H   UNL     1       4.458  -4.211   4.347  0.00  0.00    -0.090 HD
ENDBRANCH  30  33
ENDBRANCH  26  27
ENDBRANCH  24  26
ENDBRANCH  21  22
ENDBRANCH   5  21
TORSDOF 8
