REMARK  Name = ZINC63361796
REMARK  8 active torsions:
REMARK  status: ('A' for Active; 'I' for Inactive)
REMARK    1  A    between atoms: C_1  and  C_2
REMARK    2  A    between atoms: C_13  and  C_15
REMARK    3  A    between atoms: C_15  and  C_16
REMARK    4  A    between atoms: C_16  and  C_17
REMARK    5  A    between atoms: N_19  and  CA_20
REMARK    6  A    between atoms: CA_20  and  CB_22
REMARK    7  A    between atoms: CA_20  and  C_32
REMARK    8  A    between atoms: CB_22  and  CG_23
REMARK                            x       y       z     vdW  Elec       q    Type
REMARK                         _______ _______ _______ _____ _____    ______ ____
ROOT
ATOM      1  C   UNK A   0       0.441  -1.995   1.458  0.00  0.00    +0.024 C 
ENDROOT
BRANCH   1  13
ATOM      2  C   UNK A   0      -0.019   1.526   0.010  0.00  0.00    +0.013 C 
ATOM      3  C   UNK A   0       0.002  -0.004   0.002  0.00  0.00    +0.033 C 
ATOM      4  C   UNK A   0       0.705  -0.489  -1.242  0.00  0.00    -0.001 A 
ATOM      5  C   UNK A   0      -0.001  -0.507  -2.417  0.00  0.00    +0.019 A 
ATOM      6  C   UNK A   0       0.606  -0.939  -3.594  0.00  0.00    +0.024 A 
ATOM      7  C   UNK A   0       1.948  -1.360  -3.579  0.00  0.00    +0.139 A 
ATOM      8  C   UNK A   0       2.649  -1.339  -2.383  0.00  0.00    +0.093 A 
ATOM      9  C   UNK A   0       2.029  -0.907  -1.218  0.00  0.00    +0.139 A 
ATOM     10  O   UNK A   0       2.755  -0.920  -0.066  0.00  0.00    -0.425 OA
ATOM     11  C   UNK A   0       2.222  -0.312   1.013  0.00  0.00    +0.316 C 
ATOM     12  O   UNK A   0       2.896   0.359   1.758  0.00  0.00    -0.250 OA
ATOM     13  C   UNK A   0       0.740  -0.510   1.245  0.00  0.00    +0.106 C 
ATOM     14  O   UNK A   0       2.273  -1.719  -4.839  0.00  0.00    -0.459 OA
ATOM     15  C   UNK A   0       1.228  -1.558  -5.668  0.00  0.00    +0.109 A 
ATOM     16  C   UNK A   0       0.174  -1.085  -4.983  0.00  0.00    +0.001 A 
ATOM     17  C   UNK A   0      -1.174  -0.778  -5.579  0.00  0.00    +0.039 C 
ATOM     18  C   UNK A   0      -1.024  -0.700  -7.104  0.00  0.00    +0.005 C 
ATOM     19  C   UNK A   0      -0.266  -1.934  -7.601  0.00  0.00    +0.008 C 
ATOM     20  C   UNK A   0       1.197  -1.852  -7.151  0.00  0.00    +0.075 C 
ENDBRANCH   1  13
BRANCH   1  21
ATOM     21  C   UNK A   0       1.079  -2.461   2.768  0.00  0.00    +0.096 C 
BRANCH  21  22
ATOM     22  C   UNK A   0       0.784  -3.925   2.977  0.00  0.00    +0.214 C 
ATOM     23  O   UNK A   0       0.129  -4.534   2.159  0.00  0.00    -0.276 OA
ATOM     24  N   TRP A   1       1.250  -4.555   4.074  0.00  0.00    -0.302 N 
ATOM     25  H   TRP A   1       1.774  -4.068   4.728  0.00  0.00    +0.150 HD
BRANCH  24  26
ATOM     26  CA  TRP A   1       0.964  -5.978   4.277  0.00  0.00    +0.190 C 
BRANCH  26  27
ATOM     27  C   TRP A   1      -0.382  -6.130   4.938  0.00  0.00    +0.376 C 
ATOM     28  O   TRP A   1      -1.042  -5.142   5.213  0.00  0.00    -0.244 OA
ATOM     29  OXT TRP A   1      -0.812  -7.241   5.197  0.00  0.00    -0.244 OA
ENDBRANCH  26  27
BRANCH  26  30
ATOM     30  CB  TRP A   1       2.043  -6.592   5.171  0.00  0.00    +0.067 C 
BRANCH  30  31
ATOM     31  CG  TRP A   1       3.370  -6.550   4.458  0.00  0.00    -0.039 C 
ATOM     32  CD2 TRP A   1       4.328  -5.603   4.577  0.00  0.00    -0.001 A 
ATOM     33  CE3 TRP A   1       4.417  -4.375   5.376  0.00  0.00    +0.010 A 
ATOM     34  CZ3 TRP A   1       5.529  -3.611   5.281  0.00  0.00    +0.001 A 
ATOM     35  CH2 TRP A   1       6.596  -3.962   4.442  0.00  0.00    +0.002 A 
ATOM     36  CZ2 TRP A   1       6.587  -5.074   3.679  0.00  0.00    +0.026 A 
ATOM     37  CE2 TRP A   1       5.467  -5.952   3.699  0.00  0.00    +0.043 A 
ATOM     38  NE1 TRP A   1       5.224  -7.071   3.062  0.00  0.00    -0.380 N 
ATOM     39  CD1 TRP A   1       3.902  -7.563   3.469  0.00  0.00    +0.144 C 
ATOM     40  HE1 TRP A   1       5.819  -7.504   2.430  0.00  0.00    +0.160 HD
ENDBRANCH  30  31
ENDBRANCH  26  30
ENDBRANCH  24  26
ENDBRANCH  21  22
ENDBRANCH   1  21
TORSDOF 7
