REMARK  Name = ZINC24719255
REMARK  9 active torsions:
REMARK  status: ('A' for Active; 'I' for Inactive)
REMARK    1  A    between atoms: C_1  and  C_2
REMARK    2  A    between atoms: C_5  and  N_26
REMARK    3  A    between atoms: C_7  and  N_8
REMARK    4  A    between atoms: C_9  and  C_11
REMARK    5  A    between atoms: C_11  and  S_12
REMARK    6  A    between atoms: S_12  and  C_13
REMARK    7  A    between atoms: C_17  and  C_21
REMARK    8  A    between atoms: C_18  and  C_20
REMARK    9  A    between atoms: N_24  and  C_25
REMARK                            x       y       z     vdW  Elec       q    Type
REMARK                         _______ _______ _______ _____ _____    ______ ____
ROOT
ATOM      1  C   UNL     1      -0.021   1.073   0.008  0.00  0.00    +0.173 C 
ENDROOT
BRANCH   1   3
ATOM      2  N   UNL     1      -0.288   1.272  -2.443  0.00  0.00    -0.285 N 
ATOM      3  C   UNL     1      -0.743   1.582  -1.213  0.00  0.00    +0.227 C 
ATOM      4  O   UNL     1      -1.734   2.271  -1.088  0.00  0.00    -0.275 OA
ATOM      5  H   UNL     1       0.659   0.725  -2.558  0.00  0.00    +0.155 HD
BRANCH   2  12
ATOM      6  C   UNL     1       1.104   1.579  -4.905  0.00  0.00    +0.045 C 
ATOM      7  C   UNL     1      -0.382   1.807  -4.796  0.00  0.00    -0.029 A 
ATOM      8  C   UNL     1      -1.108   2.176  -5.912  0.00  0.00    +0.007 A 
ATOM      9  C   UNL     1      -2.471   2.385  -5.813  0.00  0.00    +0.033 A 
ATOM     10  C   UNL     1      -3.112   2.226  -4.597  0.00  0.00    +0.128 A 
ATOM     11  C   UNL     1      -2.392   1.853  -3.479  0.00  0.00    +0.056 A 
ATOM     12  C   UNL     1      -1.022   1.646  -3.575  0.00  0.00    +0.038 A 
BRANCH  10  13
ATOM     13  N   UNL     1      -4.571   2.450  -4.495  0.00  0.00    +0.056 N 
ATOM     14  O   UNL     1      -5.208   2.775  -5.482  0.00  0.00    -0.126 OA
ATOM     15  O   UNL     1      -5.136   2.310  -3.425  0.00  0.00    -0.126 OA
ENDBRANCH  10  13
ENDBRANCH   2  12
ENDBRANCH   1   3
BRANCH   1  16
ATOM     16  S   UNL     1      -0.869   1.655   1.497  0.00  0.00    -0.078 S 
BRANCH  16  17
ATOM     17  C   UNL     1       0.158   0.934   2.735  0.00  0.00    +0.173 A 
ATOM     18  N   UNL     1       1.196   0.207   2.376  0.00  0.00    -0.216 NA
ATOM     19  C   UNL     1       1.989  -0.344   3.286  0.00  0.00    +0.117 A 
ATOM     20  C   UNL     1       1.760  -0.193   4.667  0.00  0.00    +0.075 A 
ATOM     21  C   UNL     1       2.720  -0.866   5.525  0.00  0.00    -0.026 A 
ATOM     22  C   UNL     1       3.723  -1.560   4.967  0.00  0.00    -0.008 A 
ATOM     23  S   UNL     1       3.445  -1.357   3.218  0.00  0.00    -0.073 S 
ATOM     24  C   UNL     1       4.822  -2.329   5.654  0.00  0.00    +0.052 C 
ATOM     25  C   UNL     1       2.591  -0.785   7.024  0.00  0.00    +0.045 C 
ATOM     26  C   UNL     1       0.623   0.597   5.026  0.00  0.00    +0.263 A 
ATOM     27  O   UNL     1       0.346   0.783   6.199  0.00  0.00    -0.267 OA
ATOM     28  N   UNL     1      -0.137   1.132   4.053  0.00  0.00    -0.290 N 
ATOM     29  C   UNL     1      -1.303   1.942   4.415  0.00  0.00    +0.154 C 
ENDBRANCH  16  17
ENDBRANCH   1  16
TORSDOF 5
