REMARK  Name = ZINC19500649
REMARK  13 active torsions:
REMARK  status: ('A' for Active; 'I' for Inactive)
REMARK    1  A    between atoms: C_1  and  C_2
REMARK    2  A    between atoms: C_2  and  C_3
REMARK    3  A    between atoms: C_3  and  C_5
REMARK    4  A    between atoms: C_3  and  N_18
REMARK    5  A    between atoms: N_9  and  C_10
REMARK    6  A    between atoms: C_10  and  C_11
REMARK    7  A    between atoms: C_11  and  C_12
REMARK    8  A    between atoms: N_18  and  C_19
REMARK    9  A    between atoms: N_18  and  C_25
REMARK   10  A    between atoms: C_19  and  C_20
REMARK   11  A    between atoms: C_25  and  C_26
REMARK   12  A    between atoms: C_30  and  C_39
REMARK   13  A    between atoms: C_32  and  C_38
REMARK                            x       y       z     vdW  Elec       q    Type
REMARK                         _______ _______ _______ _____ _____    ______ ____
ROOT
ATOM      1  N   UNL     1      -1.564   7.210  -0.793  0.00  0.00    +0.394 N 
ATOM      2  H   UNL     1      -0.764   6.765  -1.404  0.00  0.00    -0.080 HD
ENDROOT
BRANCH   1   3
ATOM      3  C   UNL     1      -1.362   8.665  -0.773  0.00  0.00    +0.003 C 
BRANCH   3   4
ATOM      4  C   UNL     1      -2.261   9.283   0.265  0.00  0.00    +0.138 A 
ATOM      5  N   UNL     1      -2.453   8.856   1.489  0.00  0.00    -0.115 NA
ATOM      6  N   UNL     1      -3.288   9.651   2.063  0.00  0.00    -0.023 NA
ATOM      7  N   UNL     1      -3.641  10.571   1.233  0.00  0.00    -0.044 NA
ATOM      8  N   UNL     1      -3.030  10.378   0.114  0.00  0.00    -0.231 N 
BRANCH   8   9
ATOM      9  C   UNL     1      -3.148  11.197  -1.095  0.00  0.00    +0.152 C 
BRANCH   9  10
ATOM     10  C   UNL     1      -4.369  10.746  -1.899  0.00  0.00    +0.058 C 
BRANCH  10  11
ATOM     11  C   UNL     1      -4.559  11.661  -3.081  0.00  0.00    -0.046 A 
ATOM     12  C   UNL     1      -5.290  12.826  -2.943  0.00  0.00    +0.004 A 
ATOM     13  C   UNL     1      -5.459  13.668  -4.026  0.00  0.00    +0.000 A 
ATOM     14  C   UNL     1      -4.907  13.340  -5.250  0.00  0.00    +0.000 A 
ATOM     15  C   UNL     1      -4.180  12.172  -5.389  0.00  0.00    +0.000 A 
ATOM     16  C   UNL     1      -4.006  11.333  -4.305  0.00  0.00    +0.004 A 
ENDBRANCH  10  11
ENDBRANCH   9  10
ENDBRANCH   8   9
ENDBRANCH   3   4
BRANCH   3  18
ATOM     17  C   UNL     1       1.007   8.411  -1.527  0.00  0.00    +0.002 C 
ATOM     18  C   UNL     1       0.098   8.972  -0.432  0.00  0.00    -0.011 C 
ENDBRANCH   3  18
ENDBRANCH   1   3
BRANCH   1  19
ATOM     19  C   UNL     1      -2.850   6.865  -1.414  0.00  0.00    -0.002 C 
BRANCH  19  20
ATOM     20  C   UNL     1      -2.777   7.124  -2.897  0.00  0.00    +0.089 A 
ATOM     21  C   UNL     1      -2.291   6.275  -3.821  0.00  0.00    +0.042 A 
ATOM     22  C   UNL     1      -2.414   6.918  -5.074  0.00  0.00    +0.041 A 
ATOM     23  C   UNL     1      -2.968   8.122  -4.841  0.00  0.00    +0.195 A 
ATOM     24  O   UNL     1      -3.191   8.239  -3.522  0.00  0.00    -0.470 OA
ENDBRANCH  19  20
ENDBRANCH   1  19
BRANCH   1  25
ATOM     25  C   UNL     1      -1.465   6.646   0.560  0.00  0.00    -0.036 C 
BRANCH  25  26
ATOM     26  C   UNL     1      -1.152   5.175   0.469  0.00  0.00    +0.001 A 
ATOM     27  C   UNL     1       0.134   4.752   0.549  0.00  0.00    +0.017 A 
ATOM     28  C   UNL     1       0.404   3.316   0.457  0.00  0.00    -0.001 A 
ATOM     29  C   UNL     1       1.710   2.819   0.533  0.00  0.00    +0.013 A 
ATOM     30  C   UNL     1       1.928   1.473   0.445  0.00  0.00    -0.050 A 
ATOM     31  C   UNL     1       0.866   0.594   0.281  0.00  0.00    +0.008 A 
ATOM     32  C   UNL     1      -0.427   1.061   0.198  0.00  0.00    -0.026 A 
ATOM     33  C   UNL     1      -0.675   2.427   0.291  0.00  0.00    +0.052 A 
ATOM     34  N   UNL     1      -1.960   2.922   0.218  0.00  0.00    -0.322 N 
ATOM     35  H   UNL     1      -2.808   2.233   0.089  0.00  0.00    +0.169 HD
ATOM     36  C   UNL     1      -2.199   4.242   0.303  0.00  0.00    +0.251 A 
ATOM     37  O   UNL     1      -3.347   4.644   0.234  0.00  0.00    -0.268 OA
ATOM     38  C   UNL     1      -1.570   0.096   0.014  0.00  0.00    +0.046 C 
ATOM     39  C   UNL     1       3.335   0.939   0.527  0.00  0.00    +0.044 C 
ENDBRANCH  25  26
ENDBRANCH   1  25
TORSDOF 10
