REMARK  Name = ZINC04331493
REMARK  3 active torsions:
REMARK  status: ('A' for Active; 'I' for Inactive)
REMARK    1  A    between atoms: C_3  and  N_22
REMARK    2  A    between atoms: C_5  and  C_6
REMARK    3  A    between atoms: C_7  and  C_8
REMARK                            x       y       z     vdW  Elec       q    Type
REMARK                         _______ _______ _______ _____ _____    ______ ____
ROOT
ATOM      1  C   UNL     1      -1.937  -3.154   0.005  0.00  0.00    +0.243 C 
ATOM      2  O   UNL     1      -3.081  -2.735   0.019  0.00  0.00    -0.270 OA
ATOM      3  N   UNL     1      -1.706  -4.482  -0.004  0.00  0.00    -0.261 N 
ATOM      4  C   UNL     1      -2.769  -5.369   0.002  0.00  0.00    +0.166 A 
ATOM      5  N   UNL     1      -4.056  -5.112   0.011  0.00  0.00    -0.223 NA
ATOM      6  C   UNL     1      -4.991  -6.087   0.016  0.00  0.00    +0.100 A 
ATOM      7  C   UNL     1      -4.495  -7.411   0.011  0.00  0.00    +0.042 A 
ATOM      8  S   UNL     1      -2.737  -7.156  -0.008  0.00  0.00    -0.052 S 
ATOM      9  C   UNL     1      -5.317  -8.510   0.015  0.00  0.00    +0.019 A 
ATOM     10  C   UNL     1      -6.689  -8.338   0.024  0.00  0.00    +0.023 A 
ATOM     11  C   UNL     1      -7.213  -7.052   0.029  0.00  0.00    +0.061 A 
ATOM     12  C   UNL     1      -6.399  -5.947   0.025  0.00  0.00    +0.086 A 
ATOM     13 CL   UNL     1      -7.104  -4.361   0.031  0.00  0.00    -0.080 Cl
ATOM     14 CL   UNL     1      -8.935  -6.837   0.041  0.00  0.00    -0.082 Cl
ATOM     15  H   UNL     1      -0.796  -4.816  -0.015  0.00  0.00    +0.157 HD
ENDROOT
BRANCH   1  17
ATOM     16  C   UNL     1      -1.085  -0.911   0.008  0.00  0.00    +0.020 C 
ATOM     17  C   UNL     1      -0.852  -2.248  -0.001  0.00  0.00    +0.069 C 
BRANCH  16  22
ATOM     18  C   UNL     1      -0.017   1.386   0.010  0.00  0.00    +0.018 A 
ATOM     19  C   UNL     1       1.213   1.998   0.001  0.00  0.00    +0.041 A 
ATOM     20  C   UNL     1       2.332   1.231  -0.014  0.00  0.00    +0.164 A 
ATOM     21  S   UNL     1       1.752  -0.346  -0.017  0.00  0.00    -0.065 S 
ATOM     22  C   UNL     1       0.002  -0.004   0.002  0.00  0.00    +0.015 A 
BRANCH  20  23
ATOM     23  N   UNL     1       3.742   1.680  -0.025  0.00  0.00    +0.063 N 
ATOM     24  O   UNL     1       4.000   2.861  -0.022  0.00  0.00    -0.126 OA
ATOM     25  O   UNL     1       4.636   0.866  -0.038  0.00  0.00    -0.126 OA
ENDBRANCH  20  23
ENDBRANCH  16  22
ENDBRANCH   1  17
TORSDOF 3
