REMARK  Name = ZINC13500144
REMARK  11 active torsions:
REMARK  status: ('A' for Active; 'I' for Inactive)
REMARK    1  A    between atoms: C_1  and  C_2
REMARK    2  A    between atoms: C_2  and  C_3
REMARK    3  A    between atoms: C_3  and  C_4
REMARK    4  A    between atoms: C_4  and  C_6
REMARK    5  A    between atoms: C_4  and  N_70
REMARK    6  A    between atoms: N_10  and  C_11
REMARK    7  A    between atoms: C_11  and  C_12
REMARK    8  A    between atoms: C_18  and  C_19
REMARK    9  A    between atoms: C_18  and  N_70
REMARK   10  A    between atoms: C_23  and  C_31
REMARK   11  A    between atoms: C_32  and  N_70
REMARK                            x       y       z     vdW  Elec       q    Type
REMARK                         _______ _______ _______ _____ _____    ______ ____
ROOT
ATOM      1  N   UNL     1       3.424   5.967   2.331  0.00  0.00    +0.391 N 
ATOM      2  H   UNL     1       3.125   6.317   3.249  0.00  0.00    -0.080 HD
ENDROOT
BRANCH   1   3
ATOM      3  C   UNL     1       3.273   7.048   1.334  0.00  0.00    -0.067 C 
ATOM      4  C   UNL     1       4.093   6.747   0.062  0.00  0.00    -0.015 C 
ATOM      5  C   UNL     1       4.640   8.130  -0.372  0.00  0.00    -0.002 C 
ATOM      6  C   UNL     1       4.970   8.809   0.980  0.00  0.00    -0.002 C 
ATOM      7  C   UNL     1       3.830   8.359   1.917  0.00  0.00    -0.015 C 
ENDBRANCH   1   3
BRANCH   1   8
ATOM      8  C   UNL     1       2.577   4.814   1.958  0.00  0.00    +0.003 C 
BRANCH   8   9
ATOM      9  C   UNL     1       3.259   3.979   0.905  0.00  0.00    +0.138 A 
ATOM     10  N   UNL     1       3.771   4.407  -0.223  0.00  0.00    -0.115 NA
ATOM     11  N   UNL     1       4.261   3.392  -0.848  0.00  0.00    -0.023 NA
ATOM     12  N   UNL     1       4.079   2.329  -0.145  0.00  0.00    -0.044 NA
ATOM     13  N   UNL     1       3.460   2.649   0.940  0.00  0.00    -0.228 N 
BRANCH  13  14
ATOM     14  C   UNL     1       3.057   1.736   2.013  0.00  0.00    +0.178 C 
BRANCH  14  15
ATOM     15  C   UNL     1       1.648   1.209   1.732  0.00  0.00    +0.140 C 
ATOM     16  C   UNL     1       1.189   0.250   2.859  0.00  0.00    +0.035 C 
ATOM     17  C   UNL     1       0.135  -0.622   2.134  0.00  0.00    +0.031 C 
ATOM     18  C   UNL     1       0.478  -0.465   0.640  0.00  0.00    +0.160 C 
ATOM     19  O   UNL     1       1.643   0.373   0.555  0.00  0.00    -0.375 OA
ENDBRANCH  14  15
ENDBRANCH  13  14
ENDBRANCH   8   9
BRANCH   8  20
ATOM     20  C   UNL     1       1.239   5.324   1.417  0.00  0.00    -0.008 C 
BRANCH  20  22
ATOM     21  C   UNL     1      -0.808   6.645   1.967  0.00  0.00    +0.004 C 
ATOM     22  C   UNL     1       0.577   6.224   2.462  0.00  0.00    -0.005 C 
ENDBRANCH  20  22
ENDBRANCH   8  20
ENDBRANCH   1   8
BRANCH   1  23
ATOM     23  C   UNL     1       4.839   5.549   2.413  0.00  0.00    -0.036 C 
BRANCH  23  24
ATOM     24  C   UNL     1       5.056   4.837   3.723  0.00  0.00    +0.001 A 
ATOM     25  C   UNL     1       5.064   3.482   3.762  0.00  0.00    +0.017 A 
ATOM     26  C   UNL     1       5.278   2.820   5.050  0.00  0.00    -0.001 A 
ATOM     27  C   UNL     1       5.295   1.425   5.153  0.00  0.00    +0.013 A 
ATOM     28  C   UNL     1       5.498   0.839   6.370  0.00  0.00    -0.050 A 
ATOM     29  C   UNL     1       5.686   1.614   7.506  0.00  0.00    +0.005 A 
ATOM     30  C   UNL     1       5.672   2.990   7.428  0.00  0.00    +0.026 A 
ATOM     31  C   UNL     1       5.468   3.610   6.200  0.00  0.00    +0.049 A 
ATOM     32  N   UNL     1       5.449   4.984   6.093  0.00  0.00    -0.322 N 
ATOM     33  H   UNL     1       5.581   5.527   6.886  0.00  0.00    +0.169 HD
ATOM     34  C   UNL     1       5.257   5.583   4.904  0.00  0.00    +0.251 A 
ATOM     35  O   UNL     1       5.252   6.801   4.846  0.00  0.00    -0.268 OA
ATOM     36  C   UNL     1       5.517  -0.664   6.481  0.00  0.00    +0.044 C 
ENDBRANCH  23  24
ENDBRANCH   1  23
TORSDOF 9
