REMARK  Name = ZINC10395931
REMARK  9 active torsions:
REMARK  status: ('A' for Active; 'I' for Inactive)
REMARK    1  A    between atoms: C_1  and  C_2
REMARK    2  A    between atoms: C_3  and  C_26
REMARK    3  A    between atoms: C_7  and  N_25
REMARK    4  A    between atoms: C_9  and  C_11
REMARK    5  A    between atoms: C_11  and  O_12
REMARK    6  A    between atoms: O_12  and  C_13
REMARK    7  A    between atoms: C_13  and  C_15
REMARK    8  A    between atoms: C_15  and  N_16
REMARK    9  A    between atoms: C_17  and  C_19
REMARK                            x       y       z     vdW  Elec       q    Type
REMARK                         _______ _______ _______ _____ _____    ______ ____
ROOT
ATOM      1  C   UNL     1       1.526   6.238  -0.026  0.00  0.00    +0.308 C 
ENDROOT
BRANCH   1  10
ATOM      2  C   UNL     1       6.878  10.129   0.856  0.00  0.00    +0.045 C 
ATOM      3  C   UNL     1       6.115   9.560  -0.313  0.00  0.00    -0.028 A 
ATOM      4  C   UNL     1       6.502   9.824  -1.569  0.00  0.00    -0.008 A 
ATOM      5  S   UNL     1       5.311   8.948  -2.566  0.00  0.00    -0.074 S 
ATOM      6  C   UNL     1       4.325   8.251  -1.267  0.00  0.00    +0.114 A 
ATOM      7  C   UNL     1       4.951   8.720  -0.091  0.00  0.00    +0.050 A 
ATOM      8  C   UNL     1       4.351   8.300   1.127  0.00  0.00    +0.128 A 
ATOM      9  N   UNL     1       3.277   7.528   1.085  0.00  0.00    -0.214 NA
ATOM     10  C   UNL     1       2.747   7.122  -0.054  0.00  0.00    +0.170 A 
ATOM     11  N   UNL     1       3.258   7.478  -1.217  0.00  0.00    -0.221 NA
ATOM     12  C   UNL     1       7.668  10.662  -2.030  0.00  0.00    +0.052 C 
BRANCH   8  13
ATOM     13  N   UNL     1       4.879   8.699   2.342  0.00  0.00    -0.343 N 
ATOM     14  H   UNL     1       4.409   8.371   3.281  0.00  0.00    +0.144 HD
ATOM     15  H   UNL     1       5.769   9.345   2.369  0.00  0.00    +0.144 HD
ENDBRANCH   8  13
ENDBRANCH   1  10
BRANCH   1  16
ATOM     16  O   UNL     1       1.938   4.846  -0.003  0.00  0.00    -0.456 OA
BRANCH  16  17
ATOM     17  C   UNL     1       0.963   3.923   0.024  0.00  0.00    +0.325 C 
ATOM     18  O   UNL     1      -0.195   4.267   0.028  0.00  0.00    -0.249 OA
BRANCH  17  19
ATOM     19  C   UNL     1       1.314   2.458   0.050  0.00  0.00    +0.224 C 
BRANCH  19  20
ATOM     20  N   UNL     1       0.084   1.662   0.076  0.00  0.00    -0.305 N 
ATOM     21  C   UNL     1       0.153   0.316   0.102  0.00  0.00    +0.217 C 
ATOM     22  O   UNL     1       1.232  -0.236   0.103  0.00  0.00    -0.276 OA
ATOM     23  H   UNL     1      -0.895   2.162   0.076  0.00  0.00    +0.149 HD
BRANCH  21  24
ATOM     24  C   UNL     1      -1.112  -0.503   0.130  0.00  0.00    +0.075 C 
ATOM     25  C   UNL     1      -1.921  -0.150   1.380  0.00  0.00    +0.013 C 
ATOM     26  C   UNL     1      -3.205  -0.981   1.408  0.00  0.00    +0.001 C 
ATOM     27  C   UNL     1      -2.849  -2.469   1.433  0.00  0.00    +0.000 C 
ATOM     28  C   UNL     1      -2.041  -2.822   0.183  0.00  0.00    +0.001 C 
ATOM     29  C   UNL     1      -0.756  -1.990   0.155  0.00  0.00    +0.013 C 
ENDBRANCH  21  24
ENDBRANCH  19  20
ENDBRANCH  17  19
ENDBRANCH  16  17
ENDBRANCH   1  16
TORSDOF 7
