REMARK  Name = ZINC13848542
REMARK  11 active torsions:
REMARK  status: ('A' for Active; 'I' for Inactive)
REMARK    1  A    between atoms: C_1  and  C_2
REMARK    2  A    between atoms: C_4  and  O_9
REMARK    3  A    between atoms: O_9  and  C_10
REMARK    4  A    between atoms: C_10  and  C_11
REMARK    5  A    between atoms: C_14  and  S_19
REMARK    6  A    between atoms: N_15  and  C_16
REMARK    7  A    between atoms: C_16  and  C_17
REMARK    8  A    between atoms: S_19  and  C_20
REMARK    9  A    between atoms: C_20  and  C_21
REMARK   10  A    between atoms: N_23  and  C_24
REMARK   11  A    between atoms: C_27  and  N_30
REMARK                            x       y       z     vdW  Elec       q    Type
REMARK                         _______ _______ _______ _____ _____    ______ ____
ROOT
ATOM      1  C   UNL     1       1.202   1.745   0.024  0.00  0.00    +0.172 A 
ATOM      2  N   UNL     1      -0.016   1.281   0.038  0.00  0.00    -0.130 NA
ATOM      3  N   UNL     1       0.002  -0.004   0.024  0.00  0.00    -0.122 NA
ATOM      4  C   UNL     1       1.242  -0.433   0.001  0.00  0.00    +0.192 A 
ATOM      5  N   UNL     1       2.047   0.670   0.001  0.00  0.00    -0.299 N 
ENDROOT
BRANCH   1   6
ATOM      6  C   UNL     1       1.604   3.197   0.033  0.00  0.00    +0.305 C 
BRANCH   6   7
ATOM      7  O   UNL     1       1.752   3.643   1.383  0.00  0.00    -0.484 OA
BRANCH   7  11
ATOM      8  C   UNL     1       2.820   7.299   4.434  0.00  0.00    +0.045 C 
ATOM      9  C   UNL     1       2.644   6.757   3.039  0.00  0.00    -0.029 A 
ATOM     10  C   UNL     1       2.276   5.438   2.852  0.00  0.00    +0.050 A 
ATOM     11  C   UNL     1       2.114   4.939   1.568  0.00  0.00    +0.121 A 
ATOM     12  C   UNL     1       2.329   5.764   0.473  0.00  0.00    +0.047 A 
ATOM     13  C   UNL     1       2.692   7.083   0.664  0.00  0.00    +0.024 A 
ATOM     14  C   UNL     1       2.853   7.579   1.946  0.00  0.00    +0.044 A 
ATOM     15 CL   UNL     1       3.316   9.235   2.183  0.00  0.00    -0.083 Cl
ENDBRANCH   7  11
ENDBRANCH   6   7
ENDBRANCH   1   6
BRANCH   5  16
ATOM     16  C   UNL     1       3.511   0.697  -0.021  0.00  0.00    +0.152 C 
BRANCH  16  17
ATOM     17  C   UNL     1       3.992   0.720  -1.449  0.00  0.00    -0.013 C 
ATOM     18  C   UNL     1       4.801   1.668  -1.853  0.00  0.00    +0.005 C 
ENDBRANCH  16  17
ENDBRANCH   5  16
BRANCH   4  19
ATOM     19  S   UNL     1       1.769  -2.114  -0.024  0.00  0.00    -0.077 S 
BRANCH  19  20
ATOM     20  C   UNL     1       0.163  -2.947  -0.008  0.00  0.00    +0.173 C 
BRANCH  20  21
ATOM     21  C   UNL     1       0.371  -4.440  -0.026  0.00  0.00    +0.227 C 
ATOM     22  O   UNL     1       1.495  -4.895  -0.048  0.00  0.00    -0.275 OA
ATOM     23  N   UNL     1      -0.692  -5.269  -0.019  0.00  0.00    -0.285 N 
ATOM     24  H   UNL     1      -1.588  -4.907   0.066  0.00  0.00    +0.155 HD
BRANCH  23  25
ATOM     25  C   UNL     1      -0.503  -6.650  -0.134  0.00  0.00    +0.034 A 
ATOM     26  C   UNL     1      -1.428  -7.425  -0.821  0.00  0.00    +0.025 A 
ATOM     27  C   UNL     1      -1.235  -8.787  -0.937  0.00  0.00    +0.034 A 
ATOM     28  C   UNL     1      -0.128  -9.382  -0.360  0.00  0.00    +0.126 A 
ATOM     29  C   UNL     1       0.792  -8.615   0.330  0.00  0.00    +0.034 A 
ATOM     30  C   UNL     1       0.608  -7.251   0.444  0.00  0.00    +0.025 A 
BRANCH  28  31
ATOM     31  N   UNL     1       0.072 -10.844  -0.481  0.00  0.00    +0.056 N 
ATOM     32  O   UNL     1       1.047 -11.369   0.026  0.00  0.00    -0.126 OA
ATOM     33  O   UNL     1      -0.738 -11.521  -1.088  0.00  0.00    -0.126 OA
ENDBRANCH  28  31
ENDBRANCH  23  25
ENDBRANCH  20  21
ENDBRANCH  19  20
ENDBRANCH   4  19
TORSDOF 10
