REMARK  Name = ZINC21186976
REMARK  8 active torsions:
REMARK  status: ('A' for Active; 'I' for Inactive)
REMARK    1  A    between atoms: C_1  and  C_2
REMARK    2  A    between atoms: C_3  and  C_21
REMARK    3  A    between atoms: C_4  and  C_11
REMARK    4  A    between atoms: N_9  and  C_10
REMARK    5  A    between atoms: C_16  and  O_17
REMARK    6  A    between atoms: O_17  and  C_18
REMARK    7  A    between atoms: N_23  and  C_24
REMARK    8  A    between atoms: C_27  and  N_30
REMARK                            x       y       z     vdW  Elec       q    Type
REMARK                         _______ _______ _______ _____ _____    ______ ____
ROOT
ATOM      1  C   UNL     1      -0.808   1.602   1.846  0.00  0.00    +0.061 C 
ATOM      2  C   UNL     1      -0.516   0.255   1.237  0.00  0.00    +0.019 C 
ATOM      3  C   UNL     1      -1.526  -0.468   0.707  0.00  0.00    +0.056 C 
ATOM      4  C   UNL     1      -1.189  -1.817   0.105  0.00  0.00    +0.143 C 
ATOM      5  N   UNL     1       0.224  -2.232   0.147  0.00  0.00    -0.315 N 
ATOM      6  C   UNL     1       1.120  -1.399   0.712  0.00  0.00    +0.137 C 
ATOM      7  S   UNL     1       2.766  -1.867   0.767  0.00  0.00    -0.018 S 
ATOM      8  N   UNL     1       0.767  -0.213   1.224  0.00  0.00    -0.289 N 
ATOM      9  C   UNL     1       1.814   0.626   1.811  0.00  0.00    +0.137 C 
ATOM     10  H   UNL     1       0.502  -3.085  -0.222  0.00  0.00    +0.149 HD
ENDROOT
BRANCH   4  11
ATOM     11  C   UNL     1      -1.626  -1.804  -1.337  0.00  0.00    +0.019 A 
ATOM     12  C   UNL     1      -1.889  -0.604  -1.969  0.00  0.00    +0.009 A 
ATOM     13  C   UNL     1      -2.290  -0.592  -3.292  0.00  0.00    +0.001 A 
ATOM     14  C   UNL     1      -2.429  -1.780  -3.986  0.00  0.00    +0.004 A 
ATOM     15  C   UNL     1      -2.166  -2.982  -3.359  0.00  0.00    +0.046 A 
ATOM     16  C   UNL     1      -1.758  -2.997  -2.033  0.00  0.00    +0.132 A 
BRANCH  16  17
ATOM     17  O   UNL     1      -1.495  -4.178  -1.415  0.00  0.00    -0.434 OA
BRANCH  17  18
ATOM     18  C   UNL     1      -1.663  -5.367  -2.189  0.00  0.00    +0.541 C 
ATOM     19  F   UNL     1      -3.006  -5.497  -2.558  0.00  0.00    -0.166 F 
ATOM     20  F   UNL     1      -0.868  -5.292  -3.338  0.00  0.00    -0.166 F 
ENDBRANCH  17  18
ENDBRANCH  16  17
ENDBRANCH   4  11
BRANCH   3  21
ATOM     21  C   UNL     1      -2.856   0.018   0.715  0.00  0.00    +0.248 C 
ATOM     22  O   UNL     1      -3.090   1.146   1.111  0.00  0.00    -0.270 OA
ATOM     23  N   UNL     1      -3.863  -0.767   0.284  0.00  0.00    -0.282 N 
ATOM     24  H   UNL     1      -3.693  -1.696   0.062  0.00  0.00    +0.155 HD
BRANCH  23  25
ATOM     25  C   UNL     1      -5.154  -0.242   0.157  0.00  0.00    +0.034 A 
ATOM     26  C   UNL     1      -5.332   1.088  -0.199  0.00  0.00    +0.025 A 
ATOM     27  C   UNL     1      -6.608   1.603  -0.324  0.00  0.00    +0.034 A 
ATOM     28  C   UNL     1      -7.706   0.795  -0.095  0.00  0.00    +0.126 A 
ATOM     29  C   UNL     1      -7.532  -0.530   0.259  0.00  0.00    +0.034 A 
ATOM     30  C   UNL     1      -6.259  -1.053   0.380  0.00  0.00    +0.025 A 
BRANCH  28  31
ATOM     31  N   UNL     1      -9.072   1.350  -0.230  0.00  0.00    +0.056 N 
ATOM     32  O   UNL     1      -9.226   2.508  -0.540  0.00  0.00    -0.126 OA
ATOM     33  O   UNL     1     -10.034   0.644  -0.030  0.00  0.00    -0.126 OA
ENDBRANCH  28  31
ENDBRANCH  23  25
ENDBRANCH   3  21
TORSDOF 6
