REMARK  Name = ZINC24642441
REMARK  9 active torsions:
REMARK  status: ('A' for Active; 'I' for Inactive)
REMARK    1  A    between atoms: C_1  and  C_2
REMARK    2  A    between atoms: C_2  and  C_3
REMARK    3  A    between atoms: C_3  and  C_27
REMARK    4  A    between atoms: N_6  and  N_10
REMARK    5  A    between atoms: C_11  and  C_13
REMARK    6  A    between atoms: C_13  and  C_14
REMARK    7  A    between atoms: C_14  and  C_15
REMARK    8  A    between atoms: C_15  and  C_16
REMARK    9  A    between atoms: C_18  and  C_21
REMARK                            x       y       z     vdW  Elec       q    Type
REMARK                         _______ _______ _______ _____ _____    ______ ____
ROOT
ATOM      1  N   UNL     1       1.143   1.898   0.001  0.00  0.00    -0.224 N 
ATOM      2  C   UNL     1      -0.014   1.209   0.009  0.00  0.00    +0.230 C 
ATOM      3  O   UNL     1       0.002  -0.004   0.002  0.00  0.00    -0.274 OA
ATOM      4  H   UNL     1       1.129   2.998   0.007  0.00  0.00    +0.174 HD
ENDROOT
BRANCH   1   8
ATOM      5  C   UNL     1       4.356   0.290  -0.650  0.00  0.00    +0.139 C 
ATOM      6  C   UNL     1       3.157   1.103  -1.099  0.00  0.00    +0.268 C 
ATOM      7  O   UNL     1       2.953   1.556  -2.205  0.00  0.00    -0.271 OA
ATOM      8  N   UNL     1       2.366   1.214  -0.014  0.00  0.00    -0.137 N 
ATOM      9  C   UNL     1       2.895   0.597   1.048  0.00  0.00    +0.327 C 
ATOM     10  O   UNL     1       2.368   0.564   2.143  0.00  0.00    -0.251 OA
ATOM     11  N   UNL     1       4.075   0.013   0.769  0.00  0.00    -0.280 N 
ATOM     12  H   UNL     1       4.787  -0.575   1.366  0.00  0.00    +0.152 HD
BRANCH   5  13
ATOM     13  C   UNL     1       5.624   1.092  -0.796  0.00  0.00    -0.015 A 
ATOM     14  C   UNL     1       6.351   1.027  -1.970  0.00  0.00    +0.006 A 
ATOM     15  C   UNL     1       7.512   1.766  -2.105  0.00  0.00    +0.000 A 
ATOM     16  C   UNL     1       7.950   2.562  -1.063  0.00  0.00    +0.000 A 
ATOM     17  C   UNL     1       7.226   2.622   0.113  0.00  0.00    +0.000 A 
ATOM     18  C   UNL     1       6.063   1.887   0.246  0.00  0.00    +0.006 A 
ENDBRANCH   5  13
BRANCH   5  20
ATOM     19  C   UNL     1       3.175  -1.831  -1.238  0.00  0.00    +0.007 C 
ATOM     20  C   UNL     1       4.451  -1.014  -1.445  0.00  0.00    +0.037 C 
ENDBRANCH   5  20
ENDBRANCH   1   8
BRANCH   2  21
ATOM     21  C   UNL     1      -1.330   1.944   0.019  0.00  0.00    +0.098 C 
BRANCH  21  22
ATOM     22  C   UNL     1      -2.479   0.934   0.019  0.00  0.00    +0.019 C 
BRANCH  22  23
ATOM     23  C   UNL     1      -3.814   1.681   0.029  0.00  0.00    +0.099 C 
BRANCH  23  24
ATOM     24  C   UNL     1      -4.946   0.686   0.029  0.00  0.00    +0.228 A 
ATOM     25  N   UNL     1      -5.522   0.163   1.083  0.00  0.00    -0.191 NA
ATOM     26  C   UNL     1      -6.477  -0.665   0.601  0.00  0.00    +0.202 A 
ATOM     27  N   UNL     1      -6.420  -0.602  -0.704  0.00  0.00    -0.056 NA
ATOM     28  O   UNL     1      -5.547   0.168  -1.046  0.00  0.00    -0.338 OA
BRANCH  26  29
ATOM     29  C   UNL     1      -7.411  -1.493   1.404  0.00  0.00    +0.022 A 
ATOM     30  C   UNL     1      -7.353  -1.462   2.796  0.00  0.00    +0.012 A 
ATOM     31  C   UNL     1      -8.228  -2.231   3.537  0.00  0.00    +0.001 A 
ATOM     32  C   UNL     1      -9.153  -3.038   2.900  0.00  0.00    +0.000 A 
ATOM     33  C   UNL     1      -9.211  -3.077   1.519  0.00  0.00    +0.001 A 
ATOM     34  C   UNL     1      -8.345  -2.308   0.768  0.00  0.00    +0.012 A 
ENDBRANCH  26  29
ENDBRANCH  23  24
ENDBRANCH  22  23
ENDBRANCH  21  22
ENDBRANCH   2  21
TORSDOF 8
