REMARK  Name = ZINC14038035
REMARK  11 active torsions:
REMARK  status: ('A' for Active; 'I' for Inactive)
REMARK    1  A    between atoms: C_1  and  C_2
REMARK    2  A    between atoms: C_2  and  C_3
REMARK    3  A    between atoms: C_6  and  O_10
REMARK    4  A    between atoms: O_10  and  C_11
REMARK    5  A    between atoms: C_11  and  C_12
REMARK    6  A    between atoms: N_14  and  N_15
REMARK    7  A    between atoms: C_16  and  C_18
REMARK    8  A    between atoms: C_18  and  C_20
REMARK    9  A    between atoms: C_18  and  O_21
REMARK   10  A    between atoms: O_21  and  C_22
REMARK   11  A    between atoms: C_25  and  N_28
REMARK                            x       y       z     vdW  Elec       q    Type
REMARK                         _______ _______ _______ _____ _____    ______ ____
ROOT
ATOM      1  N   UNL     1      -3.364   5.817   8.389  0.00  0.00    -0.231 N 
ATOM      2  C   UNL     1      -3.184   6.976   9.053  0.00  0.00    +0.270 C 
ATOM      3  O   UNL     1      -2.233   7.682   8.794  0.00  0.00    -0.270 OA
ATOM      4  H   UNL     1      -4.125   5.252   8.596  0.00  0.00    +0.173 HD
ENDROOT
BRANCH   1   7
ATOM      5  C   UNL     1      -2.631   4.269   6.736  0.00  0.00    +0.267 C 
ATOM      6  O   UNL     1      -3.582   3.563   6.995  0.00  0.00    -0.271 OA
ATOM      7  N   UNL     1      -2.451   5.428   7.400  0.00  0.00    -0.231 N 
ATOM      8  H   UNL     1      -1.690   5.992   7.193  0.00  0.00    +0.173 HD
BRANCH   5   9
ATOM      9  C   UNL     1      -1.649   3.850   5.672  0.00  0.00    +0.326 C 
BRANCH   9  10
ATOM     10  O   UNL     1      -2.053   2.596   5.119  0.00  0.00    -0.482 OA
BRANCH  10  14
ATOM     11  C   UNL     1       0.326   1.009   2.143  0.00  0.00    -0.046 A 
ATOM     12  C   UNL     1       0.662   2.217   2.726  0.00  0.00    +0.007 A 
ATOM     13  C   UNL     1      -0.135   2.753   3.718  0.00  0.00    +0.047 A 
ATOM     14  C   UNL     1      -1.269   2.073   4.139  0.00  0.00    +0.135 A 
ATOM     15  C   UNL     1      -1.602   0.858   3.557  0.00  0.00    +0.060 A 
ATOM     16  C   UNL     1      -0.803   0.329   2.560  0.00  0.00    +0.022 A 
ATOM     17 BR   UNL     1      -3.146  -0.074   4.127  0.00  0.00    -0.047 Br
BRANCH  11  19
ATOM     18  C   UNL     1       0.705   0.925  -0.306  0.00  0.00    +0.009 C 
ATOM     19  C   UNL     1       1.195   0.430   1.056  0.00  0.00    +0.032 C 
ENDBRANCH  11  19
ENDBRANCH  10  14
ENDBRANCH   9  10
ENDBRANCH   5   9
ENDBRANCH   1   7
BRANCH   2  20
ATOM     20  C   UNL     1      -4.166   7.395  10.116  0.00  0.00    +0.257 C 
ATOM     21  C   UNL     1      -4.112   6.403  11.280  0.00  0.00    +0.062 C 
BRANCH  20  22
ATOM     22  O   UNL     1      -3.829   8.701  10.588  0.00  0.00    -0.480 OA
BRANCH  22  23
ATOM     23  C   UNL     1      -4.832   9.438  11.133  0.00  0.00    +0.122 A 
ATOM     24  C   UNL     1      -6.090   8.879  11.308  0.00  0.00    +0.048 A 
ATOM     25  C   UNL     1      -7.107   9.629  11.867  0.00  0.00    +0.036 A 
ATOM     26  C   UNL     1      -6.875  10.939  12.241  0.00  0.00    +0.126 A 
ATOM     27  C   UNL     1      -5.624  11.501  12.062  0.00  0.00    +0.036 A 
ATOM     28  C   UNL     1      -4.603  10.754  11.509  0.00  0.00    +0.048 A 
BRANCH  26  29
ATOM     29  N   UNL     1      -7.968  11.742  12.834  0.00  0.00    +0.056 N 
ATOM     30  O   UNL     1      -7.765  12.897  13.165  0.00  0.00    -0.126 OA
ATOM     31  O   UNL     1      -9.070  11.248  12.992  0.00  0.00    -0.126 OA
ENDBRANCH  26  29
ENDBRANCH  22  23
ENDBRANCH  20  22
ENDBRANCH   2  20
TORSDOF 9
