REMARK  Name = ZINC66179811
REMARK  13 active torsions:
REMARK  status: ('A' for Active; 'I' for Inactive)
REMARK    1  A    between atoms: C_1  and  C_2
REMARK    2  A    between atoms: C_2  and  C_3
REMARK    3  A    between atoms: C_3  and  C_4
REMARK    4  A    between atoms: C_3  and  C_6
REMARK    5  A    between atoms: C_3  and  N_25
REMARK    6  A    between atoms: C_4  and  C_5
REMARK    7  A    between atoms: C_6  and  N_7
REMARK    8  A    between atoms: N_10  and  C_11
REMARK    9  A    between atoms: N_10  and  C_12
REMARK   10  A    between atoms: N_15  and  C_18
REMARK   11  A    between atoms: C_21  and  C_24
REMARK   12  A    between atoms: N_25  and  C_26
REMARK   13  A    between atoms: N_25  and  C_27
REMARK                            x       y       z     vdW  Elec       q    Type
REMARK                         _______ _______ _______ _____ _____    ______ ____
ROOT
ATOM      1  N   UNL     1       2.587  -0.255   0.098  0.00  0.00    -0.301 N 
ATOM      2  C   UNL     1       3.704   0.344   0.555  0.00  0.00    +0.302 C 
ATOM      3  O   UNL     1       4.054   1.412   0.090  0.00  0.00    -0.253 OA
ATOM      4  N   UNL     1       4.433  -0.239   1.527  0.00  0.00    -0.286 N 
ATOM      5  C   UNL     1       4.011  -1.525   2.087  0.00  0.00    +0.134 C 
ATOM      6  H   UNL     1       2.307  -1.107   0.469  0.00  0.00    +0.150 HD
ENDROOT
BRANCH   4   7
ATOM      7  C   UNL     1       5.647   0.413   2.023  0.00  0.00    +0.074 C 
ATOM      8  C   UNL     1       5.506   0.684   3.524  0.00  0.00    +0.004 C 
ATOM      9  C   UNL     1       6.807   1.292   4.051  0.00  0.00    -0.077 C 
ATOM     10  N   UNL     1       7.916   0.357   3.824  0.00  0.00    +0.382 N 
ATOM     11  C   UNL     1       8.103   0.148   2.383  0.00  0.00    -0.077 C 
ATOM     12  C   UNL     1       6.852  -0.504   1.791  0.00  0.00    +0.004 C 
ATOM     13  H   UNL     1       7.707  -0.525   4.266  0.00  0.00    -0.081 HD
BRANCH  10  14
ATOM     14  C   UNL     1       9.148   0.911   4.401  0.00  0.00    -0.069 C 
ATOM     15  C   UNL     1      10.304  -0.063   4.165  0.00  0.00    -0.015 C 
ATOM     16  C   UNL     1      11.588   0.514   4.766  0.00  0.00    +0.002 C 
ATOM     17  C   UNL     1      11.397   0.724   6.270  0.00  0.00    -0.014 C 
ATOM     18  C   UNL     1      10.240   1.698   6.506  0.00  0.00    +0.002 C 
ATOM     19  C   UNL     1       8.957   1.121   5.905  0.00  0.00    -0.015 C 
ATOM     20  C   UNL     1      11.079  -0.616   6.935  0.00  0.00    +0.007 C 
ENDBRANCH  10  14
ENDBRANCH   4   7
BRANCH   1  21
ATOM     21  C   UNL     1       1.795   0.379  -0.959  0.00  0.00    +0.094 C 
BRANCH  21  22
ATOM     22  C   UNL     1       0.685  -0.575  -1.406  0.00  0.00    -0.051 C 
BRANCH  22  23
ATOM     23  N   UNL     1       1.281  -1.746  -2.062  0.00  0.00    +0.381 N 
ATOM     24  C   UNL     1       2.075  -2.503  -1.085  0.00  0.00    -0.096 C 
ATOM     25  C   UNL     1       0.214  -2.604  -2.595  0.00  0.00    -0.096 C 
ATOM     26  H   UNL     1       1.877  -1.442  -2.817  0.00  0.00    -0.082 HD
ENDBRANCH  22  23
BRANCH  22  28
ATOM     27  C   UNL     1      -0.742   0.193   0.496  0.00  0.00    +0.002 C 
ATOM     28  C   UNL     1      -0.121  -1.028  -0.187  0.00  0.00    -0.014 C 
ENDBRANCH  22  28
BRANCH  22  29
ATOM     29  C   UNL     1      -0.240   0.145  -2.390  0.00  0.00    -0.014 C 
ATOM     30  C   UNL     1       0.550   0.534  -3.641  0.00  0.00    +0.002 C 
ENDBRANCH  22  29
ENDBRANCH  21  22
ENDBRANCH   1  21
TORSDOF 7
