REMARK  Name = ZINC65156778
REMARK  5 active torsions:
REMARK  status: ('A' for Active; 'I' for Inactive)
REMARK    1  A    between atoms: C_1  and  N_2
REMARK    2  A    between atoms: C_4  and  C_8
REMARK    3  A    between atoms: N_10  and  C_11
REMARK    4  A    between atoms: C_16  and  C_17
REMARK    5  A    between atoms: C_21  and  C_23
REMARK                            x       y       z     vdW  Elec       q    Type
REMARK                         _______ _______ _______ _____ _____    ______ ____
ROOT
ATOM      1  C   UNL     1      -0.676  -3.809  -3.881  0.00  0.00    +0.044 A 
ATOM      2  C   UNL     1      -1.164  -2.803  -4.703  0.00  0.00    +0.024 A 
ATOM      3  C   UNL     1      -1.355  -3.041  -6.050  0.00  0.00    +0.002 A 
ATOM      4  C   UNL     1      -1.063  -4.282  -6.590  0.00  0.00    +0.001 A 
ATOM      5  C   UNL     1      -0.577  -5.293  -5.787  0.00  0.00    +0.013 A 
ATOM      6  C   UNL     1      -0.373  -5.064  -4.426  0.00  0.00    +0.040 A 
ENDROOT
BRANCH   6   7
ATOM      7  C   UNL     1       0.154  -6.142  -3.562  0.00  0.00    +0.158 A 
ATOM      8  N   UNL     1       0.581  -7.358  -3.977  0.00  0.00    -0.258 N 
ATOM      9  H   UNL     1       0.601  -7.686  -4.889  0.00  0.00    +0.191 HD
ATOM     10  N   UNL     1       0.990  -8.049  -2.825  0.00  0.00    -0.152 NA
ATOM     11  C   UNL     1       0.796  -7.242  -1.805  0.00  0.00    +0.182 A 
ATOM     12  N   UNL     1       0.295  -6.086  -2.254  0.00  0.00    -0.207 NA
BRANCH  11  13
ATOM     13  C   UNL     1       1.092  -7.560  -0.386  0.00  0.00    +0.021 A 
ATOM     14  C   UNL     1       0.836  -6.619   0.610  0.00  0.00    +0.011 A 
ATOM     15  C   UNL     1       1.112  -6.920   1.928  0.00  0.00    +0.001 A 
ATOM     16  C   UNL     1       1.643  -8.153   2.261  0.00  0.00    +0.000 A 
ATOM     17  C   UNL     1       1.900  -9.091   1.277  0.00  0.00    +0.001 A 
ATOM     18  C   UNL     1       1.621  -8.803  -0.043  0.00  0.00    +0.011 A 
ENDBRANCH  11  13
ENDBRANCH   6   7
BRANCH   1  21
ATOM     19  C   UNL     1      -1.326  -2.760  -1.851  0.00  0.00    +0.222 C 
ATOM     20  O   UNL     1      -2.203  -2.173  -2.447  0.00  0.00    -0.275 OA
ATOM     21  N   UNL     1      -0.482  -3.571  -2.520  0.00  0.00    -0.285 N 
ATOM     22  H   UNL     1       0.260  -3.988  -2.055  0.00  0.00    +0.155 HD
BRANCH  19  26
ATOM     23  C   UNL     1      -2.356   0.975   0.268  0.00  0.00    +0.132 C 
ATOM     24  N   UNL     1      -1.621  -0.289   0.174  0.00  0.00    -0.304 N 
ATOM     25  C   UNL     1      -2.249  -1.615   0.189  0.00  0.00    +0.120 C 
ATOM     26  C   UNL     1      -1.179  -2.584  -0.361  0.00  0.00    +0.101 C 
ATOM     27  C   UNL     1       0.130  -1.835  -0.019  0.00  0.00    +0.110 C 
ATOM     28  C   UNL     1      -0.285  -0.382   0.059  0.00  0.00    +0.216 C 
ATOM     29  O   UNL     1       0.477   0.561   0.024  0.00  0.00    -0.276 OA
ENDBRANCH  19  26
ENDBRANCH   1  21
TORSDOF 4
