REMARK  Name = ZINC57401572
REMARK  7 active torsions:
REMARK  status: ('A' for Active; 'I' for Inactive)
REMARK    1  A    between atoms: C_1  and  N_2
REMARK    2  A    between atoms: C_4  and  O_22
REMARK    3  A    between atoms: C_6  and  S_8
REMARK    4  A    between atoms: S_8  and  C_9
REMARK    5  A    between atoms: C_9  and  C_10
REMARK    6  A    between atoms: N_12  and  C_13
REMARK    7  A    between atoms: O_22  and  C_23
REMARK                            x       y       z     vdW  Elec       q    Type
REMARK                         _______ _______ _______ _____ _____    ______ ____
ROOT
ATOM      1  C   UNL     1       1.071   1.393  -0.267  0.00  0.00    +0.152 C 
ATOM      2  N   UNL     1       1.020  -0.071  -0.280  0.00  0.00    -0.247 N 
ATOM      3  C   UNL     1      -0.264  -0.793  -0.308  0.00  0.00    +0.221 C 
ATOM      4  C   UNL     1      -0.143  -1.989   0.606  0.00  0.00    +0.217 C 
ATOM      5  N   UNL     1       1.021  -2.520   0.833  0.00  0.00    -0.188 NA
ATOM      6  C   UNL     1       2.160  -2.032   0.275  0.00  0.00    +0.208 C 
ATOM      7  N   UNL     1       2.196  -0.846  -0.273  0.00  0.00    -0.157 NA
ENDROOT
BRANCH   6   8
ATOM      8  S   UNL     1       3.618  -3.022   0.283  0.00  0.00    -0.075 S 
BRANCH   8   9
ATOM      9  C   UNL     1       4.855  -1.988  -0.548  0.00  0.00    +0.173 C 
BRANCH   9  10
ATOM     10  C   UNL     1       6.167  -2.726  -0.609  0.00  0.00    +0.227 C 
ATOM     11  O   UNL     1       6.259  -3.840  -0.138  0.00  0.00    -0.275 OA
ATOM     12  N   UNL     1       7.239  -2.148  -1.187  0.00  0.00    -0.285 N 
ATOM     13  H   UNL     1       7.189  -1.229  -1.492  0.00  0.00    +0.155 HD
BRANCH  12  14
ATOM     14  C   UNL     1       8.425  -2.876  -1.349  0.00  0.00    +0.037 A 
ATOM     15  C   UNL     1       9.652  -2.237  -1.235  0.00  0.00    +0.027 A 
ATOM     16  C   UNL     1      10.823  -2.954  -1.393  0.00  0.00    +0.051 A 
ATOM     17  C   UNL     1      10.776  -4.311  -1.666  0.00  0.00    +0.166 A 
ATOM     18  C   UNL     1       9.546  -4.955  -1.781  0.00  0.00    +0.168 A 
ATOM     19  C   UNL     1       8.373  -4.237  -1.617  0.00  0.00    +0.072 A 
ATOM     20  O   UNL     1       9.768  -6.275  -2.051  0.00  0.00    -0.453 OA
ATOM     21  C   UNL     1      11.132  -6.351  -2.504  0.00  0.00    +0.466 C 
ATOM     22  O   UNL     1      11.768  -5.229  -1.864  0.00  0.00    -0.453 OA
ENDBRANCH  12  14
ENDBRANCH   9  10
ENDBRANCH   8   9
ENDBRANCH   6   8
BRANCH   4  23
ATOM     23  O   UNL     1      -1.244  -2.506   1.187  0.00  0.00    -0.440 OA
BRANCH  23  24
ATOM     24  C   UNL     1      -1.106  -3.643   1.920  0.00  0.00    +0.130 A 
ATOM     25  C   UNL     1      -0.365  -3.627   3.093  0.00  0.00    +0.048 A 
ATOM     26  C   UNL     1      -0.226  -4.782   3.836  0.00  0.00    +0.023 A 
ATOM     27  C   UNL     1      -0.823  -5.956   3.411  0.00  0.00    +0.041 A 
ATOM     28  C   UNL     1      -1.562  -5.974   2.241  0.00  0.00    +0.023 A 
ATOM     29  C   UNL     1      -1.709  -4.819   1.498  0.00  0.00    +0.048 A 
ATOM     30 CL   UNL     1      -0.646  -7.407   4.347  0.00  0.00    -0.084 Cl
ENDBRANCH  23  24
ENDBRANCH   4  23
TORSDOF 6
