REMARK  Name = ZINC66807374
REMARK  6 active torsions:
REMARK  status: ('A' for Active; 'I' for Inactive)
REMARK    1  A    between atoms: C_3  and  N_27
REMARK    2  A    between atoms: C_6  and  C_7
REMARK    3  A    between atoms: C_8  and  C_9
REMARK    4  A    between atoms: C_14  and  N_17
REMARK    5  A    between atoms: C_18  and  C_20
REMARK    6  A    between atoms: C_20  and  C_21
REMARK                            x       y       z     vdW  Elec       q    Type
REMARK                         _______ _______ _______ _____ _____    ______ ____
ROOT
ATOM      1  C   UNL     1      -2.494  -2.862   0.011  0.00  0.00    +0.239 C 
ATOM      2  O   UNL     1      -3.555  -2.275   0.119  0.00  0.00    -0.271 OA
ATOM      3  N   UNL     1      -2.475  -4.205  -0.098  0.00  0.00    -0.298 N 
ATOM      4  C   UNL     1      -1.201  -4.937  -0.110  0.00  0.00    +0.110 C 
ATOM      5  C   UNL     1      -1.158  -5.831  -1.353  0.00  0.00    +0.041 C 
ATOM      6  C   UNL     1      -2.398  -6.727  -1.376  0.00  0.00    +0.076 C 
ATOM      7  C   UNL     1      -3.656  -5.859  -1.449  0.00  0.00    +0.041 C 
ATOM      8  C   UNL     1      -3.728  -4.966  -0.201  0.00  0.00    +0.110 C 
ENDROOT
BRANCH   6   9
ATOM      9  N   UNL     1      -2.344  -7.607  -2.546  0.00  0.00    -0.312 N 
ATOM     10  C   UNL     1      -3.002  -8.783  -2.536  0.00  0.00    +0.214 C 
ATOM     11  O   UNL     1      -3.639  -9.113  -1.559  0.00  0.00    -0.276 OA
ATOM     12  H   UNL     1      -1.834  -7.343  -3.328  0.00  0.00    +0.149 HD
BRANCH  10  13
ATOM     13  C   UNL     1      -2.946  -9.688  -3.740  0.00  0.00    +0.099 C 
BRANCH  13  14
ATOM     14  C   UNL     1      -3.771 -10.948  -3.470  0.00  0.00    -0.002 C 
ATOM     15  C   UNL     1      -3.127 -11.745  -2.334  0.00  0.00    +0.004 C 
ATOM     16  C   UNL     1      -3.953 -13.005  -2.064  0.00  0.00    +0.000 C 
ATOM     17  C   UNL     1      -3.999 -13.865  -3.329  0.00  0.00    +0.000 C 
ATOM     18  C   UNL     1      -4.642 -13.067  -4.465  0.00  0.00    +0.000 C 
ATOM     19  C   UNL     1      -3.817 -11.808  -4.735  0.00  0.00    +0.004 C 
ENDBRANCH  13  14
ENDBRANCH  10  13
ENDBRANCH   6   9
BRANCH   1  21
ATOM     20  C   UNL     1      -1.261  -0.761   0.005  0.00  0.00    +0.013 C 
ATOM     21  C   UNL     1      -1.238  -2.109   0.000  0.00  0.00    +0.068 C 
BRANCH  20  27
ATOM     22  C   UNL     1      -0.018   1.395  -0.002  0.00  0.00    +0.010 A 
ATOM     23  C   UNL     1       1.169   2.097  -0.012  0.00  0.00    +0.033 A 
ATOM     24  C   UNL     1       2.377   1.421  -0.027  0.00  0.00    +0.126 A 
ATOM     25  C   UNL     1       2.404   0.038  -0.032  0.00  0.00    +0.033 A 
ATOM     26  C   UNL     1       1.226  -0.679  -0.022  0.00  0.00    +0.010 A 
ATOM     27  C   UNL     1       0.002  -0.004  -0.006  0.00  0.00    -0.025 A 
BRANCH  24  28
ATOM     28  N   UNL     1       3.646   2.183  -0.038  0.00  0.00    +0.056 N 
ATOM     29  O   UNL     1       3.626   3.392  -0.034  0.00  0.00    -0.126 OA
ATOM     30  O   UNL     1       4.703   1.596  -0.051  0.00  0.00    -0.126 OA
ENDBRANCH  24  28
ENDBRANCH  20  27
ENDBRANCH   1  21
TORSDOF 6
