REMARK  Name = ZINC66433736
REMARK  8 active torsions:
REMARK  status: ('A' for Active; 'I' for Inactive)
REMARK    1  A    between atoms: C_1  and  C_2
REMARK    2  A    between atoms: C_2  and  C_3
REMARK    3  A    between atoms: C_2  and  O_4
REMARK    4  A    between atoms: O_4  and  C_5
REMARK    5  A    between atoms: C_10  and  N_11
REMARK    6  A    between atoms: C_12  and  C_14
REMARK    7  A    between atoms: C_17  and  N_23
REMARK    8  A    between atoms: C_18  and  N_20
REMARK                            x       y       z     vdW  Elec       q    Type
REMARK                         _______ _______ _______ _____ _____    ______ ____
ROOT
ATOM      1  N   UNL     1      -3.870  -1.371  -0.149  0.00  0.00    -0.278 N 
ATOM      2  C   UNL     1      -5.114  -1.890  -0.178  0.00  0.00    +0.248 C 
ATOM      3  O   UNL     1      -5.332  -2.910  -0.803  0.00  0.00    -0.270 OA
ATOM      4  H   UNL     1      -3.708  -0.524   0.296  0.00  0.00    +0.155 HD
ENDROOT
BRANCH   1  10
ATOM      5  C   UNL     1      -1.534  -2.000  -0.209  0.00  0.00    +0.142 A 
ATOM      6  C   UNL     1      -0.491  -2.681  -0.815  0.00  0.00    +0.050 A 
ATOM      7  C   UNL     1      -0.718  -3.408  -1.969  0.00  0.00    +0.042 A 
ATOM      8  C   UNL     1      -1.986  -3.458  -2.523  0.00  0.00    +0.125 A 
ATOM      9  C   UNL     1      -3.032  -2.780  -1.922  0.00  0.00    +0.065 A 
ATOM     10  C   UNL     1      -2.812  -2.053  -0.761  0.00  0.00    +0.079 A 
ATOM     11  F   UNL     1      -2.202  -4.169  -3.651  0.00  0.00    -0.205 F 
BRANCH   5  12
ATOM     12  O   UNL     1      -1.312  -1.285   0.927  0.00  0.00    -0.488 OA
BRANCH  12  14
ATOM     13  C   UNL     1       0.250   0.199   2.021  0.00  0.00    +0.051 C 
ATOM     14  C   UNL     1       0.043  -1.167   1.365  0.00  0.00    +0.167 C 
ATOM     15  C   UNL     1       0.349  -2.272   2.378  0.00  0.00    +0.051 C 
ENDBRANCH  12  14
ENDBRANCH   5  12
ENDBRANCH   1  10
BRANCH   2  16
ATOM     16  C   UNL     1      -6.209  -1.220   0.548  0.00  0.00    +0.039 A 
ATOM     17  C   UNL     1      -5.961  -0.044   1.262  0.00  0.00    +0.015 A 
ATOM     18  C   UNL     1      -6.985   0.578   1.938  0.00  0.00    +0.026 A 
ATOM     19  C   UNL     1      -8.268   0.037   1.912  0.00  0.00    +0.060 A 
ATOM     20  C   UNL     1      -8.519  -1.134   1.202  0.00  0.00    +0.148 A 
ATOM     21  C   UNL     1      -7.500  -1.757   0.518  0.00  0.00    +0.047 A 
BRANCH  19  22
ATOM     22  N   UNL     1      -9.301   0.667   2.597  0.00  0.00    -0.328 N 
ATOM     23  C   UNL     1      -9.681   0.415   3.995  0.00  0.00    +0.105 C 
ATOM     24  C   UNL     1     -10.890   1.321   4.311  0.00  0.00    +0.020 C 
ATOM     25  C   UNL     1     -11.478   1.618   2.907  0.00  0.00    +0.020 C 
ATOM     26  C   UNL     1     -10.192   1.704   2.045  0.00  0.00    +0.105 C 
ENDBRANCH  19  22
BRANCH  20  27
ATOM     27  N   UNL     1      -9.884  -1.706   1.177  0.00  0.00    +0.058 N 
ATOM     28  O   UNL     1     -10.102  -2.722   0.560  0.00  0.00    -0.126 OA
ATOM     29  O   UNL     1     -10.780  -1.156   1.773  0.00  0.00    -0.126 OA
ENDBRANCH  20  27
ENDBRANCH   2  16
TORSDOF 6
