REMARK  Name = ZINC09127823
REMARK  14 active torsions:
REMARK  status: ('A' for Active; 'I' for Inactive)
REMARK    1  A    between atoms: C_1  and  C_2
REMARK    2  A    between atoms: C_2  and  C_3
REMARK    3  A    between atoms: C_3  and  N_4
REMARK    4  A    between atoms: C_5  and  C_35
REMARK    5  A    between atoms: C_7  and  C_10
REMARK    6  A    between atoms: C_8  and  C_9
REMARK    7  A    between atoms: C_11  and  C_12
REMARK    8  A    between atoms: C_11  and  C_14
REMARK    9  A    between atoms: C_14  and  O_16
REMARK   10  A    between atoms: O_16  and  C_17
REMARK   11  A    between atoms: C_17  and  C_18
REMARK   12  A    between atoms: N_20  and  C_21
REMARK   13  A    between atoms: C_24  and  S_27
REMARK   14  A    between atoms: S_27  and  N_30
REMARK                            x       y       z     vdW  Elec       q    Type
REMARK                         _______ _______ _______ _____ _____    ______ ____
ROOT
ATOM      1  C   UNL     1       3.023   1.286  -1.198  0.00  0.00    +0.328 C 
ENDROOT
BRANCH   1   2
ATOM      2  C   UNL     1       1.807   1.973  -1.764  0.00  0.00    +0.255 C 
ATOM      3  O   UNL     1       1.819   3.172  -1.947  0.00  0.00    -0.272 OA
ATOM      4  N   UNL     1       0.708   1.255  -2.067  0.00  0.00    -0.283 N 
ATOM      5  H   UNL     1       0.728   0.287  -2.008  0.00  0.00    +0.155 HD
BRANCH   4   6
ATOM      6  C   UNL     1      -0.463   1.906  -2.473  0.00  0.00    +0.034 A 
ATOM      7  C   UNL     1      -1.702   1.416  -2.084  0.00  0.00    +0.025 A 
ATOM      8  C   UNL     1      -2.855   2.065  -2.481  0.00  0.00    +0.030 A 
ATOM      9  C   UNL     1      -2.777   3.194  -3.274  0.00  0.00    +0.106 A 
ATOM     10  C   UNL     1      -1.544   3.682  -3.668  0.00  0.00    +0.030 A 
ATOM     11  C   UNL     1      -0.387   3.041  -3.270  0.00  0.00    +0.025 A 
BRANCH   9  12
ATOM     12  S   UNL     1      -4.250   4.014  -3.784  0.00  0.00    +0.061 S 
ATOM     13  O   UNL     1      -5.252   3.679  -2.834  0.00  0.00    -0.153 OA
ATOM     14  O   UNL     1      -3.889   5.359  -4.068  0.00  0.00    -0.153 OA
BRANCH  12  15
ATOM     15  N   UNL     1      -4.716   3.337  -5.222  0.00  0.00    -0.177 NA
ATOM     16  C   UNL     1      -4.308   3.796  -6.558  0.00  0.00    +0.109 C 
ATOM     17  C   UNL     1      -5.003   2.882  -7.589  0.00  0.00    +0.018 C 
ATOM     18  C   UNL     1      -6.213   2.324  -6.795  0.00  0.00    +0.018 C 
ATOM     19  C   UNL     1      -5.612   2.176  -5.374  0.00  0.00    +0.109 C 
ENDBRANCH  12  15
ENDBRANCH   9  12
ENDBRANCH   4   6
ENDBRANCH   1   2
BRANCH   1  20
ATOM     20  O   UNL     1       4.066   2.267  -0.957  0.00  0.00    -0.451 OA
BRANCH  20  21
ATOM     21  C   UNL     1       5.229   1.812  -0.447  0.00  0.00    +0.350 C 
ATOM     22  O   UNL     1       5.366   0.627  -0.210  0.00  0.00    -0.244 OA
BRANCH  21  24
ATOM     23  C   UNL     1       7.519   2.281   0.344  0.00  0.00    +0.035 C 
ATOM     24  C   UNL     1       6.327   2.747  -0.178  0.00  0.00    +0.136 C 
BRANCH  23  28
ATOM     25  N   UNL     1      10.574   4.017   1.072  0.00  0.00    -0.348 N 
ATOM     26  C   UNL     1       9.980   4.946   0.265  0.00  0.00    +0.016 A 
ATOM     27  C   UNL     1       8.787   4.482  -0.140  0.00  0.00    +0.030 A 
ATOM     28  C   UNL     1       8.625   3.158   0.478  0.00  0.00    -0.003 A 
ATOM     29  C   UNL     1       9.780   2.940   1.212  0.00  0.00    +0.023 A 
ATOM     30  C   UNL     1      10.092   1.710   2.025  0.00  0.00    +0.064 C 
ATOM     31  C   UNL     1      10.574   6.277  -0.116  0.00  0.00    +0.063 C 
BRANCH  25  32
ATOM     32  C   UNL     1      11.890   4.172   1.696  0.00  0.00    +0.121 C 
BRANCH  32  34
ATOM     33  C   UNL     1      14.341   3.782   1.411  0.00  0.00    +0.005 C 
ATOM     34  C   UNL     1      12.967   3.620   0.759  0.00  0.00    +0.018 C 
ENDBRANCH  32  34
ENDBRANCH  25  32
ENDBRANCH  23  28
BRANCH  24  35
ATOM     35  C   UNL     1       6.165   4.142  -0.458  0.00  0.00    +0.106 C 
ATOM     36  N   UNL     1       6.036   5.249  -0.679  0.00  0.00    -0.191 NA
ENDBRANCH  24  35
ENDBRANCH  21  24
ENDBRANCH  20  21
ENDBRANCH   1  20
TORSDOF 11
