REMARK  Name = ZINC64414858
REMARK  3 active torsions:
REMARK  status: ('A' for Active; 'I' for Inactive)
REMARK    1  A    between atoms: C_6  and  N_10
REMARK    2  A    between atoms: N_18  and  C_19
REMARK    3  A    between atoms: C_19  and  C_20
REMARK                            x       y       z     vdW  Elec       q    Type
REMARK                         _______ _______ _______ _____ _____    ______ ____
ROOT
ATOM      1  N   UNL     1       3.523  -2.752  -1.251  0.00  0.00    -0.263 NA
ATOM      2  C   UNL     1       3.042  -2.072  -2.461  0.00  0.00    +0.107 C 
ATOM      3  C   UNL     1       3.377  -2.924  -3.690  0.00  0.00    +0.125 C 
ATOM      4  N   UNL     1       4.817  -3.220  -3.675  0.00  0.00    -0.283 N 
ATOM      5  C   UNL     1       5.400  -3.778  -2.445  0.00  0.00    +0.125 C 
ATOM      6  C   UNL     1       4.986  -2.892  -1.265  0.00  0.00    +0.107 C 
ATOM      7  C   UNL     1       5.583  -2.988  -4.759  0.00  0.00    +0.303 C 
ATOM      8  O   UNL     1       5.070  -2.613  -5.796  0.00  0.00    -0.253 OA
ATOM      9  N   UNL     1       6.916  -3.170  -4.694  0.00  0.00    -0.295 N 
ATOM     10  H   UNL     1       7.317  -3.539  -3.892  0.00  0.00    +0.151 HD
ENDROOT
BRANCH   1  16
ATOM     11  C   UNL     1      -0.015   1.351   0.004  0.00  0.00    +0.002 A 
ATOM     12  C   UNL     1       1.159   2.125  -0.004  0.00  0.00    +0.002 A 
ATOM     13  C   UNL     1       2.390   1.577  -0.019  0.00  0.00    +0.027 A 
ATOM     14  C   UNL     1       2.533   0.115  -0.026  0.00  0.00    +0.061 A 
ATOM     15  N   UNL     1       3.570  -0.673  -0.040  0.00  0.00    -0.351 N 
ATOM     16  C   UNL     1       3.072  -2.055  -0.040  0.00  0.00    +0.252 C 
ATOM     17  N   UNL     1       1.607  -1.967  -0.025  0.00  0.00    -0.351 N 
ATOM     18  C   UNL     1       1.291  -0.705  -0.017  0.00  0.00    +0.061 A 
ATOM     19  C   UNL     1       0.003   0.003  -0.001  0.00  0.00    +0.027 A 
ATOM     20  H   UNL     1       4.500  -0.398  -0.048  0.00  0.00    +0.163 HD
ATOM     21  H   UNL     1       0.987  -2.714  -0.022  0.00  0.00    +0.163 HD
ENDBRANCH   1  16
BRANCH   9  22
ATOM     22  C   UNL     1       7.761  -2.812  -5.836  0.00  0.00    +0.148 C 
BRANCH  22  23
ATOM     23  C   UNL     1       9.201  -3.112  -5.510  0.00  0.00    +0.007 A 
ATOM     24  C   UNL     1       9.905  -4.252  -5.719  0.00  0.00    +0.013 A 
ATOM     25  C   UNL     1      11.231  -4.301  -5.334  0.00  0.00    +0.008 A 
ATOM     26  C   UNL     1      11.790  -3.208  -4.759  0.00  0.00    +0.045 A 
ATOM     27  S   UNL     1      10.426  -2.056  -4.753  0.00  0.00    -0.100 S 
ENDBRANCH  22  23
ENDBRANCH   9  22
TORSDOF 3
