REMARK  Name = ZINC64227496
REMARK  8 active torsions:
REMARK  status: ('A' for Active; 'I' for Inactive)
REMARK    1  A    between atoms: C_1  and  C_2
REMARK    2  A    between atoms: C_2  and  C_3
REMARK    3  A    between atoms: C_2  and  N_11
REMARK    4  A    between atoms: N_14  and  N_15
REMARK    5  A    between atoms: C_16  and  C_18
REMARK    6  A    between atoms: C_18  and  C_19
REMARK    7  A    between atoms: C_19  and  O_20
REMARK    8  A    between atoms: O_20  and  C_21
REMARK                            x       y       z     vdW  Elec       q    Type
REMARK                         _______ _______ _______ _____ _____    ______ ____
ROOT
ATOM      1  N   UNL     1       0.711  -0.489   1.189  0.00  0.00    -0.292 N 
ATOM      2  C   UNL     1       2.054  -0.600   1.174  0.00  0.00    +0.316 C 
ATOM      3  O   UNL     1       2.677  -0.297   0.175  0.00  0.00    -0.251 OA
ATOM      4  N   UNL     1       2.706  -1.046   2.266  0.00  0.00    -0.218 N 
ATOM      5  H   UNL     1       0.213  -0.731   1.986  0.00  0.00    +0.151 HD
ATOM      6  H   UNL     1       3.672  -1.126   2.255  0.00  0.00    +0.174 HD
ENDROOT
BRANCH   4   7
ATOM      7  N   UNL     1       1.987  -1.396   3.416  0.00  0.00    -0.233 N 
ATOM      8  C   UNL     1       2.639  -1.842   4.508  0.00  0.00    +0.232 C 
ATOM      9  O   UNL     1       3.848  -1.941   4.495  0.00  0.00    -0.274 OA
ATOM     10  H   UNL     1       1.020  -1.316   3.427  0.00  0.00    +0.173 HD
BRANCH   8  11
ATOM     11  C   UNL     1       1.866  -2.218   5.746  0.00  0.00    +0.138 C 
BRANCH  11  12
ATOM     12  C   UNL     1       2.837  -2.689   6.830  0.00  0.00    +0.238 C 
BRANCH  12  13
ATOM     13  O   UNL     1       2.104  -3.045   8.004  0.00  0.00    -0.491 OA
BRANCH  13  14
ATOM     14  C   UNL     1       2.822  -3.488   9.069  0.00  0.00    +0.121 A 
ATOM     15  C   UNL     1       4.205  -3.572   8.989  0.00  0.00    +0.045 A 
ATOM     16  C   UNL     1       4.933  -4.022  10.073  0.00  0.00    +0.004 A 
ATOM     17  C   UNL     1       4.285  -4.389  11.238  0.00  0.00    +0.000 A 
ATOM     18  C   UNL     1       2.907  -4.306  11.321  0.00  0.00    +0.004 A 
ATOM     19  C   UNL     1       2.175  -3.851  10.242  0.00  0.00    +0.045 A 
ENDBRANCH  13  14
ENDBRANCH  12  13
ENDBRANCH  11  12
ENDBRANCH   8  11
ENDBRANCH   4   7
BRANCH   1  21
ATOM     20  C   UNL     1      -0.019   1.526   0.010  0.00  0.00    +0.033 C 
ATOM     21  C   UNL     1       0.002  -0.004   0.002  0.00  0.00    +0.102 C 
BRANCH  21  22
ATOM     22  C   UNL     1      -1.412  -0.526   0.013  0.00  0.00    -0.026 A 
ATOM     23  C   UNL     1      -2.122  -0.571   1.198  0.00  0.00    +0.008 A 
ATOM     24  C   UNL     1      -3.419  -1.048   1.210  0.00  0.00    +0.040 A 
ATOM     25  C   UNL     1      -4.007  -1.482   0.034  0.00  0.00    +0.142 A 
ATOM     26  C   UNL     1      -3.295  -1.437  -1.154  0.00  0.00    +0.076 A 
ATOM     27  C   UNL     1      -1.999  -0.953  -1.163  0.00  0.00    +0.028 A 
ATOM     28 CL   UNL     1      -4.030  -1.980  -2.629  0.00  0.00    -0.081 Cl
ATOM     29  F   UNL     1      -5.275  -1.950   0.044  0.00  0.00    -0.204 F 
ENDBRANCH  21  22
ENDBRANCH   1  21
TORSDOF 7
