REMARK  Name = ZINC12533268
REMARK  12 active torsions:
REMARK  status: ('A' for Active; 'I' for Inactive)
REMARK    1  A    between atoms: C_1  and  O_2
REMARK    2  A    between atoms: O_2  and  C_3
REMARK    3  A    between atoms: C_3  and  C_5
REMARK    4  A    between atoms: C_8  and  C_31
REMARK    5  A    between atoms: C_9  and  N_11
REMARK    6  A    between atoms: C_12  and  C_14
REMARK    7  A    between atoms: C_14  and  O_15
REMARK    8  A    between atoms: O_15  and  C_16
REMARK    9  A    between atoms: C_16  and  C_18
REMARK   10  A    between atoms: C_27  and  O_30
REMARK   11  A    between atoms: C_31  and  O_33
REMARK   12  A    between atoms: O_33  and  C_34
REMARK                            x       y       z     vdW  Elec       q    Type
REMARK                         _______ _______ _______ _____ _____    ______ ____
ROOT
ATOM      1  N   UNL     1      -3.804  -4.493   0.039  0.00  0.00    -0.282 N 
ATOM      2  C   UNL     1      -4.846  -3.642  -0.029  0.00  0.00    +0.255 C 
ATOM      3  O   UNL     1      -4.651  -2.457  -0.197  0.00  0.00    -0.272 OA
ATOM      4  H   UNL     1      -3.961  -5.449   0.093  0.00  0.00    +0.155 HD
ENDROOT
BRANCH   1   9
ATOM      5  C   UNL     1      -0.844  -2.491  -0.846  0.00  0.00    +0.061 A 
ATOM      6  C   UNL     1       0.110  -3.026   0.025  0.00  0.00    +0.016 A 
ATOM      7  C   UNL     1      -0.235  -4.039   0.891  0.00  0.00    +0.017 A 
ATOM      8  C   UNL     1      -1.541  -4.536   0.903  0.00  0.00    +0.080 A 
ATOM      9  C   UNL     1      -2.501  -4.001   0.030  0.00  0.00    +0.048 A 
ATOM     10  C   UNL     1      -2.149  -2.976  -0.837  0.00  0.00    +0.039 A 
BRANCH   5  11
ATOM     11  C   UNL     1      -0.467  -1.403  -1.775  0.00  0.00    +0.339 C 
ATOM     12  O   UNL     1      -1.296  -0.934  -2.529  0.00  0.00    -0.245 OA
BRANCH  11  14
ATOM     13  C   UNL     1       1.089   0.118  -2.708  0.00  0.00    +0.280 C 
ATOM     14  O   UNL     1       0.795  -0.933  -1.785  0.00  0.00    -0.464 OA
ENDBRANCH  11  14
ENDBRANCH   5  11
BRANCH   8  15
ATOM     15  C   UNL     1      -1.910  -5.622   1.832  0.00  0.00    +0.341 C 
ATOM     16  O   UNL     1      -3.054  -6.030   1.865  0.00  0.00    -0.245 OA
BRANCH  15  17
ATOM     17  O   UNL     1      -0.979  -6.160   2.643  0.00  0.00    -0.464 OA
ATOM     18  C   UNL     1      -1.406  -7.208   3.516  0.00  0.00    +0.280 C 
ENDBRANCH  15  17
ENDBRANCH   8  15
ENDBRANCH   1   9
BRANCH   2  19
ATOM     19  C   UNL     1      -6.254  -4.162   0.105  0.00  0.00    +0.328 C 
BRANCH  19  20
ATOM     20  O   UNL     1      -7.176  -3.075   0.001  0.00  0.00    -0.455 OA
BRANCH  20  21
ATOM     21  C   UNL     1      -8.481  -3.372   0.100  0.00  0.00    +0.314 C 
ATOM     22  O   UNL     1      -8.830  -4.516   0.270  0.00  0.00    -0.250 OA
BRANCH  21  23
ATOM     23  C   UNL     1      -9.512  -2.277  -0.001  0.00  0.00    +0.071 C 
ATOM     24  C   UNL     1      -9.280  -1.254   1.112  0.00  0.00    +0.021 C 
ATOM     25  C   UNL     1     -10.326  -0.142   1.010  0.00  0.00    -0.007 C 
ATOM     26  C   UNL     1     -10.206   0.548  -0.350  0.00  0.00    +0.007 C 
ATOM     27  C   UNL     1     -10.438  -0.475  -1.464  0.00  0.00    -0.007 C 
ATOM     28  C   UNL     1      -9.392  -1.587  -1.361  0.00  0.00    +0.021 C 
ATOM     29  C   UNL     1     -11.837  -1.077  -1.319  0.00  0.00    +0.038 C 
ATOM     30  C   UNL     1     -11.958  -1.768   0.041  0.00  0.00    +0.068 C 
ATOM     31  C   UNL     1     -11.725  -0.744   1.155  0.00  0.00    +0.038 C 
ATOM     32  C   UNL     1     -10.911  -2.879   0.143  0.00  0.00    +0.052 C 
BRANCH  30  33
ATOM     33  O   UNL     1     -13.264  -2.330   0.176  0.00  0.00    -0.389 OA
ATOM     34  H   UNL     1     -13.979  -1.681   0.121  0.00  0.00    +0.210 HD
ENDBRANCH  30  33
ENDBRANCH  21  23
ENDBRANCH  20  21
ENDBRANCH  19  20
ENDBRANCH   2  19
TORSDOF 10
