REMARK  Name = ZINC13457505
REMARK  6 active torsions:
REMARK  status: ('A' for Active; 'I' for Inactive)
REMARK    1  A    between atoms: C_3  and  N_25
REMARK    2  A    between atoms: C_4  and  O_9
REMARK    3  A    between atoms: C_6  and  C_7
REMARK    4  A    between atoms: O_9  and  C_10
REMARK    5  A    between atoms: C_10  and  C_11
REMARK    6  A    between atoms: N_13  and  C_14
REMARK                            x       y       z     vdW  Elec       q    Type
REMARK                         _______ _______ _______ _____ _____    ______ ____
ROOT
ATOM      1  C   UNL     1       0.085  -0.000  -0.009  0.00  0.00    +0.255 C 
ATOM      2  O   UNL     1      -0.912  -0.685   0.083  0.00  0.00    -0.272 OA
ATOM      3  N   UNL     1      -0.016   1.344   0.009  0.00  0.00    -0.282 N 
ATOM      4  H   UNL     1       0.785   1.890   0.014  0.00  0.00    +0.155 HD
ENDROOT
BRANCH   3   5
ATOM      5  C   UNL     1      -1.279   1.951   0.016  0.00  0.00    +0.051 A 
ATOM      6  C   UNL     1      -2.377   1.276  -0.501  0.00  0.00    +0.073 A 
ATOM      7  C   UNL     1      -3.626   1.877  -0.495  0.00  0.00    +0.164 A 
ATOM      8  C   UNL     1      -3.778   3.155   0.031  0.00  0.00    +0.163 A 
ATOM      9  C   UNL     1      -2.679   3.827   0.545  0.00  0.00    +0.066 A 
ATOM     10  C   UNL     1      -1.434   3.226   0.543  0.00  0.00    +0.043 A 
ATOM     11 BR   UNL     1       0.059   4.143   1.254  0.00  0.00    -0.048 Br
ATOM     12  O   UNL     1      -4.998   3.760   0.050  0.00  0.00    -0.485 OA
ATOM     13  C   UNL     1      -6.001   3.211  -0.812  0.00  0.00    +0.270 C 
ATOM     14  C   UNL     1      -5.991   1.685  -0.649  0.00  0.00    +0.270 C 
ATOM     15  O   UNL     1      -4.692   1.204  -1.009  0.00  0.00    -0.485 OA
ENDBRANCH   3   5
BRANCH   1  16
ATOM     16  C   UNL     1       1.437  -0.652  -0.144  0.00  0.00    +0.325 C 
BRANCH  16  17
ATOM     17  O   UNL     1       1.284  -2.073  -0.138  0.00  0.00    -0.480 OA
BRANCH  17  21
ATOM     18  C   UNL     1       4.717  -4.352  -0.484  0.00  0.00    +0.017 A 
ATOM     19  C   UNL     1       3.486  -4.964  -0.369  0.00  0.00    +0.037 A 
ATOM     20  C   UNL     1       2.338  -4.203  -0.253  0.00  0.00    +0.168 A 
ATOM     21  C   UNL     1       2.416  -2.816  -0.252  0.00  0.00    +0.152 A 
ATOM     22  C   UNL     1       3.645  -2.191  -0.372  0.00  0.00    +0.063 A 
ATOM     23  C   UNL     1       4.806  -2.958  -0.484  0.00  0.00    +0.067 A 
BRANCH  23  24
ATOM     24  C   UNL     1       6.122  -2.298  -0.608  0.00  0.00    +0.387 C 
ATOM     25  O   UNL     1       6.196  -1.086  -0.607  0.00  0.00    -0.241 OA
ATOM     26  O   UNL     1       7.239  -3.042  -0.721  0.00  0.00    -0.241 OA
ENDBRANCH  23  24
BRANCH  20  27
ATOM     27  N   UNL     1       1.022  -4.868  -0.130  0.00  0.00    +0.060 N 
ATOM     28  O   UNL     1       0.951  -6.084  -0.131  0.00  0.00    -0.126 OA
ATOM     29  O   UNL     1       0.009  -4.199  -0.029  0.00  0.00    -0.126 OA
ENDBRANCH  20  27
ENDBRANCH  17  21
ENDBRANCH  16  17
ENDBRANCH   1  16
TORSDOF 6
