REMARK  Name = ZINC53324134
REMARK  6 active torsions:
REMARK  status: ('A' for Active; 'I' for Inactive)
REMARK    1  A    between atoms: N_9  and  C_13
REMARK    2  A    between atoms: C_13  and  C_14
REMARK    3  A    between atoms: N_16  and  C_17
REMARK    4  A    between atoms: C_17  and  C_18
REMARK    5  A    between atoms: C_18  and  C_19
REMARK    6  A    between atoms: N_21  and  C_22
REMARK                            x       y       z     vdW  Elec       q    Type
REMARK                         _______ _______ _______ _____ _____    ______ ____
ROOT
ATOM      1  C   UNL     1       6.032  -0.905  -3.191  0.00  0.00    +0.231 C 
ATOM      2  O   UNL     1       6.024   0.219  -2.736  0.00  0.00    -0.274 OA
ATOM      3  N   UNL     1       7.061  -1.314  -3.959  0.00  0.00    -0.314 N 
ATOM      4  H   UNL     1       7.068  -2.213  -4.323  0.00  0.00    +0.149 HD
ENDROOT
BRANCH   1   5
ATOM      5  C   UNL     1       4.891  -1.845  -2.897  0.00  0.00    +0.213 C 
BRANCH   5  14
ATOM      6  C   UNL     1      -0.019   1.526   0.010  0.00  0.00    +0.000 C 
ATOM      7  C   UNL     1       1.416   2.058  -0.000  0.00  0.00    +0.003 C 
ATOM      8  C   UNL     1       2.129   1.573  -1.265  0.00  0.00    +0.035 C 
ATOM      9  C   UNL     1       2.134   0.048  -1.295  0.00  0.00    +0.113 C 
ATOM     10  C   UNL     1       0.710  -0.496  -1.263  0.00  0.00    +0.035 C 
ATOM     11  C   UNL     1       0.002  -0.004   0.002  0.00  0.00    +0.003 C 
ATOM     12  C   UNL     1       2.864  -0.454  -2.519  0.00  0.00    +0.247 C 
ATOM     13  O   UNL     1       2.574  -0.256  -3.679  0.00  0.00    -0.273 OA
ATOM     14  N   UNL     1       3.907  -1.169  -2.049  0.00  0.00    -0.215 N 
ATOM     15  C   UNL     1       3.931  -1.183  -0.710  0.00  0.00    +0.310 C 
ATOM     16  O   UNL     1       4.776  -1.762  -0.056  0.00  0.00    -0.252 OA
ATOM     17  N   UNL     1       2.914  -0.485  -0.171  0.00  0.00    -0.285 N 
ATOM     18  H   UNL     1       2.732  -0.359   0.774  0.00  0.00    +0.151 HD
ENDBRANCH   5  14
ENDBRANCH   1   5
BRANCH   3  19
ATOM     19  C   UNL     1       8.171  -0.401  -4.244  0.00  0.00    +0.113 C 
BRANCH  19  20
ATOM     20  C   UNL     1       9.198  -1.108  -5.130  0.00  0.00    +0.114 C 
BRANCH  20  21
ATOM     21  C   UNL     1      10.339  -0.168  -5.423  0.00  0.00    +0.215 C 
ATOM     22  O   UNL     1      10.332   0.956  -4.968  0.00  0.00    -0.276 OA
ATOM     23  N   UNL     1      11.369  -0.577  -6.191  0.00  0.00    -0.312 N 
ATOM     24  H   UNL     1      11.375  -1.476  -6.555  0.00  0.00    +0.149 HD
BRANCH  23  25
ATOM     25  C   UNL     1      12.478   0.336  -6.476  0.00  0.00    +0.073 C 
ATOM     26  C   UNL     1      12.161   1.178  -7.730  0.00  0.00    +0.022 C 
ATOM     27  C   UNL     1      13.524   1.310  -8.453  0.00  0.00    +0.002 C 
ATOM     28  C   UNL     1      14.165  -0.083  -8.232  0.00  0.00    +0.002 C 
ATOM     29  C   UNL     1      13.752  -0.465  -6.796  0.00  0.00    +0.022 C 
ENDBRANCH  23  25
ENDBRANCH  20  21
ENDBRANCH  19  20
ENDBRANCH   3  19
TORSDOF 6
