REMARK  Name = ZINC14354621
REMARK  12 active torsions:
REMARK  status: ('A' for Active; 'I' for Inactive)
REMARK    1  A    between atoms: C_1  and  C_2
REMARK    2  A    between atoms: C_2  and  C_3
REMARK    3  A    between atoms: C_3  and  C_4
REMARK    4  A    between atoms: C_4  and  N_5
REMARK    5  A    between atoms: N_10  and  C_13
REMARK    6  A    between atoms: C_13  and  C_14
REMARK    7  A    between atoms: N_16  and  C_17
REMARK    8  A    between atoms: N_27  and  C_32
REMARK    9  A    between atoms: C_28  and  C_30
REMARK   10  A    between atoms: C_30  and  O_31
REMARK   11  A    between atoms: C_32  and  C_33
REMARK   12  A    between atoms: C_33  and  C_34
REMARK                            x       y       z     vdW  Elec       q    Type
REMARK                         _______ _______ _______ _____ _____    ______ ____
ROOT
ATOM      1  N   UNL     1      -2.956  -5.840   1.220  0.00  0.00    -0.276 N 
ATOM      2  C   UNL     1      -2.957  -6.573   0.044  0.00  0.00    +0.169 A 
ATOM      3  C   UNL     1      -2.978  -5.895  -1.169  0.00  0.00    +0.152 A 
ATOM      4  C   UNL     1      -3.002  -4.484  -1.168  0.00  0.00    +0.283 A 
ATOM      5  O   UNL     1      -3.026  -3.868  -2.218  0.00  0.00    -0.265 OA
ATOM      6  N   UNL     1      -2.994  -3.826   0.010  0.00  0.00    -0.250 N 
ATOM      7  C   UNL     1      -2.974  -4.494   1.176  0.00  0.00    +0.334 A 
ATOM      8  O   UNL     1      -2.973  -3.868   2.218  0.00  0.00    -0.246 OA
ATOM      9  N   UNL     1      -2.975  -6.864  -2.152  0.00  0.00    -0.320 N 
ATOM     10  C   UNL     1      -2.953  -8.058  -1.529  0.00  0.00    +0.138 A 
ATOM     11  N   UNL     1      -2.943  -7.879  -0.233  0.00  0.00    -0.212 NA
ENDROOT
BRANCH   1  12
ATOM     12  C   UNL     1      -2.934  -6.529   2.512  0.00  0.00    +0.128 C 
BRANCH  12  13
ATOM     13  C   UNL     1      -4.369  -6.789   2.975  0.00  0.00    +0.021 C 
BRANCH  13  15
ATOM     14  C   UNL     1      -5.781  -7.770   4.788  0.00  0.00    +0.004 C 
ATOM     15  C   UNL     1      -4.346  -7.510   4.325  0.00  0.00    -0.002 C 
ENDBRANCH  13  15
ENDBRANCH  12  13
ENDBRANCH   1  12
BRANCH   6  16
ATOM     16  C   UNL     1      -3.014  -2.361   0.018  0.00  0.00    +0.225 C 
BRANCH  16  17
ATOM     17  C   UNL     1      -1.601  -1.839   0.007  0.00  0.00    +0.233 C 
ATOM     18  O   UNL     1      -0.668  -2.615  -0.006  0.00  0.00    -0.274 OA
ATOM     19  N   UNL     1      -1.372  -0.511   0.012  0.00  0.00    -0.308 N 
ATOM     20  H   UNL     1      -2.118   0.109   0.023  0.00  0.00    +0.149 HD
BRANCH  19  21
ATOM     21  C   UNL     1       0.002  -0.004   0.002  0.00  0.00    +0.035 C 
ATOM     22  C   UNL     1      -0.019   1.526   0.010  0.00  0.00    +0.029 C 
ATOM     23  C   UNL     1       1.417   2.055  -0.000  0.00  0.00    -0.008 C 
ATOM     24  C   UNL     1       2.133   1.562  -1.259  0.00  0.00    +0.007 C 
ATOM     25  C   UNL     1       2.154   0.032  -1.268  0.00  0.00    -0.008 C 
ATOM     26  C   UNL     1       0.718  -0.497  -1.257  0.00  0.00    +0.029 C 
ATOM     27  C   UNL     1       2.894  -0.475  -0.028  0.00  0.00    +0.007 C 
ATOM     28  C   UNL     1       2.178   0.019   1.231  0.00  0.00    -0.008 C 
ATOM     29  C   UNL     1       2.157   1.548   1.239  0.00  0.00    +0.007 C 
ATOM     30  C   UNL     1       0.742  -0.511   1.242  0.00  0.00    +0.029 C 
ENDBRANCH  19  21
ENDBRANCH  16  17
ENDBRANCH   6  16
BRANCH  10  31
ATOM     31  C   UNL     1      -2.942  -9.398  -2.220  0.00  0.00    +0.230 C 
BRANCH  31  32
ATOM     32  O   UNL     1      -1.591  -9.803  -2.451  0.00  0.00    -0.387 OA
ATOM     33  H   UNL     1      -1.508 -10.659  -2.894  0.00  0.00    +0.210 HD
ENDBRANCH  31  32
ENDBRANCH  10  31
BRANCH   9  34
ATOM     34  C   UNL     1      -2.991  -6.637  -3.599  0.00  0.00    +0.123 C 
BRANCH  34  35
ATOM     35  C   UNL     1      -1.554  -6.539  -4.117  0.00  0.00    +0.018 C 
ATOM     36  C   UNL     1      -1.571  -6.301  -5.628  0.00  0.00    +0.005 C 
ENDBRANCH  34  35
ENDBRANCH   9  34
TORSDOF 10
