REMARK  Name = ZINC36067044
REMARK  9 active torsions:
REMARK  status: ('A' for Active; 'I' for Inactive)
REMARK    1  A    between atoms: C_1  and  C_2
REMARK    2  A    between atoms: C_2  and  C_3
REMARK    3  A    between atoms: C_2  and  C_4
REMARK    4  A    between atoms: C_7  and  N_10
REMARK    5  A    between atoms: C_11  and  C_13
REMARK    6  A    between atoms: C_13  and  C_15
REMARK    7  A    between atoms: C_13  and  N_27
REMARK    8  A    between atoms: C_20  and  N_21
REMARK    9  A    between atoms: C_30  and  O_33
REMARK                            x       y       z     vdW  Elec       q    Type
REMARK                         _______ _______ _______ _____ _____    ______ ____
ROOT
ATOM      1  C   UNL     1       5.035  -2.863  -6.795  0.00  0.00    +0.176 C 
ENDROOT
BRANCH   1   2
ATOM      2  C   UNL     1       4.105  -4.038  -6.951  0.00  0.00    +0.012 A 
ATOM      3  C   UNL     1       4.582  -5.324  -6.775  0.00  0.00    +0.057 A 
ATOM      4  C   UNL     1       3.729  -6.406  -6.919  0.00  0.00    +0.167 A 
ATOM      5  C   UNL     1       2.390  -6.194  -7.240  0.00  0.00    +0.168 A 
ATOM      6  C   UNL     1       1.919  -4.904  -7.413  0.00  0.00    +0.082 A 
ATOM      7  C   UNL     1       2.775  -3.828  -7.263  0.00  0.00    +0.135 A 
ATOM      8  O   UNL     1       1.765  -7.405  -7.324  0.00  0.00    -0.453 OA
ATOM      9  C   UNL     1       2.821  -8.375  -7.455  0.00  0.00    +0.466 C 
ATOM     10  O   UNL     1       3.942  -7.749  -6.802  0.00  0.00    -0.453 OA
BRANCH   7  11
ATOM     11  N   UNL     1       2.268  -2.450  -7.444  0.00  0.00    +0.057 N 
ATOM     12  O   UNL     1       1.245  -2.257  -8.059  0.00  0.00    -0.126 OA
ATOM     13  O   UNL     1       2.877  -1.516  -6.976  0.00  0.00    -0.126 OA
ENDBRANCH   7  11
ENDBRANCH   1   2
BRANCH   1  14
ATOM     14  N   UNL     1       6.329  -3.178  -7.415  0.00  0.00    -0.288 NA
ATOM     15  C   UNL     1       6.159  -3.562  -8.822  0.00  0.00    +0.088 C 
ATOM     16  C   UNL     1       7.502  -4.021  -9.393  0.00  0.00    +0.047 C 
ATOM     17  C   UNL     1       8.517  -2.881  -9.276  0.00  0.00    +0.117 C 
ATOM     18  C   UNL     1       8.640  -2.466  -7.807  0.00  0.00    +0.047 C 
ATOM     19  C   UNL     1       7.264  -2.053  -7.282  0.00  0.00    +0.088 C 
BRANCH  17  20
ATOM     20  O   UNL     1       9.789  -3.322  -9.756  0.00  0.00    -0.392 OA
ATOM     21  H   UNL     1      10.481  -2.649  -9.711  0.00  0.00    +0.210 HD
ENDBRANCH  17  20
ENDBRANCH   1  14
BRANCH   1  23
ATOM     22  N   UNL     1       4.274  -1.947  -4.627  0.00  0.00    -0.284 N 
ATOM     23  C   UNL     1       5.238  -2.574  -5.330  0.00  0.00    +0.239 C 
ATOM     24  O   UNL     1       6.268  -2.906  -4.783  0.00  0.00    -0.273 OA
ATOM     25  H   UNL     1       3.416  -1.761  -5.040  0.00  0.00    +0.155 HD
BRANCH  22  29
ATOM     26  C   UNL     1       4.977  -0.808  -0.682  0.00  0.00    -0.045 A 
ATOM     27  C   UNL     1       4.215  -0.002  -1.507  0.00  0.00    +0.006 A 
ATOM     28  C   UNL     1       3.980  -0.376  -2.816  0.00  0.00    +0.023 A 
ATOM     29  C   UNL     1       4.510  -1.564  -3.302  0.00  0.00    +0.033 A 
ATOM     30  C   UNL     1       5.275  -2.372  -2.470  0.00  0.00    +0.023 A 
ATOM     31  C   UNL     1       5.510  -1.989  -1.164  0.00  0.00    +0.006 A 
BRANCH  26  33
ATOM     32  C   UNL     1       5.954   0.951   0.766  0.00  0.00    +0.012 C 
ATOM     33  C   UNL     1       5.231  -0.397   0.746  0.00  0.00    +0.013 C 
ATOM     34  C   UNL     1       3.898  -0.271   1.486  0.00  0.00    +0.012 C 
ENDBRANCH  26  33
ENDBRANCH  22  29
ENDBRANCH   1  23
TORSDOF 7
