REMARK  Name = ZINC12707344
REMARK  7 active torsions:
REMARK  status: ('A' for Active; 'I' for Inactive)
REMARK    1  A    between atoms: C_4  and  C_7
REMARK    2  A    between atoms: C_7  and  N_8
REMARK    3  A    between atoms: C_18  and  S_19
REMARK    4  A    between atoms: S_19  and  C_20
REMARK    5  A    between atoms: C_20  and  C_21
REMARK    6  A    between atoms: N_23  and  C_24
REMARK    7  A    between atoms: C_25  and  C_32
REMARK                            x       y       z     vdW  Elec       q    Type
REMARK                         _______ _______ _______ _____ _____    ______ ____
ROOT
ATOM      1  S   UNL     1      -2.655  -2.898   0.013  0.00  0.00    -0.078 S 
ENDROOT
BRANCH   1  12
ATOM      2  N   UNL     1       0.037  -2.766  -0.012  0.00  0.00    -0.283 N 
ATOM      3  C   UNL     1       1.240  -2.146  -0.020  0.00  0.00    +0.263 A 
ATOM      4  O   UNL     1       2.278  -2.781  -0.032  0.00  0.00    -0.267 OA
ATOM      5  C   UNL     1       1.245  -0.677  -0.013  0.00  0.00    +0.065 A 
ATOM      6  C   UNL     1       2.432   0.055  -0.021  0.00  0.00    +0.015 A 
ATOM      7  C   UNL     1       2.381   1.422  -0.014  0.00  0.00    +0.001 A 
ATOM      8  C   UNL     1       1.161   2.086   0.002  0.00  0.00    +0.002 A 
ATOM      9  C   UNL     1      -0.017   1.394   0.010  0.00  0.00    +0.028 A 
ATOM     10  C   UNL     1       0.002  -0.004   0.002  0.00  0.00    +0.079 A 
ATOM     11  N   UNL     1      -1.136  -0.727   0.009  0.00  0.00    -0.223 NA
ATOM     12  C   UNL     1      -1.118  -2.037   0.003  0.00  0.00    +0.173 A 
BRANCH   2  13
ATOM     13  C   UNL     1      -0.027  -4.229  -0.018  0.00  0.00    +0.162 C 
BRANCH  13  17
ATOM     14  C   UNL     1      -0.128  -5.634  -4.051  0.00  0.00    +0.000 A 
ATOM     15  C   UNL     1       1.084  -5.459  -3.410  0.00  0.00    +0.000 A 
ATOM     16  C   UNL     1       1.117  -5.004  -2.105  0.00  0.00    +0.005 A 
ATOM     17  C   UNL     1      -0.063  -4.725  -1.441  0.00  0.00    -0.028 A 
ATOM     18  C   UNL     1      -1.275  -4.905  -2.080  0.00  0.00    +0.005 A 
ATOM     19  C   UNL     1      -1.308  -5.355  -3.387  0.00  0.00    +0.000 A 
ENDBRANCH  13  17
ENDBRANCH   2  13
ENDBRANCH   1  12
BRANCH   1  20
ATOM     20  C   UNL     1      -3.800  -1.496   0.032  0.00  0.00    +0.173 C 
BRANCH  20  21
ATOM     21  C   UNL     1      -5.218  -2.007   0.043  0.00  0.00    +0.228 C 
ATOM     22  O   UNL     1      -5.434  -3.200   0.039  0.00  0.00    -0.275 OA
ATOM     23  N   UNL     1      -6.248  -1.137   0.057  0.00  0.00    -0.279 N 
ATOM     24  H   UNL     1      -6.076  -0.182   0.060  0.00  0.00    +0.155 HD
BRANCH  23  25
ATOM     25  C   UNL     1      -7.552  -1.606   0.067  0.00  0.00    +0.084 A 
ATOM     26  C   UNL     1      -8.729  -0.877   0.088  0.00  0.00    +0.068 A 
ATOM     27  C   UNL     1      -9.987  -1.622   0.091  0.00  0.00    -0.023 A 
ATOM     28  C   UNL     1      -9.858  -2.961   0.083  0.00  0.00    -0.004 A 
ATOM     29  S   UNL     1      -8.105  -3.246   0.065  0.00  0.00    -0.077 S 
ATOM     30  C   UNL     1     -11.193  -3.656   0.089  0.00  0.00    +0.043 C 
ATOM     31  C   UNL     1     -12.202  -2.566  -0.334  0.00  0.00    +0.010 C 
ATOM     32  C   UNL     1     -11.477  -1.279   0.109  0.00  0.00    +0.037 C 
BRANCH  26  33
ATOM     33  C   UNL     1      -8.714   0.589   0.102  0.00  0.00    +0.244 C 
ATOM     34  O   UNL     1      -8.720   1.208  -0.946  0.00  0.00    -0.270 OA
ATOM     35  N   UNL     1      -8.693   1.252   1.276  0.00  0.00    -0.325 N 
ATOM     36  H   UNL     1      -8.688   0.758   2.111  0.00  0.00    +0.145 HD
ATOM     37  H   UNL     1      -8.683   2.221   1.286  0.00  0.00    +0.145 HD
ENDBRANCH  26  33
ENDBRANCH  23  25
ENDBRANCH  20  21
ENDBRANCH   1  20
TORSDOF 7
