REMARK  Name = ZINC59513421
REMARK  8 active torsions:
REMARK  status: ('A' for Active; 'I' for Inactive)
REMARK    1  A    between atoms: C_2  and  C_3
REMARK    2  A    between atoms: C_3  and  N_4
REMARK    3  A    between atoms: C_8  and  N_27
REMARK    4  A    between atoms: C_10  and  S_11
REMARK    5  A    between atoms: S_11  and  C_12
REMARK    6  A    between atoms: C_12  and  C_13
REMARK    7  A    between atoms: N_15  and  C_16
REMARK    8  A    between atoms: C_17  and  C_25
REMARK                            x       y       z     vdW  Elec       q    Type
REMARK                         _______ _______ _______ _____ _____    ______ ____
ROOT
ATOM      1  C   UNL     1      -0.206  -5.185  -0.346  0.00  0.00    +0.173 C 
ENDROOT
BRANCH   1   2
ATOM      2  C   UNL     1      -0.781  -5.744  -1.622  0.00  0.00    +0.228 C 
ATOM      3  O   UNL     1      -0.863  -5.043  -2.608  0.00  0.00    -0.275 OA
ATOM      4  N   UNL     1      -1.203  -7.023  -1.667  0.00  0.00    -0.278 N 
ATOM      5  H   UNL     1      -1.138  -7.584  -0.878  0.00  0.00    +0.155 HD
BRANCH   4   6
ATOM      6  C   UNL     1      -1.732  -7.538  -2.842  0.00  0.00    +0.090 A 
ATOM      7  C   UNL     1      -2.217  -8.816  -3.069  0.00  0.00    +0.084 A 
ATOM      8  C   UNL     1      -2.722  -9.108  -4.399  0.00  0.00    -0.018 A 
ATOM      9  C   UNL     1      -2.649  -8.068  -5.258  0.00  0.00    -0.004 A 
ATOM     10  S   UNL     1      -1.938  -6.754  -4.312  0.00  0.00    -0.077 S 
ATOM     11  C   UNL     1      -3.084  -8.053  -6.691  0.00  0.00    +0.043 C 
ATOM     12  C   UNL     1      -3.279  -9.506  -7.151  0.00  0.00    +0.005 C 
ATOM     13  C   UNL     1      -4.115 -10.249  -6.104  0.00  0.00    +0.005 C 
ATOM     14  C   UNL     1      -3.293 -10.451  -4.830  0.00  0.00    +0.037 C 
BRANCH   7  15
ATOM     15  C   UNL     1      -2.220  -9.807  -2.036  0.00  0.00    +0.102 C 
ATOM     16  N   UNL     1      -2.222 -10.594  -1.216  0.00  0.00    -0.191 NA
ENDBRANCH   7  15
ENDBRANCH   4   6
ENDBRANCH   1   2
BRANCH   1  17
ATOM     17  S   UNL     1       0.267  -3.453  -0.604  0.00  0.00    -0.078 S 
BRANCH  17  24
ATOM     18  N   UNL     1       1.367  -1.676   1.111  0.00  0.00    -0.284 N 
ATOM     19  C   UNL     1       1.859  -1.272   2.301  0.00  0.00    +0.257 A 
ATOM     20  O   UNL     1       2.265  -0.130   2.450  0.00  0.00    -0.268 OA
ATOM     21  C   UNL     1       1.897  -2.183   3.361  0.00  0.00    +0.113 A 
ATOM     22  C   UNL     1       1.426  -3.472   3.150  0.00  0.00    +0.124 A 
ATOM     23  N   UNL     1       0.950  -3.816   1.949  0.00  0.00    -0.209 NA
ATOM     24  C   UNL     1       0.912  -2.950   0.957  0.00  0.00    +0.174 A 
BRANCH  22  25
ATOM     25  N   UNL     1       1.451  -4.395   4.177  0.00  0.00    -0.343 N 
ATOM     26  H   UNL     1       1.797  -4.143   5.047  0.00  0.00    +0.144 HD
ATOM     27  H   UNL     1       1.121  -5.295   4.027  0.00  0.00    +0.144 HD
ENDBRANCH  22  25
BRANCH  18  28
ATOM     28  C   UNL     1       1.317  -0.740  -0.015  0.00  0.00    +0.154 C 
BRANCH  28  30
ATOM     29  C   UNL     1      -0.016   1.306   0.009  0.00  0.00    +0.005 C 
ATOM     30  C   UNL     1       0.002  -0.004   0.002  0.00  0.00    -0.013 C 
ENDBRANCH  28  30
ENDBRANCH  18  28
ENDBRANCH  17  24
ENDBRANCH   1  17
TORSDOF 8
