REMARK  Name = ZINC11869966
REMARK  11 active torsions:
REMARK  status: ('A' for Active; 'I' for Inactive)
REMARK    1  A    between atoms: C_1  and  C_2
REMARK    2  A    between atoms: C_2  and  C_3
REMARK    3  A    between atoms: C_3  and  C_4
REMARK    4  A    between atoms: C_4  and  C_5
REMARK    5  A    between atoms: C_5  and  N_6
REMARK    6  A    between atoms: C_15  and  C_17
REMARK    7  A    between atoms: C_17  and  O_19
REMARK    8  A    between atoms: O_19  and  C_20
REMARK    9  A    between atoms: C_20  and  C_22
REMARK   10  A    between atoms: C_20  and  C_23
REMARK   11  A    between atoms: N_28  and  C_29
REMARK                            x       y       z     vdW  Elec       q    Type
REMARK                         _______ _______ _______ _____ _____    ______ ____
ROOT
ATOM      1  C   UNL     1       4.691   1.508  -0.650  0.00  0.00    +0.361 C 
ATOM      2  O   UNL     1       4.770   0.415  -1.174  0.00  0.00    -0.243 OA
ENDROOT
BRANCH   1  12
ATOM      3  N   UNL     1       6.715   4.469  -0.119  0.00  0.00    -0.228 N 
ATOM      4  C   UNL     1       7.917   4.254  -0.693  0.00  0.00    +0.275 A 
ATOM      5  O   UNL     1       8.786   5.105  -0.655  0.00  0.00    -0.266 OA
ATOM      6  C   UNL     1       8.152   2.969  -1.365  0.00  0.00    +0.050 A 
ATOM      7  C   UNL     1       9.355   2.650  -1.987  0.00  0.00    +0.014 A 
ATOM      8  C   UNL     1       9.496   1.421  -2.596  0.00  0.00    +0.001 A 
ATOM      9  C   UNL     1       8.453   0.504  -2.595  0.00  0.00    +0.001 A 
ATOM     10  C   UNL     1       7.252   0.802  -1.985  0.00  0.00    +0.011 A 
ATOM     11  C   UNL     1       7.091   2.033  -1.359  0.00  0.00    +0.021 A 
ATOM     12  C   UNL     1       5.841   2.430  -0.691  0.00  0.00    +0.176 A 
ATOM     13  N   UNL     1       5.765   3.612  -0.128  0.00  0.00    -0.161 NA
BRANCH   3  14
ATOM     14  C   UNL     1       6.486   5.752   0.550  0.00  0.00    +0.147 C 
BRANCH  14  15
ATOM     15  C   UNL     1       5.915   6.756  -0.454  0.00  0.00    +0.023 C 
BRANCH  15  16
ATOM     16  C   UNL     1       5.676   8.096   0.245  0.00  0.00    +0.002 C 
BRANCH  16  18
ATOM     17  C   UNL     1       4.865  10.439  -0.059  0.00  0.00    +0.004 C 
ATOM     18  C   UNL     1       5.104   9.099  -0.758  0.00  0.00    -0.003 C 
ENDBRANCH  16  18
ENDBRANCH  15  16
ENDBRANCH  14  15
ENDBRANCH   3  14
ENDBRANCH   1  12
BRANCH   1  19
ATOM     19  O   UNL     1       3.553   1.878  -0.031  0.00  0.00    -0.448 OA
BRANCH  19  20
ATOM     20  C   UNL     1       2.462   0.919  -0.029  0.00  0.00    +0.259 C 
ATOM     21  C   UNL     1       2.570   0.026   1.208  0.00  0.00    +0.062 C 
BRANCH  20  22
ATOM     22  C   UNL     1       1.147   1.655  -0.004  0.00  0.00    +0.261 C 
ATOM     23  O   UNL     1       1.131   2.867   0.011  0.00  0.00    -0.271 OA
ATOM     24  N   UNL     1      -0.011   0.966   0.001  0.00  0.00    -0.237 N 
ATOM     25  C   UNL     1      -1.187   1.624   0.018  0.00  0.00    +0.310 C 
ATOM     26  O   UNL     1      -1.204   2.839   0.034  0.00  0.00    -0.252 OA
ATOM     27  N   UNL     1      -2.345   0.934   0.018  0.00  0.00    -0.269 N 
ATOM     28  H   UNL     1       0.002  -0.004  -0.011  0.00  0.00    +0.159 HD
ATOM     29  H   UNL     1      -2.334  -0.033  -0.062  0.00  0.00    +0.156 HD
BRANCH  27  30
ATOM     30  C   UNL     1      -3.564   1.613   0.133  0.00  0.00    +0.035 A 
ATOM     31  C   UNL     1      -4.619   1.035   0.827  0.00  0.00    +0.023 A 
ATOM     32  C   UNL     1      -5.818   1.710   0.943  0.00  0.00    +0.002 A 
ATOM     33  C   UNL     1      -5.973   2.954   0.361  0.00  0.00    +0.000 A 
ATOM     34  C   UNL     1      -4.925   3.530  -0.335  0.00  0.00    +0.002 A 
ATOM     35  C   UNL     1      -3.722   2.863  -0.450  0.00  0.00    +0.023 A 
ENDBRANCH  27  30
ENDBRANCH  20  22
ENDBRANCH  19  20
ENDBRANCH   1  19
TORSDOF 9
