REMARK  Name = ZINC33939352
REMARK  9 active torsions:
REMARK  status: ('A' for Active; 'I' for Inactive)
REMARK    1  A    between atoms: C_4  and  S_7
REMARK    2  A    between atoms: S_7  and  C_10
REMARK    3  A    between atoms: C_10  and  C_27
REMARK    4  A    between atoms: C_11  and  C_12
REMARK    5  A    between atoms: C_15  and  C_17
REMARK    6  A    between atoms: C_20  and  S_23
REMARK    7  A    between atoms: S_23  and  N_26
REMARK    8  A    between atoms: N_29  and  C_30
REMARK    9  A    between atoms: C_30  and  C_31
REMARK                            x       y       z     vdW  Elec       q    Type
REMARK                         _______ _______ _______ _____ _____    ______ ____
ROOT
ATOM      1  C   UNL     1       4.234  -0.869   1.300  0.00  0.00    +0.158 C 
ATOM      2  C   UNL     1       4.288  -2.078   1.916  0.00  0.00    +0.079 C 
ENDROOT
BRANCH   2   3
ATOM      3  C   UNL     1       4.218  -3.265   1.150  0.00  0.00    +0.131 A 
ATOM      4  C   UNL     1       4.039  -4.542   1.647  0.00  0.00    +0.050 A 
ATOM      5  C   UNL     1       4.030  -5.404   0.548  0.00  0.00    +0.050 A 
ATOM      6  C   UNL     1       4.202  -4.635  -0.568  0.00  0.00    +0.136 A 
ATOM      7  O   UNL     1       4.309  -3.348  -0.194  0.00  0.00    -0.455 OA
BRANCH   6   8
ATOM      8  C   UNL     1       4.256  -5.134  -1.956  0.00  0.00    +0.017 A 
ATOM      9  C   UNL     1       4.120  -6.500  -2.217  0.00  0.00    +0.013 A 
ATOM     10  C   UNL     1       4.171  -6.959  -3.517  0.00  0.00    +0.029 A 
ATOM     11  C   UNL     1       4.356  -6.070  -4.561  0.00  0.00    +0.105 A 
ATOM     12  C   UNL     1       4.491  -4.716  -4.310  0.00  0.00    +0.029 A 
ATOM     13  C   UNL     1       4.436  -4.242  -3.016  0.00  0.00    +0.013 A 
BRANCH  11  14
ATOM     14  S   UNL     1       4.420  -6.665  -6.218  0.00  0.00    +0.056 S 
ATOM     15  O   UNL     1       5.146  -5.702  -6.968  0.00  0.00    -0.153 OA
ATOM     16  O   UNL     1       4.814  -8.029  -6.145  0.00  0.00    -0.153 OA
BRANCH  14  17
ATOM     17  N   UNL     1       2.871  -6.652  -6.804  0.00  0.00    -0.204 NA
ATOM     18  H   UNL     1       2.712  -6.514  -7.751  0.00  0.00    +0.144 HD
ATOM     19  H   UNL     1       2.123  -6.781  -6.200  0.00  0.00    +0.144 HD
ENDBRANCH  14  17
ENDBRANCH  11  14
ENDBRANCH   6   8
ENDBRANCH   2   3
BRANCH   1  20
ATOM     20  C   UNL     1       4.101   0.311   2.068  0.00  0.00    +0.263 C 
ATOM     21  O   UNL     1       4.174   0.258   3.283  0.00  0.00    -0.269 OA
ATOM     22  N   UNL     1       3.894   1.494   1.457  0.00  0.00    -0.303 N 
ATOM     23  H   UNL     1       3.764   1.527   0.496  0.00  0.00    +0.149 HD
BRANCH  22  24
ATOM     24  C   UNL     1       3.865   2.730   2.243  0.00  0.00    +0.179 C 
BRANCH  24  25
ATOM     25  C   UNL     1       3.619   3.902   1.327  0.00  0.00    +0.122 A 
ATOM     26  C   UNL     1       2.415   4.401   0.996  0.00  0.00    +0.046 A 
ATOM     27  C   UNL     1       2.649   5.488   0.122  0.00  0.00    +0.041 A 
ATOM     28  C   UNL     1       3.982   5.588  -0.028  0.00  0.00    +0.195 A 
ATOM     29  O   UNL     1       4.565   4.628   0.709  0.00  0.00    -0.466 OA
ENDBRANCH  24  25
ENDBRANCH  22  24
ENDBRANCH   1  20
BRANCH   1  30
ATOM     30  S   UNL     1       4.331  -0.770  -0.457  0.00  0.00    +0.030 S 
ATOM     31  O   UNL     1       5.211  -1.805  -0.874  0.00  0.00    -0.164 OA
ATOM     32  O   UNL     1       4.556   0.597  -0.775  0.00  0.00    -0.164 OA
BRANCH  30  36
ATOM     33  C   UNL     1       0.239  -1.817  -2.085  0.00  0.00    +0.000 A 
ATOM     34  C   UNL     1       0.446  -0.598  -1.468  0.00  0.00    +0.002 A 
ATOM     35  C   UNL     1       1.695  -0.278  -0.970  0.00  0.00    +0.027 A 
ATOM     36  C   UNL     1       2.738  -1.178  -1.090  0.00  0.00    +0.094 A 
ATOM     37  C   UNL     1       2.531  -2.398  -1.706  0.00  0.00    +0.027 A 
ATOM     38  C   UNL     1       1.282  -2.717  -2.205  0.00  0.00    +0.002 A 
ENDBRANCH  30  36
ENDBRANCH   1  30
TORSDOF 9
