REMARK  Name = ZINC28918461
REMARK  7 active torsions:
REMARK  status: ('A' for Active; 'I' for Inactive)
REMARK    1  A    between atoms: C_4  and  N_10
REMARK    2  A    between atoms: C_6  and  N_7
REMARK    3  A    between atoms: C_11  and  C_13
REMARK    4  A    between atoms: C_13  and  O_14
REMARK    5  A    between atoms: O_14  and  C_15
REMARK    6  A    between atoms: C_15  and  C_17
REMARK    7  A    between atoms: C_17  and  C_18
REMARK                            x       y       z     vdW  Elec       q    Type
REMARK                         _______ _______ _______ _____ _____    ______ ____
ROOT
ATOM      1  O   UNL     1       4.723  -4.130   0.244  0.00  0.00    -0.455 OA
ENDROOT
BRANCH   1   2
ATOM      2  C   UNL     1       5.801  -4.926   0.337  0.00  0.00    +0.312 C 
ATOM      3  O   UNL     1       6.909  -4.444   0.342  0.00  0.00    -0.250 OA
BRANCH   2   4
ATOM      4  C   UNL     1       5.628  -6.420   0.435  0.00  0.00    +0.159 C 
BRANCH   4   5
ATOM      5  C   UNL     1       6.981  -7.077   0.527  0.00  0.00    +0.009 A 
ATOM      6  C   UNL     1       7.702  -7.580  -0.483  0.00  0.00    +0.200 A 
ATOM      7  O   UNL     1       8.859  -8.085  -0.021  0.00  0.00    -0.463 OA
ATOM      8  C   UNL     1       8.949  -7.935   1.317  0.00  0.00    +0.135 A 
ATOM      9  C   UNL     1       7.777  -7.288   1.743  0.00  0.00    +0.024 A 
ATOM     10  C   UNL     1       7.593  -6.995   3.092  0.00  0.00    +0.015 A 
ATOM     11  C   UNL     1       8.566  -7.339   4.008  0.00  0.00    -0.043 A 
ATOM     12  C   UNL     1       9.726  -7.975   3.589  0.00  0.00    -0.041 A 
ATOM     13  C   UNL     1       9.914  -8.276   2.253  0.00  0.00    +0.050 A 
ATOM     14  C   UNL     1      10.621  -8.239   4.782  0.00  0.00    +0.036 C 
ATOM     15  C   UNL     1      10.092  -7.313   5.897  0.00  0.00    +0.009 C 
ATOM     16  C   UNL     1       8.609  -7.136   5.508  0.00  0.00    +0.036 C 
ENDBRANCH   4   5
ENDBRANCH   2   4
ENDBRANCH   1   2
BRANCH   1  17
ATOM     17  C   UNL     1       4.961  -2.724   0.154  0.00  0.00    +0.328 C 
BRANCH  17  19
ATOM     18  N   UNL     1       3.622  -0.653  -0.037  0.00  0.00    -0.281 N 
ATOM     19  C   UNL     1       3.644  -1.998   0.058  0.00  0.00    +0.255 C 
ATOM     20  O   UNL     1       2.605  -2.622   0.065  0.00  0.00    -0.272 OA
ATOM     21  H   UNL     1       4.452  -0.159  -0.123  0.00  0.00    +0.155 HD
BRANCH  18  25
ATOM     22  C   UNL     1      -0.015   1.380   0.043  0.00  0.00    +0.034 A 
ATOM     23  C   UNL     1       1.083   1.955  -0.572  0.00  0.00    +0.024 A 
ATOM     24  C   UNL     1       2.290   1.284  -0.600  0.00  0.00    +0.062 A 
ATOM     25  C   UNL     1       2.400   0.030  -0.010  0.00  0.00    +0.054 A 
ATOM     26  C   UNL     1       1.296  -0.543   0.606  0.00  0.00    +0.057 A 
ATOM     27  C   UNL     1       0.092   0.134   0.631  0.00  0.00    +0.128 A 
ATOM     28 CL   UNL     1       3.668   2.005  -1.372  0.00  0.00    -0.082 Cl
BRANCH  27  29
ATOM     29  N   UNL     1      -1.086  -0.477   1.287  0.00  0.00    +0.056 N 
ATOM     30  O   UNL     1      -2.140   0.114   1.310  0.00  0.00    -0.126 OA
ATOM     31  O   UNL     1      -0.993  -1.567   1.802  0.00  0.00    -0.126 OA
ENDBRANCH  27  29
ENDBRANCH  18  25
ENDBRANCH  17  19
ENDBRANCH   1  17
TORSDOF 7
