REMARK  Name = ZINC09468192
REMARK  12 active torsions:
REMARK  status: ('A' for Active; 'I' for Inactive)
REMARK    1  A    between atoms: C_1  and  C_2
REMARK    2  A    between atoms: C_3  and  N_15
REMARK    3  A    between atoms: N_6  and  C_9
REMARK    4  A    between atoms: N_7  and  C_8
REMARK    5  A    between atoms: N_15  and  S_16
REMARK    6  A    between atoms: S_16  and  C_19
REMARK    7  A    between atoms: C_22  and  N_28
REMARK    8  A    between atoms: C_23  and  N_25
REMARK    9  A    between atoms: N_28  and  C_29
REMARK   10  A    between atoms: N_28  and  C_30
REMARK   11  A    between atoms: C_30  and  C_31
REMARK   12  A    between atoms: N_33  and  C_34
REMARK                            x       y       z     vdW  Elec       q    Type
REMARK                         _______ _______ _______ _____ _____    ______ ____
ROOT
ATOM      1  S   UNL     1       1.771  -5.428   0.695  0.00  0.00    +0.073 S 
ATOM      2  O   UNL     1       1.932  -5.787   2.060  0.00  0.00    -0.150 OA
ATOM      3  O   UNL     1       0.538  -5.587   0.006  0.00  0.00    -0.150 OA
ENDROOT
BRANCH   1   4
ATOM      4  C   UNL     1       2.203  -3.725   0.567  0.00  0.00    +0.111 A 
ATOM      5  C   UNL     1       1.979  -3.043  -0.615  0.00  0.00    +0.031 A 
ATOM      6  C   UNL     1       2.316  -1.708  -0.718  0.00  0.00    +0.027 A 
ATOM      7  C   UNL     1       2.881  -1.050   0.367  0.00  0.00    +0.061 A 
ATOM      8  C   UNL     1       3.110  -1.739   1.551  0.00  0.00    +0.149 A 
ATOM      9  C   UNL     1       2.765  -3.073   1.649  0.00  0.00    +0.063 A 
BRANCH   8  10
ATOM     10  N   UNL     1       3.717  -1.044   2.708  0.00  0.00    +0.058 N 
ATOM     11  O   UNL     1       3.917  -1.649   3.746  0.00  0.00    -0.126 OA
ATOM     12  O   UNL     1       4.016   0.134   2.622  0.00  0.00    -0.126 OA
ENDBRANCH   8  10
BRANCH   7  13
ATOM     13  N   UNL     1       3.223   0.301   0.267  0.00  0.00    -0.322 N 
ATOM     14  C   UNL     1       4.278   0.503  -0.735  0.00  0.00    +0.130 C 
BRANCH  13  15
ATOM     15  C   UNL     1       2.043   1.121  -0.039  0.00  0.00    +0.200 C 
BRANCH  15  16
ATOM     16  C   UNL     1       2.396   2.580   0.101  0.00  0.00    +0.230 C 
ATOM     17  O   UNL     1       3.519   2.904   0.424  0.00  0.00    -0.274 OA
ATOM     18  N   UNL     1       1.464   3.524  -0.137  0.00  0.00    -0.317 N 
ATOM     19  C   UNL     1       1.807   4.942  -0.001  0.00  0.00    +0.128 C 
ATOM     20  H   UNL     1       0.567   3.265  -0.399  0.00  0.00    +0.148 HD
ENDBRANCH  15  16
ENDBRANCH  13  15
ENDBRANCH   7  13
ENDBRANCH   1   4
BRANCH   1  21
ATOM     21  N   UNL     1       2.903  -6.286  -0.157  0.00  0.00    -0.209 N 
ATOM     22  H   UNL     1       2.645  -6.767  -0.959  0.00  0.00    +0.174 HD
BRANCH  21  25
ATOM     23  C   UNL     1       5.206  -7.585  -1.701  0.00  0.00    +0.067 C 
ATOM     24  C   UNL     1       5.280  -6.880  -0.371  0.00  0.00    +0.061 A 
ATOM     25  C   UNL     1       4.243  -6.316   0.283  0.00  0.00    +0.135 A 
ATOM     26  C   UNL     1       4.737  -5.755   1.489  0.00  0.00    +0.295 A 
ATOM     27  O   UNL     1       4.082  -5.161   2.327  0.00  0.00    -0.264 OA
ATOM     28  N   UNL     1       6.062  -5.999   1.543  0.00  0.00    -0.216 N 
ATOM     29  N   UNL     1       6.415  -6.700   0.382  0.00  0.00    -0.282 N 
ATOM     30  C   UNL     1       7.761  -7.160   0.032  0.00  0.00    +0.171 C 
BRANCH  28  31
ATOM     31  C   UNL     1       6.930  -5.616   2.570  0.00  0.00    +0.067 A 
ATOM     32  C   UNL     1       6.588  -5.854   3.895  0.00  0.00    +0.028 A 
ATOM     33  C   UNL     1       7.450  -5.480   4.907  0.00  0.00    +0.002 A 
ATOM     34  C   UNL     1       8.647  -4.857   4.603  0.00  0.00    +0.000 A 
ATOM     35  C   UNL     1       8.988  -4.613   3.285  0.00  0.00    +0.002 A 
ATOM     36  C   UNL     1       8.133  -4.990   2.268  0.00  0.00    +0.028 A 
ENDBRANCH  28  31
ENDBRANCH  21  25
ENDBRANCH   1  21
TORSDOF 8
