REMARK  Name = ZINC35889536
REMARK  3 active torsions:
REMARK  status: ('A' for Active; 'I' for Inactive)
REMARK    1  A    between atoms: C_4  and  C_7
REMARK    2  A    between atoms: N_20  and  C_21
REMARK    3  A    between atoms: C_21  and  C_22
REMARK                            x       y       z     vdW  Elec       q    Type
REMARK                         _______ _______ _______ _____ _____    ______ ____
ROOT
ATOM      1  C   UNL     1       3.702  -0.673  -0.001  0.00  0.00    +0.171 A 
ATOM      2  N   UNL     1       4.868  -0.175  -0.356  0.00  0.00    -0.128 NA
ATOM      3  N   UNL     1       5.783  -1.077  -0.260  0.00  0.00    -0.128 NA
ATOM      4  C   UNL     1       5.256  -2.203   0.162  0.00  0.00    +0.173 A 
ATOM      5  N   UNL     1       3.910  -1.981   0.348  0.00  0.00    -0.246 N 
ATOM      6  C   UNL     1       3.102  -2.991   0.795  0.00  0.00    +0.203 A 
ATOM      7  N   UNL     1       3.552  -4.189   1.066  0.00  0.00    -0.215 NA
ATOM      8  C   UNL     1       4.860  -4.517   0.922  0.00  0.00    +0.078 A 
ATOM      9  C   UNL     1       5.774  -3.543   0.457  0.00  0.00    +0.045 A 
ATOM     10  C   UNL     1       7.120  -3.865   0.306  0.00  0.00    +0.014 A 
ATOM     11  C   UNL     1       7.552  -5.141   0.598  0.00  0.00    +0.001 A 
ATOM     12  C   UNL     1       6.656  -6.105   1.039  0.00  0.00    +0.002 A 
ATOM     13  C   UNL     1       5.324  -5.801   1.216  0.00  0.00    +0.028 A 
ATOM     14  N   UNL     1       1.763  -2.737   0.966  0.00  0.00    -0.314 N 
ATOM     15  H   UNL     1       1.393  -1.884   0.691  0.00  0.00    +0.149 HD
ENDROOT
BRANCH   1  19
ATOM     16  C   UNL     1      -0.005   1.398   0.070  0.00  0.00    +0.000 A 
ATOM     17  C   UNL     1       0.352   0.589   1.133  0.00  0.00    +0.001 A 
ATOM     18  C   UNL     1       1.554  -0.087   1.117  0.00  0.00    +0.011 A 
ATOM     19  C   UNL     1       2.412   0.047   0.023  0.00  0.00    +0.020 A 
ATOM     20  C   UNL     1       2.045   0.865  -1.047  0.00  0.00    +0.011 A 
ATOM     21  C   UNL     1       0.840   1.536  -1.017  0.00  0.00    +0.001 A 
ENDBRANCH   1  19
BRANCH  14  22
ATOM     22  C   UNL     1       0.895  -3.754   1.565  0.00  0.00    +0.108 C 
BRANCH  22  23
ATOM     23  C   UNL     1      -0.537  -3.221   1.641  0.00  0.00    +0.006 C 
ATOM     24  C   UNL     1      -1.150  -3.039   3.031  0.00  0.00    +0.005 C 
ATOM     25  C   UNL     1      -1.623  -4.182   2.130  0.00  0.00    +0.005 C 
ENDBRANCH  22  23
ENDBRANCH  14  22
TORSDOF 3
