REMARK  Name = ZINC18951431
REMARK  11 active torsions:
REMARK  status: ('A' for Active; 'I' for Inactive)
REMARK    1  A    between atoms: C_1  and  C_2
REMARK    2  A    between atoms: C_2  and  O_3
REMARK    3  A    between atoms: O_3  and  C_4
REMARK    4  A    between atoms: C_4  and  C_6
REMARK    5  A    between atoms: C_7  and  C_19
REMARK    6  A    between atoms: C_12  and  C_14
REMARK    7  A    between atoms: C_19  and  O_20
REMARK    8  A    between atoms: O_20  and  C_21
REMARK    9  A    between atoms: C_21  and  C_23
REMARK   10  A    between atoms: C_25  and  N_34
REMARK   11  A    between atoms: C_28  and  N_29
REMARK                            x       y       z     vdW  Elec       q    Type
REMARK                         _______ _______ _______ _____ _____    ______ ____
ROOT
ATOM      1  C   UNL     1       4.537   0.059   6.312  0.00  0.00    +0.084 C 
ATOM      2  C   UNL     1       4.917   0.828   5.269  0.00  0.00    +0.061 C 
ATOM      3  N   UNL     1       5.918   1.748   5.399  0.00  0.00    -0.269 N 
ATOM      4  C   UNL     1       6.581   1.967   6.542  0.00  0.00    +0.305 C 
ATOM      5  O   UNL     1       7.454   2.812   6.562  0.00  0.00    -0.252 OA
ATOM      6  N   UNL     1       6.315   1.277   7.669  0.00  0.00    -0.285 N 
ATOM      7  C   UNL     1       5.255   0.256   7.632  0.00  0.00    +0.179 C 
ATOM      8  H   UNL     1       6.160   2.275   4.622  0.00  0.00    +0.156 HD
ATOM      9  H   UNL     1       6.810   1.450   8.485  0.00  0.00    +0.151 HD
ENDROOT
BRANCH   7  10
ATOM     10  C   UNL     1       5.865  -1.063   8.030  0.00  0.00    +0.130 A 
ATOM     11  C   UNL     1       5.354  -1.929   8.922  0.00  0.00    +0.047 A 
ATOM     12  C   UNL     1       6.245  -3.025   8.988  0.00  0.00    +0.041 A 
ATOM     13  C   UNL     1       7.248  -2.762   8.131  0.00  0.00    +0.195 A 
ATOM     14  O   UNL     1       7.010  -1.575   7.549  0.00  0.00    -0.466 OA
ENDBRANCH   7  10
BRANCH   1  15
ATOM     15  C   UNL     1       3.504  -0.898   6.177  0.00  0.00    +0.339 C 
ATOM     16  O   UNL     1       2.402  -0.673   6.642  0.00  0.00    -0.245 OA
BRANCH  15  17
ATOM     17  O   UNL     1       3.740  -2.059   5.531  0.00  0.00    -0.462 OA
BRANCH  17  19
ATOM     18  C   UNL     1       3.105  -4.228   4.674  0.00  0.00    +0.048 C 
ATOM     19  C   UNL     1       2.651  -2.979   5.432  0.00  0.00    +0.229 C 
ENDBRANCH  17  19
ENDBRANCH  15  17
ENDBRANCH   1  15
BRANCH   2  20
ATOM     20  C   UNL     1       4.230   0.664   3.938  0.00  0.00    +0.283 C 
BRANCH  20  21
ATOM     21  O   UNL     1       3.489   1.872   3.624  0.00  0.00    -0.455 OA
BRANCH  21  22
ATOM     22  C   UNL     1       2.812   1.890   2.458  0.00  0.00    +0.341 C 
ATOM     23  O   UNL     1       2.841   0.921   1.724  0.00  0.00    -0.245 OA
BRANCH  22  24
ATOM     24  C   UNL     1       2.038   3.082   2.074  0.00  0.00    +0.082 A 
ATOM     25  C   UNL     1       2.089   4.238   2.859  0.00  0.00    +0.049 A 
ATOM     26  C   UNL     1       1.358   5.347   2.497  0.00  0.00    +0.127 A 
ATOM     27  C   UNL     1       0.574   5.328   1.354  0.00  0.00    +0.034 A 
ATOM     28  C   UNL     1       0.517   4.197   0.565  0.00  0.00    +0.026 A 
ATOM     29  C   UNL     1       1.247   3.067   0.914  0.00  0.00    +0.044 A 
BRANCH  29  30
ATOM     30  N   UNL     1       1.190   1.928   0.122  0.00  0.00    -0.329 N 
ATOM     31  C   UNL     1       1.748   2.189  -1.223  0.00  0.00    +0.105 C 
ATOM     32  C   UNL     1       0.940   1.339  -2.220  0.00  0.00    +0.020 C 
ATOM     33  C   UNL     1      -0.122   0.612  -1.363  0.00  0.00    +0.020 C 
ATOM     34  C   UNL     1      -0.215   1.502  -0.098  0.00  0.00    +0.105 C 
ENDBRANCH  29  30
BRANCH  26  35
ATOM     35  N   UNL     1       1.410   6.568   3.333  0.00  0.00    +0.056 N 
ATOM     36  O   UNL     1       0.764   7.551   3.016  0.00  0.00    -0.126 OA
ATOM     37  O   UNL     1       2.098   6.589   4.338  0.00  0.00    -0.126 OA
ENDBRANCH  26  35
ENDBRANCH  22  24
ENDBRANCH  21  22
ENDBRANCH  20  21
ENDBRANCH   2  20
TORSDOF 10
