REMARK  Name = ZINC40467119
REMARK  4 active torsions:
REMARK  status: ('A' for Active; 'I' for Inactive)
REMARK    1  A    between atoms: C_1  and  C_2
REMARK    2  A    between atoms: C_2  and  N_3
REMARK    3  A    between atoms: C_7  and  C_8
REMARK    4  A    between atoms: N_16  and  C_17
REMARK                            x       y       z     vdW  Elec       q    Type
REMARK                         _______ _______ _______ _____ _____    ______ ____
ROOT
ATOM      1  N   UNL     1       0.973  -4.723  -3.149  0.00  0.00    -0.246 N 
ATOM      2  C   UNL     1       0.190  -3.789  -3.661  0.00  0.00    +0.259 C 
ATOM      3  O   UNL     1      -1.019  -3.930  -3.713  0.00  0.00    -0.269 OA
ATOM      4  C   UNL     1       0.843  -2.571  -4.165  0.00  0.00    +0.079 C 
ATOM      5  C   UNL     1       0.287  -1.464  -4.735  0.00  0.00    +0.046 C 
ATOM      6  S   UNL     1       2.561  -2.931  -3.829  0.00  0.00    -0.049 S 
ATOM      7  C   UNL     1       2.337  -4.543  -3.094  0.00  0.00    +0.168 C 
ATOM      8  N   UNL     1       3.252  -5.359  -2.618  0.00  0.00    -0.222 NA
ENDROOT
BRANCH   8   9
ATOM      9  C   UNL     1       4.572  -5.000  -2.651  0.00  0.00    +0.103 A 
ATOM     10  C   UNL     1       4.961  -3.686  -2.362  0.00  0.00    +0.032 A 
ATOM     11  C   UNL     1       6.309  -3.376  -2.409  0.00  0.00    +0.022 A 
ATOM     12  C   UNL     1       7.221  -4.362  -2.737  0.00  0.00    +0.112 A 
ATOM     13  N   UNL     1       6.828  -5.593  -3.004  0.00  0.00    -0.241 NA
ATOM     14  C   UNL     1       5.557  -5.941  -2.967  0.00  0.00    +0.154 A 
ATOM     15 CL   UNL     1       5.102  -7.578  -3.322  0.00  0.00    -0.060 Cl
ENDBRANCH   8   9
BRANCH   5  16
ATOM     16  C   UNL     1      -1.101  -1.431  -5.009  0.00  0.00    +0.040 A 
ATOM     17  C   UNL     1      -1.710  -1.807  -6.193  0.00  0.00    +0.027 A 
ATOM     18  C   UNL     1      -3.085  -1.614  -6.028  0.00  0.00    +0.019 A 
ATOM     19  C   UNL     1      -3.291  -1.135  -4.778  0.00  0.00    +0.083 A 
ATOM     20  N   UNL     1      -2.093  -1.025  -4.145  0.00  0.00    -0.361 N 
ATOM     21  H   UNL     1      -1.959  -0.711  -3.237  0.00  0.00    +0.165 HD
ENDBRANCH   5  16
BRANCH   1  23
ATOM     22  C   UNL     1       0.044  -5.780  -1.148  0.00  0.00    +0.025 C 
ATOM     23  C   UNL     1       0.383  -5.960  -2.629  0.00  0.00    +0.112 C 
ENDBRANCH   1  23
TORSDOF 3
