REMARK  Name = ZINC09315938
REMARK  12 active torsions:
REMARK  status: ('A' for Active; 'I' for Inactive)
REMARK    1  A    between atoms: C_1  and  C_2
REMARK    2  A    between atoms: C_3  and  C_27
REMARK    3  A    between atoms: C_4  and  N_11
REMARK    4  A    between atoms: C_6  and  C_7
REMARK    5  A    between atoms: C_7  and  O_9
REMARK    6  A    between atoms: O_9  and  C_10
REMARK    7  A    between atoms: C_12  and  C_14
REMARK    8  A    between atoms: C_14  and  S_15
REMARK    9  A    between atoms: S_15  and  C_16
REMARK   10  A    between atoms: C_20  and  C_22
REMARK   11  A    between atoms: C_27  and  O_29
REMARK   12  A    between atoms: O_29  and  C_30
REMARK                            x       y       z     vdW  Elec       q    Type
REMARK                         _______ _______ _______ _____ _____    ______ ____
ROOT
ATOM      1  N   UNL     1       0.033  -3.047  -2.112  0.00  0.00    -0.279 N 
ATOM      2  C   UNL     1       0.052  -4.365  -1.832  0.00  0.00    +0.228 C 
ATOM      3  O   UNL     1       0.063  -4.740  -0.679  0.00  0.00    -0.275 OA
ATOM      4  H   UNL     1       0.024  -2.747  -3.034  0.00  0.00    +0.155 HD
ENDROOT
BRANCH   1   8
ATOM      5  C   UNL     1      -0.018   1.503   0.010  0.00  0.00    +0.046 C 
ATOM      6  C   UNL     1       0.002  -0.004   0.002  0.00  0.00    -0.014 A 
ATOM      7  C   UNL     1       0.006  -0.730  -1.181  0.00  0.00    +0.091 A 
ATOM      8  C   UNL     1       0.025  -2.123  -1.085  0.00  0.00    +0.087 A 
ATOM      9  S   UNL     1       0.037  -2.413   0.569  0.00  0.00    -0.066 S 
ATOM     10  C   UNL     1       0.024  -0.733   1.162  0.00  0.00    +0.102 A 
BRANCH  10  11
ATOM     11  C   UNL     1       0.031  -0.252   2.543  0.00  0.00    +0.346 C 
ATOM     12  O   UNL     1       0.018   0.943   2.770  0.00  0.00    -0.244 OA
BRANCH  11  13
ATOM     13  O   UNL     1       0.053  -1.133   3.564  0.00  0.00    -0.464 OA
ATOM     14  C   UNL     1       0.060  -0.593   4.887  0.00  0.00    +0.280 C 
ENDBRANCH  11  13
ENDBRANCH  10  11
BRANCH   7  15
ATOM     15  C   UNL     1      -0.010  -0.058  -2.485  0.00  0.00    +0.342 C 
ATOM     16  O   UNL     1       1.036   0.236  -3.031  0.00  0.00    -0.245 OA
BRANCH  15  17
ATOM     17  O   UNL     1      -1.185   0.235  -3.078  0.00  0.00    -0.464 OA
ATOM     18  C   UNL     1      -1.126   0.890  -4.347  0.00  0.00    +0.280 C 
ENDBRANCH  15  17
ENDBRANCH   7  15
ENDBRANCH   1   8
BRANCH   2  19
ATOM     19  C   UNL     1       0.060  -5.373  -2.952  0.00  0.00    +0.173 C 
BRANCH  19  20
ATOM     20  S   UNL     1       0.086  -7.049  -2.257  0.00  0.00    -0.077 S 
BRANCH  20  21
ATOM     21  C   UNL     1       0.094  -8.097  -3.673  0.00  0.00    +0.185 A 
ATOM     22  N   UNL     1       0.107  -9.449  -3.660  0.00  0.00    -0.253 N 
ATOM     23  H   UNL     1       0.114 -10.021  -2.877  0.00  0.00    +0.191 HD
ATOM     24  N   UNL     1       0.107  -9.861  -5.002  0.00  0.00    -0.151 NA
ATOM     25  C   UNL     1       0.095  -8.771  -5.738  0.00  0.00    +0.189 A 
ATOM     26  N   UNL     1       0.082  -7.701  -4.927  0.00  0.00    -0.200 NA
BRANCH  25  27
ATOM     27  C   UNL     1       0.091  -8.731  -7.216  0.00  0.00    +0.058 A 
ATOM     28  C   UNL     1       0.093  -9.770  -8.107  0.00  0.00    +0.019 A 
ATOM     29  C   UNL     1       0.088  -9.486  -9.455  0.00  0.00    +0.008 A 
ATOM     30  C   UNL     1       0.082  -8.189  -9.858  0.00  0.00    +0.046 A 
ATOM     31  S   UNL     1       0.075  -7.314  -8.302  0.00  0.00    -0.093 S 
ENDBRANCH  25  27
ENDBRANCH  20  21
ENDBRANCH  19  20
ENDBRANCH   2  19
TORSDOF 9
