REMARK  Name = ZINC00706404
REMARK  11 active torsions:
REMARK  status: ('A' for Active; 'I' for Inactive)
REMARK    1  A    between atoms: C_1  and  C_2
REMARK    2  A    between atoms: C_2  and  N_3
REMARK    3  A    between atoms: N_3  and  C_4
REMARK    4  A    between atoms: N_3  and  C_6
REMARK    5  A    between atoms: C_4  and  C_5
REMARK    6  A    between atoms: C_9  and  C_12
REMARK    7  A    between atoms: C_14  and  C_21
REMARK    8  A    between atoms: C_15  and  C_20
REMARK    9  A    between atoms: C_21  and  O_23
REMARK   10  A    between atoms: O_23  and  C_24
REMARK   11  A    between atoms: C_24  and  C_25
REMARK                            x       y       z     vdW  Elec       q    Type
REMARK                         _______ _______ _______ _____ _____    ______ ____
ROOT
ATOM      1  C   UNL     1      -0.075   5.666   0.032  0.00  0.00    +0.143 C 
ATOM      2  C   UNL     1      -0.228   6.124   1.468  0.00  0.00    +0.078 C 
ATOM      3  C   UNL     1      -1.288   6.902   1.771  0.00  0.00    +0.021 C 
ATOM      4  N   UNL     1      -2.193   7.264   0.814  0.00  0.00    -0.273 N 
ATOM      5  C   UNL     1      -2.107   6.888  -0.469  0.00  0.00    +0.304 C 
ATOM      6  O   UNL     1      -2.961   7.261  -1.249  0.00  0.00    -0.252 OA
ATOM      7  N   UNL     1      -1.104   6.111  -0.923  0.00  0.00    -0.288 N 
ATOM      8  C   UNL     1      -1.478   7.379   3.188  0.00  0.00    +0.061 C 
ATOM      9  H   UNL     1      -2.939   7.824   1.077  0.00  0.00    +0.156 HD
ATOM     10  H   UNL     1      -1.061   5.851  -1.856  0.00  0.00    +0.151 HD
ENDROOT
BRANCH   1  14
ATOM     11  C   UNL     1      -0.017   1.393   0.010  0.00  0.00    +0.030 A 
ATOM     12  C   UNL     1      -1.228   2.072   0.019  0.00  0.00    +0.023 A 
ATOM     13  C   UNL     1      -1.243   3.453   0.031  0.00  0.00    +0.007 A 
ATOM     14  C   UNL     1      -0.054   4.159   0.024  0.00  0.00    -0.022 A 
ATOM     15  C   UNL     1       1.153   3.486   0.009  0.00  0.00    +0.007 A 
ATOM     16  C   UNL     1       1.176   2.105   0.002  0.00  0.00    +0.023 A 
BRANCH  11  17
ATOM     17  N   UNL     1       0.002  -0.004   0.002  0.00  0.00    -0.330 N 
BRANCH  17  19
ATOM     18  C   UNL     1      -1.708  -1.007  -1.430  0.00  0.00    +0.024 C 
ATOM     19  C   UNL     1      -1.256  -0.754   0.010  0.00  0.00    +0.102 C 
ENDBRANCH  17  19
BRANCH  17  20
ATOM     20  C   UNL     1       1.281  -0.719  -0.014  0.00  0.00    +0.102 C 
ATOM     21  C   UNL     1       1.739  -0.976   1.423  0.00  0.00    +0.024 C 
ENDBRANCH  17  20
ENDBRANCH  11  17
ENDBRANCH   1  14
BRANCH   2  22
ATOM     22  C   UNL     1       0.709   5.748   2.459  0.00  0.00    +0.339 C 
ATOM     23  O   UNL     1       0.566   6.128   3.606  0.00  0.00    -0.245 OA
BRANCH  22  24
ATOM     24  O   UNL     1       1.762   4.970   2.132  0.00  0.00    -0.457 OA
BRANCH  24  25
ATOM     25  C   UNL     1       2.668   4.629   3.183  0.00  0.00    +0.268 C 
BRANCH  25  26
ATOM     26  C   UNL     1       3.771   3.762   2.634  0.00  0.00    -0.007 A 
ATOM     27  C   UNL     1       3.630   2.387   2.630  0.00  0.00    +0.011 A 
ATOM     28  C   UNL     1       4.636   1.587   2.121  0.00  0.00    +0.050 A 
ATOM     29  C   UNL     1       5.795   2.162   1.625  0.00  0.00    +0.166 A 
ATOM     30  C   UNL     1       5.939   3.547   1.634  0.00  0.00    +0.167 A 
ATOM     31  C   UNL     1       4.924   4.343   2.140  0.00  0.00    +0.056 A 
ATOM     32  O   UNL     1       7.154   3.863   1.097  0.00  0.00    -0.453 OA
ATOM     33  C   UNL     1       7.920   2.644   1.137  0.00  0.00    +0.466 C 
ATOM     34  O   UNL     1       6.919   1.610   1.083  0.00  0.00    -0.453 OA
ENDBRANCH  25  26
ENDBRANCH  24  25
ENDBRANCH  22  24
ENDBRANCH   2  22
TORSDOF 8
