REMARK  Name = ZINC40846275
REMARK  7 active torsions:
REMARK  status: ('A' for Active; 'I' for Inactive)
REMARK    1  A    between atoms: C_4  and  C_7
REMARK    2  A    between atoms: C_7  and  N_8
REMARK    3  A    between atoms: N_16  and  N_17
REMARK    4  A    between atoms: C_18  and  C_20
REMARK    5  A    between atoms: C_20  and  O_21
REMARK    6  A    between atoms: O_21  and  C_22
REMARK    7  A    between atoms: C_25  and  N_28
REMARK                            x       y       z     vdW  Elec       q    Type
REMARK                         _______ _______ _______ _____ _____    ______ ____
ROOT
ATOM      1  N   UNL     1       4.152  -0.952   1.338  0.00  0.00    -0.261 N 
ATOM      2  C   UNL     1       4.944  -0.078   2.074  0.00  0.00    +0.046 A 
ATOM      3  C   UNL     1       5.496   1.158   1.757  0.00  0.00    +0.024 A 
ATOM      4  C   UNL     1       6.260   1.835   2.686  0.00  0.00    +0.002 A 
ATOM      5  C   UNL     1       6.487   1.295   3.941  0.00  0.00    +0.001 A 
ATOM      6  C   UNL     1       5.947   0.068   4.274  0.00  0.00    +0.012 A 
ATOM      7  C   UNL     1       5.176  -0.621   3.344  0.00  0.00    +0.028 A 
ATOM      8  C   UNL     1       4.470  -1.923   3.378  0.00  0.00    +0.153 C 
ATOM      9  N   UNL     1       4.414  -2.775   4.372  0.00  0.00    -0.174 NA
ATOM     10  C   UNL     1       3.837  -2.048   2.050  0.00  0.00    +0.272 C 
ATOM     11  O   UNL     1       3.154  -2.979   1.666  0.00  0.00    -0.268 OA
ENDROOT
BRANCH   9  12
ATOM     12  N   UNL     1       3.695  -3.970   4.232  0.00  0.00    -0.203 N 
ATOM     13  C   UNL     1       3.638  -4.846   5.254  0.00  0.00    +0.270 C 
ATOM     14  O   UNL     1       4.209  -4.601   6.295  0.00  0.00    -0.270 OA
ATOM     15  H   UNL     1       3.238  -4.165   3.399  0.00  0.00    +0.177 HD
BRANCH  13  16
ATOM     16  C   UNL     1       2.864  -6.130   5.103  0.00  0.00    +0.326 C 
BRANCH  16  17
ATOM     17  O   UNL     1       2.953  -6.885   6.313  0.00  0.00    -0.483 OA
BRANCH  17  18
ATOM     18  C   UNL     1       2.306  -8.079   6.345  0.00  0.00    +0.121 A 
ATOM     19  C   UNL     1       1.604  -8.519   5.231  0.00  0.00    +0.048 A 
ATOM     20  C   UNL     1       0.947  -9.733   5.265  0.00  0.00    +0.036 A 
ATOM     21  C   UNL     1       0.988 -10.511   6.408  0.00  0.00    +0.126 A 
ATOM     22  C   UNL     1       1.686 -10.075   7.519  0.00  0.00    +0.036 A 
ATOM     23  C   UNL     1       2.350  -8.864   7.488  0.00  0.00    +0.048 A 
BRANCH  21  24
ATOM     24  N   UNL     1       0.283 -11.812   6.442  0.00  0.00    +0.056 N 
ATOM     25  O   UNL     1      -0.328 -12.194   5.471  0.00  0.00    -0.126 OA
ATOM     26  O   UNL     1       0.319 -12.493   7.440  0.00  0.00    -0.126 OA
ENDBRANCH  21  24
ENDBRANCH  17  18
ENDBRANCH  16  17
ENDBRANCH  13  16
ENDBRANCH   9  12
BRANCH   1  27
ATOM     27  C   UNL     1       3.711  -0.707  -0.038  0.00  0.00    +0.149 C 
BRANCH  27  31
ATOM     28  C   UNL     1      -0.017   1.378   0.010  0.00  0.00    +0.000 A 
ATOM     29  C   UNL     1       1.171   2.086   0.002  0.00  0.00    +0.000 A 
ATOM     30  C   UNL     1       2.377   1.411  -0.013  0.00  0.00    +0.005 A 
ATOM     31  C   UNL     1       2.396   0.029  -0.020  0.00  0.00    -0.030 A 
ATOM     32  C   UNL     1       1.208  -0.679  -0.012  0.00  0.00    +0.005 A 
ATOM     33  C   UNL     1       0.002  -0.004   0.002  0.00  0.00    +0.000 A 
ENDBRANCH  27  31
ENDBRANCH   1  27
TORSDOF 7
