REMARK  Name = ZINC40882055
REMARK  10 active torsions:
REMARK  status: ('A' for Active; 'I' for Inactive)
REMARK    1  A    between atoms: C_1  and  C_2
REMARK    2  A    between atoms: C_2  and  C_3
REMARK    3  A    between atoms: C_2  and  O_4
REMARK    4  A    between atoms: O_4  and  C_5
REMARK    5  A    between atoms: C_8  and  C_13
REMARK    6  A    between atoms: C_10  and  O_11
REMARK    7  A    between atoms: O_11  and  C_12
REMARK    8  A    between atoms: C_14  and  C_15
REMARK    9  A    between atoms: N_17  and  C_18
REMARK   10  A    between atoms: C_21  and  N_25
REMARK                            x       y       z     vdW  Elec       q    Type
REMARK                         _______ _______ _______ _____ _____    ______ ____
ROOT
ATOM      1  C   UNL     1      -2.332  -5.186  -2.891  0.00  0.00    +0.013 C 
ATOM      2  C   UNL     1      -1.307  -5.856  -3.460  0.00  0.00    +0.068 C 
ENDROOT
BRANCH   1   6
ATOM      3  C   UNL     1      -1.587  -1.597  -0.750  0.00  0.00    +0.162 A 
ATOM      4  C   UNL     1      -0.534  -2.288  -1.335  0.00  0.00    +0.050 A 
ATOM      5  C   UNL     1      -0.771  -3.453  -2.031  0.00  0.00    +0.012 A 
ATOM      6  C   UNL     1      -2.076  -3.943  -2.149  0.00  0.00    -0.021 A 
ATOM      7  C   UNL     1      -3.137  -3.247  -1.559  0.00  0.00    +0.057 A 
ATOM      8  C   UNL     1      -2.890  -2.083  -0.859  0.00  0.00    +0.162 A 
BRANCH   8   9
ATOM      9  O   UNL     1      -3.917  -1.406  -0.279  0.00  0.00    -0.491 OA
ATOM     10  C   UNL     1      -5.226  -1.961  -0.430  0.00  0.00    +0.277 C 
ENDBRANCH   8   9
BRANCH   3  11
ATOM     11  O   UNL     1      -1.347  -0.449  -0.066  0.00  0.00    -0.486 OA
BRANCH  11  13
ATOM     12  C   UNL     1      -0.041   1.584  -0.083  0.00  0.00    +0.051 C 
ATOM     13  C   UNL     1      -0.010   0.054  -0.092  0.00  0.00    +0.167 C 
ATOM     14  C   UNL     1       0.749  -0.448   1.139  0.00  0.00    +0.051 C 
ENDBRANCH  11  13
ENDBRANCH   3  11
ENDBRANCH   1   6
BRANCH   2  15
ATOM     15  C   UNL     1      -1.562  -7.092  -4.198  0.00  0.00    +0.241 C 
ATOM     16  O   UNL     1      -2.698  -7.517  -4.300  0.00  0.00    -0.270 OA
ATOM     17  N   UNL     1      -0.539  -7.761  -4.766  0.00  0.00    -0.281 N 
ATOM     18  H   UNL     1       0.374  -7.470  -4.615  0.00  0.00    +0.155 HD
BRANCH  17  19
ATOM     19  C   UNL     1      -0.794  -8.875  -5.572  0.00  0.00    +0.048 A 
ATOM     20  C   UNL     1      -2.020  -9.006  -6.210  0.00  0.00    +0.026 A 
ATOM     21  C   UNL     1      -2.269 -10.107  -7.006  0.00  0.00    +0.034 A 
ATOM     22  C   UNL     1      -1.298 -11.079  -7.168  0.00  0.00    +0.127 A 
ATOM     23  C   UNL     1      -0.075 -10.952  -6.535  0.00  0.00    +0.049 A 
ATOM     24  C   UNL     1       0.182  -9.850  -5.742  0.00  0.00    +0.041 A 
ATOM     25 BR   UNL     1       1.857  -9.672  -4.883  0.00  0.00    -0.048 Br
BRANCH  22  26
ATOM     26  N   UNL     1      -1.568 -12.258  -8.021  0.00  0.00    +0.056 N 
ATOM     27  O   UNL     1      -2.637 -12.371  -8.575  0.00  0.00    -0.126 OA
ATOM     28  O   UNL     1      -0.721 -13.108  -8.163  0.00  0.00    -0.126 OA
ENDBRANCH  22  26
ENDBRANCH  17  19
ENDBRANCH   2  15
TORSDOF 7
