REMARK  Name = ZINC07921938
REMARK  6 active torsions:
REMARK  status: ('A' for Active; 'I' for Inactive)
REMARK    1  A    between atoms: C_6  and  N_7
REMARK    2  A    between atoms: C_8  and  C_10
REMARK    3  A    between atoms: C_10  and  C_11
REMARK    4  A    between atoms: C_11  and  C_12
REMARK    5  A    between atoms: C_12  and  N_13
REMARK    6  A    between atoms: C_17  and  N_23
REMARK                            x       y       z     vdW  Elec       q    Type
REMARK                         _______ _______ _______ _____ _____    ______ ____
ROOT
ATOM      1  C   UNL     1      -4.833   0.122   0.367  0.00  0.00    +0.031 C 
ENDROOT
BRANCH   1   2
ATOM      2  C   UNL     1      -3.657  -0.849   0.249  0.00  0.00    +0.098 C 
BRANCH   2   4
ATOM      3  N   UNL     1      -1.199  -0.722   0.010  0.00  0.00    -0.285 N 
ATOM      4  C   UNL     1      -2.373  -0.071   0.127  0.00  0.00    +0.217 C 
ATOM      5  O   UNL     1      -2.396   1.142   0.134  0.00  0.00    -0.275 OA
ATOM      6  H   UNL     1      -1.186  -1.689  -0.072  0.00  0.00    +0.155 HD
BRANCH   3  12
ATOM      7  C   UNL     1       0.122   1.156   0.761  0.00  0.00    +0.023 A 
ATOM      8  C   UNL     1       1.309   1.860   0.755  0.00  0.00    +0.006 A 
ATOM      9  C   UNL     1       2.382   1.414   0.002  0.00  0.00    -0.044 A 
ATOM     10  C   UNL     1       2.266   0.258  -0.750  0.00  0.00    -0.042 A 
ATOM     11  C   UNL     1       1.078  -0.450  -0.747  0.00  0.00    +0.027 A 
ATOM     12  C   UNL     1       0.002  -0.004   0.008  0.00  0.00    +0.034 A 
ATOM     13  C   UNL     1       3.567  -0.011  -1.477  0.00  0.00    +0.036 C 
ATOM     14  C   UNL     1       4.336   1.326  -1.438  0.00  0.00    +0.009 C 
ATOM     15  C   UNL     1       3.768   1.998  -0.170  0.00  0.00    +0.036 C 
ENDBRANCH   3  12
ENDBRANCH   2   4
ENDBRANCH   1   2
BRANCH   1  16
ATOM     16  C   UNL     1      -6.138  -0.668   0.491  0.00  0.00    +0.129 C 
BRANCH  16  17
ATOM     17  N   UNL     1      -7.263   0.263   0.605  0.00  0.00    -0.274 N 
ATOM     18  C   UNL     1      -7.785   0.786   1.787  0.00  0.00    +0.090 A 
ATOM     19  C   UNL     1      -7.456   0.628   3.125  0.00  0.00    +0.032 A 
ATOM     20  C   UNL     1      -8.178   1.298   4.093  0.00  0.00    +0.035 A 
ATOM     21  C   UNL     1      -9.226   2.126   3.732  0.00  0.00    +0.130 A 
ATOM     22  C   UNL     1      -9.559   2.289   2.402  0.00  0.00    +0.081 A 
ATOM     23  C   UNL     1      -8.841   1.621   1.422  0.00  0.00    +0.159 A 
ATOM     24  O   UNL     1      -8.934   1.585   0.070  0.00  0.00    -0.407 OA
ATOM     25  C   UNL     1      -7.981   0.773  -0.415  0.00  0.00    +0.421 A 
ATOM     26  O   UNL     1      -7.796   0.534  -1.593  0.00  0.00    -0.223 OA
BRANCH  21  27
ATOM     27  N   UNL     1      -9.995   2.840   4.777  0.00  0.00    +0.057 N 
ATOM     28  O   UNL     1      -9.706   2.699   5.942  0.00  0.00    -0.126 OA
ATOM     29  O   UNL     1     -10.911   3.564   4.464  0.00  0.00    -0.126 OA
ENDBRANCH  21  27
ENDBRANCH  16  17
ENDBRANCH   1  16
TORSDOF 6
