REMARK  Name = ZINC14009020
REMARK  10 active torsions:
REMARK  status: ('A' for Active; 'I' for Inactive)
REMARK    1  A    between atoms: C_1  and  O_2
REMARK    2  A    between atoms: O_2  and  C_3
REMARK    3  A    between atoms: C_3  and  C_4
REMARK    4  A    between atoms: C_4  and  N_5
REMARK    5  A    between atoms: C_9  and  C_10
REMARK    6  A    between atoms: C_12  and  N_19
REMARK    7  A    between atoms: C_13  and  O_18
REMARK    8  A    between atoms: C_14  and  O_16
REMARK    9  A    between atoms: O_16  and  C_17
REMARK   10  A    between atoms: N_24  and  C_25
REMARK                            x       y       z     vdW  Elec       q    Type
REMARK                         _______ _______ _______ _____ _____    ______ ____
ROOT
ATOM      1  N   UNL     1      -0.606  -3.334  -1.010  0.00  0.00    -0.244 N 
ATOM      2  C   UNL     1      -1.397  -3.251   0.055  0.00  0.00    +0.259 C 
ATOM      3  O   UNL     1      -0.976  -3.038   1.176  0.00  0.00    -0.269 OA
ATOM      4  C   UNL     1      -2.834  -3.438  -0.245  0.00  0.00    +0.078 C 
ATOM      5  C   UNL     1      -3.926  -3.411   0.638  0.00  0.00    +0.028 C 
ATOM      6  S   UNL     1      -2.835  -3.690  -1.905  0.00  0.00    -0.049 S 
ATOM      7  C   UNL     1      -1.193  -3.571  -2.222  0.00  0.00    +0.168 C 
ATOM      8  N   UNL     1      -0.591  -3.684  -3.398  0.00  0.00    -0.225 NA
ENDROOT
BRANCH   5   9
ATOM      9  C   UNL     1      -5.208  -3.759   0.182  0.00  0.00    -0.018 A 
ATOM     10  C   UNL     1      -5.357  -4.559  -0.976  0.00  0.00    +0.044 A 
ATOM     11  C   UNL     1      -6.601  -4.894  -1.414  0.00  0.00    +0.172 A 
ATOM     12  C   UNL     1      -7.733  -4.450  -0.724  0.00  0.00    +0.189 A 
ATOM     13  C   UNL     1      -7.595  -3.655   0.426  0.00  0.00    +0.164 A 
ATOM     14  C   UNL     1      -6.354  -3.317   0.879  0.00  0.00    +0.057 A 
BRANCH  11  15
ATOM     15  N   UNL     1      -6.757  -5.731  -2.625  0.00  0.00    +0.060 N 
ATOM     16  O   UNL     1      -5.692  -6.150  -3.277  0.00  0.00    -0.126 OA
ATOM     17  O   UNL     1      -7.960  -6.056  -3.050  0.00  0.00    -0.126 OA
ENDBRANCH  11  15
BRANCH  13  18
ATOM     18  O   UNL     1      -8.700  -3.228   1.091  0.00  0.00    -0.491 OA
ATOM     19  C   UNL     1      -8.487  -2.423   2.253  0.00  0.00    +0.277 C 
ENDBRANCH  13  18
BRANCH  12  20
ATOM     20  O   UNL     1      -8.966  -4.788  -1.166  0.00  0.00    -0.502 OA
ATOM     21  H   UNL     1      -9.305  -5.613  -0.794  0.00  0.00    +0.292 HD
ENDBRANCH  12  20
ENDBRANCH   5   9
BRANCH   8  22
ATOM     22  C   UNL     1      -1.314  -3.919  -4.502  0.00  0.00    +0.067 A 
ATOM     23  C   UNL     1      -2.340  -4.890  -4.488  0.00  0.00    +0.028 A 
ATOM     24  C   UNL     1      -3.069  -5.118  -5.619  0.00  0.00    +0.002 A 
ATOM     25  C   UNL     1      -2.807  -4.401  -6.779  0.00  0.00    +0.000 A 
ATOM     26  C   UNL     1      -1.802  -3.444  -6.805  0.00  0.00    +0.002 A 
ATOM     27  C   UNL     1      -1.061  -3.192  -5.686  0.00  0.00    +0.028 A 
ENDBRANCH   8  22
BRANCH   1  28
ATOM     28  C   UNL     1       0.845  -3.173  -0.889  0.00  0.00    +0.144 C 
BRANCH  28  29
ATOM     29  C   UNL     1       1.209  -1.696  -1.056  0.00  0.00    +0.179 C 
BRANCH  29  31
ATOM     30  C   UNL     1       0.937   0.456  -0.036  0.00  0.00    +0.194 C 
ATOM     31  O   UNL     1       0.654  -0.943   0.024  0.00  0.00    -0.381 OA
ENDBRANCH  29  31
ENDBRANCH  28  29
ENDBRANCH   1  28
TORSDOF 8
