REMARK  Name = ZINC36572913
REMARK  12 active torsions:
REMARK  status: ('A' for Active; 'I' for Inactive)
REMARK    1  A    between atoms: C_1  and  C_2
REMARK    2  A    between atoms: C_2  and  C_3
REMARK    3  A    between atoms: C_3  and  N_4
REMARK    4  A    between atoms: N_4  and  C_5
REMARK    5  A    between atoms: C_5  and  C_7
REMARK    6  A    between atoms: C_5  and  C_12
REMARK    7  A    between atoms: N_14  and  C_15
REMARK    8  A    between atoms: C_15  and  S_16
REMARK    9  A    between atoms: S_16  and  C_19
REMARK   10  A    between atoms: C_22  and  C_25
REMARK   11  A    between atoms: C_26  and  C_28
REMARK   12  A    between atoms: C_28  and  C_29
REMARK                            x       y       z     vdW  Elec       q    Type
REMARK                         _______ _______ _______ _____ _____    ______ ____
ROOT
ATOM      1  C   UNL     1      -1.318  -2.526   1.260  0.00  0.00    +0.228 C 
ENDROOT
BRANCH   1   2
ATOM      2  C   UNL     1      -2.608  -2.039   1.867  0.00  0.00    +0.134 A 
ATOM      3  C   UNL     1      -3.382  -2.725   2.726  0.00  0.00    +0.047 A 
ATOM      4  C   UNL     1      -4.485  -1.897   3.036  0.00  0.00    +0.041 A 
ATOM      5  C   UNL     1      -4.319  -0.753   2.348  0.00  0.00    +0.195 A 
ATOM      6  O   UNL     1      -3.178  -0.843   1.645  0.00  0.00    -0.465 OA
ENDBRANCH   1   2
BRANCH   1   7
ATOM      7  C   UNL     1      -0.154  -1.938   2.015  0.00  0.00    +0.242 C 
ATOM      8  O   UNL     1       0.583  -1.143   1.470  0.00  0.00    -0.273 OA
ATOM      9  N   UNL     1       0.068  -2.294   3.295  0.00  0.00    -0.294 N 
ATOM     10  H   UNL     1      -0.521  -2.929   3.731  0.00  0.00    +0.150 HD
BRANCH   9  11
ATOM     11  C   UNL     1       1.200  -1.721   4.029  0.00  0.00    +0.278 C 
BRANCH  11  12
ATOM     12  S   UNL     1       0.638  -0.283   4.981  0.00  0.00    +0.013 S 
ATOM     13  O   UNL     1       1.711   0.246   5.748  0.00  0.00    -0.168 OA
ATOM     14  O   UNL     1      -0.155   0.566   4.162  0.00  0.00    -0.168 OA
BRANCH  12  15
ATOM     15  C   UNL     1      -0.485  -0.938   6.170  0.00  0.00    +0.090 A 
ATOM     16  C   UNL     1      -1.829  -1.044   5.866  0.00  0.00    +0.027 A 
ATOM     17  C   UNL     1      -2.710  -1.558   6.799  0.00  0.00    +0.005 A 
ATOM     18  C   UNL     1      -2.247  -1.965   8.036  0.00  0.00    -0.050 A 
ATOM     19  C   UNL     1      -0.903  -1.859   8.340  0.00  0.00    +0.005 A 
ATOM     20  C   UNL     1      -0.021  -1.349   7.405  0.00  0.00    +0.027 A 
ATOM     21  C   UNL     1      -3.208  -2.524   9.054  0.00  0.00    +0.044 C 
ENDBRANCH  12  15
ENDBRANCH  11  12
ENDBRANCH   9  11
ENDBRANCH   1   7
BRANCH   1  22
ATOM     22  N   UNL     1      -1.250  -2.111  -0.143  0.00  0.00    -0.283 N 
ATOM     23  C   UNL     1      -1.245  -0.801  -0.459  0.00  0.00    +0.221 C 
ATOM     24  O   UNL     1      -1.296   0.035   0.419  0.00  0.00    -0.275 OA
BRANCH  22  25
ATOM     25  C   UNL     1      -1.189  -3.120  -1.204  0.00  0.00    +0.109 C 
BRANCH  25  27
ATOM     26  C   UNL     1      -2.545  -4.460  -2.819  0.00  0.00    +0.005 C 
ATOM     27  C   UNL     1      -2.609  -3.497  -1.632  0.00  0.00    +0.016 C 
ENDBRANCH  25  27
ENDBRANCH  22  25
BRANCH  23  28
ATOM     28  C   UNL     1      -1.175  -0.374  -1.902  0.00  0.00    +0.131 C 
BRANCH  28  29
ATOM     29  C   UNL     1      -1.183   1.131  -1.982  0.00  0.00    -0.035 A 
ATOM     30  C   UNL     1      -2.384   1.811  -2.073  0.00  0.00    +0.008 A 
ATOM     31  C   UNL     1      -2.396   3.191  -2.145  0.00  0.00    +0.050 A 
ATOM     32  C   UNL     1      -1.204   3.897  -2.128  0.00  0.00    +0.166 A 
ATOM     33  C   UNL     1       0.005   3.213  -2.036  0.00  0.00    +0.166 A 
ATOM     34  C   UNL     1       0.010   1.829  -1.958  0.00  0.00    +0.053 A 
ATOM     35  O   UNL     1       1.023   4.122  -2.037  0.00  0.00    -0.453 OA
ATOM     36  C   UNL     1       0.447   5.342  -2.541  0.00  0.00    +0.466 C 
ATOM     37  O   UNL     1      -0.944   5.236  -2.186  0.00  0.00    -0.453 OA
ENDBRANCH  28  29
ENDBRANCH  23  28
ENDBRANCH   1  22
TORSDOF 10
