REMARK  Name = ZINC06922046
REMARK  11 active torsions:
REMARK  status: ('A' for Active; 'I' for Inactive)
REMARK    1  A    between atoms: C_1  and  C_2
REMARK    2  A    between atoms: C_4  and  C_28
REMARK    3  A    between atoms: C_6  and  N_8
REMARK    4  A    between atoms: C_9  and  C_10
REMARK    5  A    between atoms: N_11  and  C_12
REMARK    6  A    between atoms: N_11  and  C_13
REMARK    7  A    between atoms: C_13  and  C_14
REMARK    8  A    between atoms: C_14  and  N_15
REMARK    9  A    between atoms: N_15  and  S_16
REMARK   10  A    between atoms: S_16  and  C_19
REMARK   11  A    between atoms: C_22  and  N_25
REMARK                            x       y       z     vdW  Elec       q    Type
REMARK                         _______ _______ _______ _____ _____    ______ ____
ROOT
ATOM      1  C   UNL     1       2.875  -2.077  -2.255  0.00  0.00    +0.125 C 
ENDROOT
BRANCH   1   2
ATOM      2  N   UNL     1       1.834  -2.139  -1.225  0.00  0.00    -0.188 NA
ATOM      3  H   UNL     1       0.962  -2.504  -1.439  0.00  0.00    +0.148 HD
BRANCH   2   4
ATOM      4  S   UNL     1       2.149  -1.587   0.304  0.00  0.00    +0.058 S 
ATOM      5  O   UNL     1       3.382  -2.170   0.701  0.00  0.00    -0.153 OA
ATOM      6  O   UNL     1       0.951  -1.756   1.051  0.00  0.00    -0.153 OA
BRANCH   4   7
ATOM      7  C   UNL     1       2.427   0.149   0.184  0.00  0.00    +0.105 A 
ATOM      8  C   UNL     1       1.368   1.029   0.306  0.00  0.00    +0.031 A 
ATOM      9  C   UNL     1       1.586   2.390   0.213  0.00  0.00    +0.034 A 
ATOM     10  C   UNL     1       2.864   2.873  -0.002  0.00  0.00    +0.126 A 
ATOM     11  C   UNL     1       3.923   1.993  -0.124  0.00  0.00    +0.034 A 
ATOM     12  C   UNL     1       3.705   0.631  -0.030  0.00  0.00    +0.031 A 
BRANCH  10  13
ATOM     13  N   UNL     1       3.098   4.331  -0.102  0.00  0.00    +0.056 N 
ATOM     14  O   UNL     1       2.164   5.106   0.005  0.00  0.00    -0.126 OA
ATOM     15  O   UNL     1       4.224   4.755  -0.290  0.00  0.00    -0.126 OA
ENDBRANCH  10  13
ENDBRANCH   4   7
ENDBRANCH   2   4
ENDBRANCH   1   2
BRANCH   1  16
ATOM     16  C   UNL     1       2.478  -2.966  -3.435  0.00  0.00    +0.122 C 
BRANCH  16  20
ATOM     17  N   UNL     1       4.271  -2.039  -6.473  0.00  0.00    -0.237 NA
ATOM     18  C   UNL     1       3.400  -2.024  -5.505  0.00  0.00    +0.095 C 
ATOM     19  C   UNL     1       2.260  -1.038  -5.531  0.00  0.00    +0.083 C 
ATOM     20  N   UNL     1       3.519  -2.904  -4.464  0.00  0.00    -0.321 N 
ATOM     21  C   UNL     1       4.687  -3.783  -4.379  0.00  0.00    +0.130 C 
BRANCH  17  27
ATOM     22  C   UNL     1       1.437  -0.431 -10.131  0.00  0.00    +0.044 C 
ATOM     23  C   UNL     1       2.735  -0.414  -9.364  0.00  0.00    -0.048 A 
ATOM     24  C   UNL     1       3.758   0.430  -9.758  0.00  0.00    +0.006 A 
ATOM     25  C   UNL     1       4.952   0.452  -9.059  0.00  0.00    -0.048 A 
ATOM     26  C   UNL     1       5.129  -0.368  -7.964  0.00  0.00    +0.031 A 
ATOM     27  C   UNL     1       4.101  -1.221  -7.561  0.00  0.00    +0.066 A 
ATOM     28  C   UNL     1       2.901  -1.242  -8.274  0.00  0.00    +0.031 A 
ATOM     29  C   UNL     1       6.061   1.375  -9.495  0.00  0.00    +0.044 C 
ENDBRANCH  17  27
ENDBRANCH  16  20
ENDBRANCH   1  16
TORSDOF 7
