REMARK  Name = ZINC08110283
REMARK  9 active torsions:
REMARK  status: ('A' for Active; 'I' for Inactive)
REMARK    1  A    between atoms: C_1  and  C_2
REMARK    2  A    between atoms: C_3  and  C_25
REMARK    3  A    between atoms: C_4  and  C_24
REMARK    4  A    between atoms: C_5  and  S_10
REMARK    5  A    between atoms: C_6  and  C_9
REMARK    6  A    between atoms: C_7  and  C_8
REMARK    7  A    between atoms: S_10  and  N_13
REMARK    8  A    between atoms: N_13  and  C_14
REMARK    9  A    between atoms: C_21  and  C_23
REMARK                            x       y       z     vdW  Elec       q    Type
REMARK                         _______ _______ _______ _____ _____    ______ ____
ROOT
ATOM      1  S   UNL     1      -2.892   4.360   5.184  0.00  0.00    +0.073 S 
ATOM      2  O   UNL     1      -2.320   5.179   6.194  0.00  0.00    -0.150 OA
ATOM      3  O   UNL     1      -3.903   4.830   4.304  0.00  0.00    -0.150 OA
ENDROOT
BRANCH   1   8
ATOM      4  C   UNL     1       1.666   2.458   1.718  0.00  0.00    +0.044 C 
ATOM      5  C   UNL     1       0.527   2.933   2.584  0.00  0.00    -0.044 A 
ATOM      6  C   UNL     1      -0.751   3.006   2.065  0.00  0.00    -0.043 A 
ATOM      7  C   UNL     1      -1.797   3.438   2.860  0.00  0.00    -0.020 A 
ATOM      8  C   UNL     1      -1.561   3.804   4.172  0.00  0.00    +0.115 A 
ATOM      9  C   UNL     1      -0.281   3.736   4.689  0.00  0.00    -0.020 A 
ATOM     10  C   UNL     1       0.763   3.300   3.896  0.00  0.00    -0.043 A 
ATOM     11  C   UNL     1       2.159   3.226   4.460  0.00  0.00    +0.044 C 
ATOM     12  C   UNL     1      -0.024   4.136   6.119  0.00  0.00    +0.046 C 
ATOM     13  C   UNL     1      -3.192   3.513   2.296  0.00  0.00    +0.046 C 
ATOM     14  C   UNL     1      -1.008   2.612   0.633  0.00  0.00    +0.044 C 
ENDBRANCH   1   8
BRANCH   1  15
ATOM     15  N   UNL     1      -3.513   3.029   5.950  0.00  0.00    -0.216 N 
ATOM     16  H   UNL     1      -4.416   2.735   5.755  0.00  0.00    +0.174 HD
BRANCH  15  17
ATOM     17  C   UNL     1      -2.734   2.330   6.878  0.00  0.00    +0.050 A 
ATOM     18  C   UNL     1      -1.714   1.490   6.436  0.00  0.00    +0.028 A 
ATOM     19  C   UNL     1      -0.937   0.800   7.341  0.00  0.00    +0.050 A 
ATOM     20  C   UNL     1      -1.176   0.931   8.701  0.00  0.00    +0.155 A 
ATOM     21  C   UNL     1      -2.205   1.770   9.154  0.00  0.00    +0.111 A 
ATOM     22  C   UNL     1      -2.984   2.470   8.232  0.00  0.00    +0.056 A 
ATOM     23  N   UNL     1      -2.197   1.694  10.513  0.00  0.00    -0.213 NA
ATOM     24  C   UNL     1      -1.251   0.882  10.881  0.00  0.00    +0.194 A 
ATOM     25  O   UNL     1      -0.608   0.398   9.807  0.00  0.00    -0.440 OA
ATOM     26  C   UNL     1      -0.923   0.535  12.310  0.00  0.00    +0.109 C 
ENDBRANCH  15  17
ENDBRANCH   1  15
TORSDOF 3
