REMARK  Name = ZINC13033124
REMARK  10 active torsions:
REMARK  status: ('A' for Active; 'I' for Inactive)
REMARK    1  A    between atoms: C_1  and  C_2
REMARK    2  A    between atoms: C_7  and  C_14
REMARK    3  A    between atoms: C_14  and  N_60
REMARK    4  A    between atoms: C_15  and  C_16
REMARK    5  A    between atoms: C_15  and  N_60
REMARK    6  A    between atoms: C_21  and  C_22
REMARK    7  A    between atoms: C_21  and  N_60
REMARK    8  A    between atoms: N_26  and  C_27
REMARK    9  A    between atoms: C_27  and  C_28
REMARK   10  A    between atoms: C_28  and  C_29
REMARK                            x       y       z     vdW  Elec       q    Type
REMARK                         _______ _______ _______ _____ _____    ______ ____
ROOT
ATOM      1  N   UNL     1      -0.732   1.671   1.030  0.00  0.00    +0.392 N 
ATOM      2  H   UNL     1      -0.920   2.679   0.978  0.00  0.00    -0.080 HD
ENDROOT
BRANCH   1   3
ATOM      3  C   UNL     1       0.278   1.425   2.081  0.00  0.00    -0.036 C 
BRANCH   3  10
ATOM      4  C   UNL     1       5.252   7.654   2.384  0.00  0.00    +0.044 C 
ATOM      5  C   UNL     1       4.186   6.593   2.485  0.00  0.00    -0.048 A 
ATOM      6  C   UNL     1       3.112   6.779   3.345  0.00  0.00    +0.004 A 
ATOM      7  C   UNL     1       2.135   5.830   3.452  0.00  0.00    +0.010 A 
ATOM      8  C   UNL     1       2.217   4.661   2.687  0.00  0.00    -0.001 A 
ATOM      9  C   UNL     1       1.187   3.624   2.777  0.00  0.00    +0.017 A 
ATOM     10  C   UNL     1       1.320   2.512   2.012  0.00  0.00    +0.001 A 
ATOM     11  C   UNL     1       2.432   2.367   1.156  0.00  0.00    +0.251 A 
ATOM     12  O   UNL     1       2.534   1.357   0.481  0.00  0.00    -0.268 OA
ATOM     13  N   UNL     1       3.380   3.317   1.063  0.00  0.00    -0.322 N 
ATOM     14  H   UNL     1       4.129   3.186   0.461  0.00  0.00    +0.169 HD
ATOM     15  C   UNL     1       3.303   4.470   1.814  0.00  0.00    +0.049 A 
ATOM     16  C   UNL     1       4.287   5.450   1.722  0.00  0.00    +0.029 A 
ENDBRANCH   3  10
ENDBRANCH   1   3
BRANCH   1  17
ATOM     17  C   UNL     1      -1.988   0.965   1.361  0.00  0.00    -0.002 C 
BRANCH  17  18
ATOM     18  C   UNL     1      -2.658   1.679   2.506  0.00  0.00    +0.089 A 
ATOM     19  C   UNL     1      -3.490   2.730   2.399  0.00  0.00    +0.042 A 
ATOM     20  C   UNL     1      -3.882   3.078   3.712  0.00  0.00    +0.041 A 
ATOM     21  C   UNL     1      -3.266   2.219   4.543  0.00  0.00    +0.195 A 
ATOM     22  O   UNL     1      -2.530   1.370   3.807  0.00  0.00    -0.470 OA
ENDBRANCH  17  18
ENDBRANCH   1  17
BRANCH   1  23
ATOM     23  C   UNL     1      -0.222   1.210  -0.279  0.00  0.00    +0.001 C 
BRANCH  23  24
ATOM     24  C   UNL     1      -1.169   1.668  -1.358  0.00  0.00    +0.135 A 
ATOM     25  N   UNL     1      -2.195   1.005  -1.833  0.00  0.00    -0.115 NA
ATOM     26  N   UNL     1      -2.753   1.731  -2.739  0.00  0.00    -0.023 NA
ATOM     27  N   UNL     1      -2.105   2.836  -2.861  0.00  0.00    -0.044 NA
ATOM     28  N   UNL     1      -1.121   2.836  -2.026  0.00  0.00    -0.231 N 
BRANCH  28  29
ATOM     29  C   UNL     1      -0.136   3.905  -1.841  0.00  0.00    +0.152 C 
BRANCH  29  30
ATOM     30  C   UNL     1       1.053   3.670  -2.775  0.00  0.00    +0.058 C 
BRANCH  30  31
ATOM     31  C   UNL     1       2.066   4.770  -2.585  0.00  0.00    -0.046 A 
ATOM     32  C   UNL     1       1.992   5.917  -3.352  0.00  0.00    +0.004 A 
ATOM     33  C   UNL     1       2.918   6.928  -3.173  0.00  0.00    +0.000 A 
ATOM     34  C   UNL     1       3.924   6.787  -2.235  0.00  0.00    +0.000 A 
ATOM     35  C   UNL     1       4.001   5.636  -1.472  0.00  0.00    +0.000 A 
ATOM     36  C   UNL     1       3.071   4.628  -1.647  0.00  0.00    +0.004 A 
ENDBRANCH  30  31
ENDBRANCH  29  30
ENDBRANCH  28  29
ENDBRANCH  23  24
ENDBRANCH   1  23
TORSDOF 9
