REMARK  Name = ZINC25010090
REMARK  10 active torsions:
REMARK  status: ('A' for Active; 'I' for Inactive)
REMARK    1  A    between atoms: C_1  and  C_2
REMARK    2  A    between atoms: C_5  and  S_8
REMARK    3  A    between atoms: S_8  and  N_11
REMARK    4  A    between atoms: N_11  and  C_12
REMARK    5  A    between atoms: C_12  and  C_13
REMARK    6  A    between atoms: N_15  and  C_16
REMARK    7  A    between atoms: C_16  and  C_17
REMARK    8  A    between atoms: N_19  and  C_20
REMARK    9  A    between atoms: C_20  and  C_22
REMARK   10  A    between atoms: C_20  and  C_23
REMARK                            x       y       z     vdW  Elec       q    Type
REMARK                         _______ _______ _______ _____ _____    ______ ____
ROOT
ATOM      1  C   UNL     1      -1.614   3.488  -2.988  0.00  0.00    +0.229 C 
ATOM      2  O   UNL     1      -1.759   2.522  -3.706  0.00  0.00    -0.274 OA
ATOM      3  N   UNL     1      -1.891   4.722  -3.454  0.00  0.00    -0.306 N 
ATOM      4  H   UNL     1      -1.760   5.598  -2.802  0.00  0.00    +0.149 HD
ENDROOT
BRANCH   1   5
ATOM      5  C   UNL     1      -1.125   3.309  -1.574  0.00  0.00    +0.201 C 
BRANCH   5   6
ATOM      6  N   UNL     1      -0.897   1.885  -1.312  0.00  0.00    -0.181 NA
ATOM      7  H   UNL     1      -1.442   1.126  -1.892  0.00  0.00    +0.149 HD
BRANCH   6   8
ATOM      8  S   UNL     1      -0.017   1.417   0.010  0.00  0.00    +0.059 S 
ATOM      9  O   UNL     1       0.002  -0.004   0.002  0.00  0.00    -0.153 OA
ATOM     10  O   UNL     1       1.172   2.195   0.003  0.00  0.00    -0.153 OA
BRANCH   8  15
ATOM     11  C   UNL     1      -3.131   3.072   4.906  0.00  0.00    +0.044 C 
ATOM     12  C   UNL     1      -2.353   2.659   3.683  0.00  0.00    -0.050 A 
ATOM     13  C   UNL     1      -2.559   1.412   3.121  0.00  0.00    +0.005 A 
ATOM     14  C   UNL     1      -1.846   1.033   2.000  0.00  0.00    +0.029 A 
ATOM     15  C   UNL     1      -0.927   1.900   1.439  0.00  0.00    +0.105 A 
ATOM     16  C   UNL     1      -0.717   3.145   2.004  0.00  0.00    +0.029 A 
ATOM     17  C   UNL     1      -1.434   3.526   3.123  0.00  0.00    +0.005 A 
ENDBRANCH   8  15
ENDBRANCH   6   8
ENDBRANCH   5   6
ENDBRANCH   1   5
BRANCH   3  18
ATOM     18  C   UNL     1      -2.367   4.896  -4.829  0.00  0.00    +0.200 C 
BRANCH  18  19
ATOM     19  C   UNL     1      -2.601   6.360  -5.098  0.00  0.00    +0.231 C 
ATOM     20  O   UNL     1      -2.391   7.178  -4.227  0.00  0.00    -0.274 OA
ATOM     21  N   UNL     1      -3.043   6.761  -6.306  0.00  0.00    -0.307 N 
ATOM     22  H   UNL     1      -3.234   6.019  -7.096  0.00  0.00    +0.149 HD
BRANCH  21  23
ATOM     23  C   UNL     1      -3.271   8.184  -6.567  0.00  0.00    +0.100 C 
ATOM     24  C   UNL     1      -4.671   8.574  -6.088  0.00  0.00    +0.033 C 
BRANCH  23  25
ATOM     25  C   UNL     1      -3.155   8.448  -8.047  0.00  0.00    -0.024 A 
ATOM     26  C   UNL     1      -3.679   7.544  -8.952  0.00  0.00    +0.009 A 
ATOM     27  C   UNL     1      -3.575   7.782 -10.310  0.00  0.00    +0.050 A 
ATOM     28  C   UNL     1      -2.945   8.928 -10.767  0.00  0.00    +0.166 A 
ATOM     29  C   UNL     1      -2.416   9.838  -9.855  0.00  0.00    +0.167 A 
ATOM     30  C   UNL     1      -2.529   9.596  -8.495  0.00  0.00    +0.055 A 
ATOM     31  O   UNL     1      -1.854  10.872 -10.547  0.00  0.00    -0.453 OA
ATOM     32  C   UNL     1      -2.401  10.788 -11.876  0.00  0.00    +0.466 C 
ATOM     33  O   UNL     1      -2.713   9.390 -12.030  0.00  0.00    -0.453 OA
ENDBRANCH  23  25
ENDBRANCH  21  23
ENDBRANCH  18  19
ENDBRANCH   3  18
TORSDOF 8
