REMARK  Name = ZINC12417450
REMARK  10 active torsions:
REMARK  status: ('A' for Active; 'I' for Inactive)
REMARK    1  A    between atoms: C_1  and  O_2
REMARK    2  A    between atoms: O_2  and  C_3
REMARK    3  A    between atoms: C_3  and  C_5
REMARK    4  A    between atoms: C_6  and  C_31
REMARK    5  A    between atoms: N_7  and  C_24
REMARK    6  A    between atoms: C_8  and  N_23
REMARK    7  A    between atoms: C_9  and  C_21
REMARK    8  A    between atoms: C_10  and  C_12
REMARK    9  A    between atoms: C_31  and  O_33
REMARK   10  A    between atoms: O_33  and  C_34
REMARK                            x       y       z     vdW  Elec       q    Type
REMARK                         _______ _______ _______ _____ _____    ______ ____
ROOT
ATOM      1  C   UNL     1      -1.324   2.021   0.058  0.00  0.00    +0.078 C 
ATOM      2  C   UNL     1      -2.461   1.305   0.204  0.00  0.00    +0.135 C 
ATOM      3  N   UNL     1      -3.693   1.921   0.153  0.00  0.00    -0.250 N 
ATOM      4  C   UNL     1      -3.814   3.173  -0.405  0.00  0.00    +0.107 C 
ATOM      5  C   UNL     1      -2.722   3.961  -0.580  0.00  0.00    +0.077 C 
ATOM      6  C   UNL     1      -1.352   3.506  -0.166  0.00  0.00    +0.102 C 
ENDROOT
BRANCH   6   7
ATOM      7  C   UNL     1      -0.962   4.206   1.110  0.00  0.00    -0.031 A 
ATOM      8  C   UNL     1      -1.713   4.022   2.256  0.00  0.00    +0.008 A 
ATOM      9  C   UNL     1      -1.359   4.663   3.429  0.00  0.00    +0.050 A 
ATOM     10  C   UNL     1      -0.250   5.492   3.458  0.00  0.00    +0.166 A 
ATOM     11  C   UNL     1       0.507   5.677   2.304  0.00  0.00    +0.167 A 
ATOM     12  C   UNL     1       0.150   5.027   1.134  0.00  0.00    +0.054 A 
ATOM     13  O   UNL     1       1.536   6.529   2.589  0.00  0.00    -0.453 OA
ATOM     14  C   UNL     1       1.639   6.540   4.025  0.00  0.00    +0.466 C 
ATOM     15  O   UNL     1       0.304   6.227   4.466  0.00  0.00    -0.453 OA
ENDBRANCH   6   7
BRANCH   3  16
ATOM     16  C   UNL     1      -4.823   1.271   0.664  0.00  0.00    +0.040 A 
ATOM     17  C   UNL     1      -5.333   0.152   0.019  0.00  0.00    +0.026 A 
ATOM     18  C   UNL     1      -6.444  -0.491   0.528  0.00  0.00    +0.040 A 
ATOM     19  C   UNL     1      -7.057  -0.013   1.675  0.00  0.00    +0.124 A 
ATOM     20  C   UNL     1      -6.554   1.106   2.316  0.00  0.00    +0.040 A 
ATOM     21  C   UNL     1      -5.439   1.749   1.814  0.00  0.00    +0.026 A 
ATOM     22  F   UNL     1      -8.148  -0.640   2.168  0.00  0.00    -0.205 F 
ENDBRANCH   3  16
BRANCH   4  23
ATOM     23  N   UNL     1      -5.052   3.631  -0.790  0.00  0.00    -0.345 N 
ATOM     24  H   UNL     1      -5.134   4.482  -1.246  0.00  0.00    +0.144 HD
ATOM     25  H   UNL     1      -5.843   3.102  -0.605  0.00  0.00    +0.144 HD
ENDBRANCH   4  23
BRANCH   1  26
ATOM     26  C   UNL     1      -0.034   1.332   0.114  0.00  0.00    +0.338 C 
ATOM     27  O   UNL     1       0.011   0.148   0.390  0.00  0.00    -0.245 OA
BRANCH  26  29
ATOM     28  C   UNL     1       2.326   1.270  -0.081  0.00  0.00    +0.280 C 
ATOM     29  O   UNL     1       1.104   2.008  -0.147  0.00  0.00    -0.465 OA
ENDBRANCH  26  29
ENDBRANCH   1  26
BRANCH   5  30
ATOM     30  C   UNL     1      -2.880   5.255  -1.172  0.00  0.00    +0.099 C 
ATOM     31  N   UNL     1      -3.005   6.281  -1.642  0.00  0.00    -0.191 NA
ENDBRANCH   5  30
BRANCH   2  32
ATOM     32  C   UNL     1      -2.382  -0.158   0.427  0.00  0.00    +0.354 C 
ATOM     33  O   UNL     1      -2.441  -0.604   1.555  0.00  0.00    -0.244 OA
BRANCH  32  34
ATOM     34  O   UNL     1      -2.244  -0.993  -0.621  0.00  0.00    -0.464 OA
ATOM     35  C   UNL     1      -2.284  -2.416  -0.339  0.00  0.00    +0.280 C 
ENDBRANCH  32  34
ENDBRANCH   2  32
TORSDOF 8
