REMARK  Name = ZINC63557866
REMARK  11 active torsions:
REMARK  status: ('A' for Active; 'I' for Inactive)
REMARK    1  A    between atoms: C_1  and  C_2
REMARK    2  A    between atoms: C_2  and  C_3
REMARK    3  A    between atoms: C_2  and  C_4
REMARK    4  A    between atoms: C_4  and  C_5
REMARK    5  A    between atoms: C_9  and  N_12
REMARK    6  A    between atoms: C_13  and  C_15
REMARK    7  A    between atoms: N_20  and  C_22
REMARK    8  A    between atoms: C_22  and  C_23
REMARK    9  A    between atoms: C_23  and  C_24
REMARK   10  A    between atoms: C_27  and  O_33
REMARK   11  A    between atoms: O_33  and  C_34
REMARK                            x       y       z     vdW  Elec       q    Type
REMARK                         _______ _______ _______ _____ _____    ______ ____
ROOT
ATOM      1  C   UNL     1      -5.165   2.851  -5.707  0.00  0.00    +0.101 C 
ATOM      2  C   UNL     1      -4.605   4.292  -5.684  0.00  0.00    +0.110 C 
ATOM      3  C   UNL     1      -5.463   5.039  -6.681  0.00  0.00    +0.216 C 
ATOM      4  O   UNL     1      -5.185   6.114  -7.168  0.00  0.00    -0.276 OA
ATOM      5  N   UNL     1      -6.579   4.338  -6.948  0.00  0.00    -0.300 N 
ATOM      6  C   UNL     1      -6.615   3.083  -6.187  0.00  0.00    +0.121 C 
ENDROOT
BRANCH   1   8
ATOM      7  N   UNL     1      -3.969   2.021  -3.707  0.00  0.00    -0.290 N 
ATOM      8  C   UNL     1      -5.144   2.243  -4.328  0.00  0.00    +0.220 C 
ATOM      9  O   UNL     1      -6.186   1.953  -3.778  0.00  0.00    -0.275 OA
ATOM     10  H   UNL     1      -3.137   2.253  -4.147  0.00  0.00    +0.151 HD
BRANCH   7  14
ATOM     11  C   UNL     1      -2.050  -0.348  -1.381  0.00  0.00    +0.130 C 
ATOM     12  N   UNL     1      -3.490  -0.757  -1.383  0.00  0.00    -0.241 NA
ATOM     13  N   UNL     1      -4.212  -0.036  -2.425  0.00  0.00    -0.227 NA
ATOM     14  C   UNL     1      -3.949   1.429  -2.367  0.00  0.00    +0.216 C 
ATOM     15  S   UNL     1      -2.250   1.466  -1.652  0.00  0.00    -0.102 S 
ATOM     16  H   UNL     1      -3.583  -1.754  -1.503  0.00  0.00    +0.142 HD
ATOM     17  H   UNL     1      -3.994  -0.406  -3.337  0.00  0.00    +0.143 HD
BRANCH  11  18
ATOM     18  C   UNL     1      -1.388  -0.642  -0.033  0.00  0.00    +0.034 C 
BRANCH  18  20
ATOM     19  C   UNL     1       0.659  -0.272   1.350  0.00  0.00    +0.007 C 
ATOM     20  C   UNL     1       0.045  -0.106  -0.041  0.00  0.00    -0.015 C 
ATOM     21  C   UNL     1       0.875  -0.887  -1.062  0.00  0.00    +0.007 C 
ENDBRANCH  18  20
ENDBRANCH  11  18
ENDBRANCH   7  14
ENDBRANCH   1   8
BRANCH   5  22
ATOM     22  C   UNL     1      -7.623   4.770  -7.879  0.00  0.00    +0.112 C 
BRANCH  22  23
ATOM     23  C   UNL     1      -7.306   4.246  -9.281  0.00  0.00    +0.052 C 
BRANCH  23  24
ATOM     24  C   UNL     1      -8.381   4.691 -10.239  0.00  0.00    -0.040 C 
ATOM     25  C   UNL     1      -8.356   5.780 -11.040  0.00  0.00    +0.002 A 
ATOM     26  C   UNL     1      -7.362   6.838 -11.250  0.00  0.00    +0.055 A 
ATOM     27  C   UNL     1      -7.620   7.828 -12.139  0.00  0.00    +0.121 A 
ATOM     28  C   UNL     1      -8.816   7.883 -12.876  0.00  0.00    +0.047 A 
ATOM     29  C   UNL     1      -9.790   6.956 -12.751  0.00  0.00    +0.029 A 
ATOM     30  C   UNL     1      -9.616   5.839 -11.817  0.00  0.00    +0.043 A 
ATOM     31  N   UNL     1     -10.387   4.827 -11.509  0.00  0.00    -0.380 N 
ATOM     32  C   UNL     1      -9.702   4.005 -10.505  0.00  0.00    +0.144 C 
ATOM     33  H   UNL     1     -11.263   4.647 -11.885  0.00  0.00    +0.160 HD
BRANCH  27  34
ATOM     34  O   UNL     1      -6.690   8.802 -12.324  0.00  0.00    -0.495 OA
ATOM     35  C   UNL     1      -7.002   9.826 -13.270  0.00  0.00    +0.277 C 
ENDBRANCH  27  34
ENDBRANCH  23  24
ENDBRANCH  22  23
ENDBRANCH   5  22
TORSDOF 8
