REMARK  Name = ZINC04648313
REMARK  11 active torsions:
REMARK  status: ('A' for Active; 'I' for Inactive)
REMARK    1  A    between atoms: C_1  and  C_2
REMARK    2  A    between atoms: C_2  and  O_3
REMARK    3  A    between atoms: O_3  and  C_4
REMARK    4  A    between atoms: C_6  and  C_11
REMARK    5  A    between atoms: C_9  and  O_10
REMARK    6  A    between atoms: C_14  and  C_25
REMARK    7  A    between atoms: C_20  and  N_24
REMARK    8  A    between atoms: C_21  and  C_22
REMARK    9  A    between atoms: C_25  and  C_26
REMARK   10  A    between atoms: C_25  and  C_27
REMARK   11  A    between atoms: C_25  and  C_28
REMARK                            x       y       z     vdW  Elec       q    Type
REMARK                         _______ _______ _______ _____ _____    ______ ____
ROOT
ATOM      1  C   UNL     1      -0.592  -5.867  -0.736  0.00  0.00    +0.101 C 
ATOM      2  C   UNL     1      -2.012  -6.278  -0.445  0.00  0.00    +0.050 A 
ATOM      3  C   UNL     1      -3.141  -5.487  -0.281  0.00  0.00    +0.076 A 
ATOM      4  N   UNL     1      -4.162  -6.277  -0.045  0.00  0.00    -0.175 NA
ATOM      5  N   UNL     1      -3.706  -7.604  -0.052  0.00  0.00    -0.246 N 
ATOM      6  H   UNL     1      -4.248  -8.395   0.095  0.00  0.00    +0.192 HD
ATOM      7  C   UNL     1      -2.386  -7.585  -0.298  0.00  0.00    +0.222 A 
ATOM      8  O   UNL     1      -1.508  -8.614  -0.398  0.00  0.00    -0.423 OA
ATOM      9  C   UNL     1      -0.193  -8.316  -0.377  0.00  0.00    +0.200 C 
ATOM     10  C   UNL     1       0.299  -7.065  -0.525  0.00  0.00    +0.098 C 
ENDROOT
BRANCH   1  13
ATOM     11  C   UNL     1       0.334  -3.811  -3.767  0.00  0.00    +0.162 A 
ATOM     12  C   UNL     1       0.231  -4.246  -2.455  0.00  0.00    +0.054 A 
ATOM     13  C   UNL     1      -0.481  -5.394  -2.162  0.00  0.00    -0.031 A 
ATOM     14  C   UNL     1      -1.091  -6.111  -3.175  0.00  0.00    +0.008 A 
ATOM     15  C   UNL     1      -0.992  -5.682  -4.486  0.00  0.00    +0.049 A 
ATOM     16  C   UNL     1      -0.285  -4.529  -4.786  0.00  0.00    +0.158 A 
BRANCH  16  17
ATOM     17  O   UNL     1      -0.192  -4.102  -6.074  0.00  0.00    -0.503 OA
ATOM     18  H   UNL     1       0.569  -4.460  -6.552  0.00  0.00    +0.292 HD
ENDBRANCH  16  17
BRANCH  11  19
ATOM     19  O   UNL     1       1.033  -2.681  -4.057  0.00  0.00    -0.489 OA
BRANCH  19  21
ATOM     20  C   UNL     1       2.379  -0.759  -3.478  0.00  0.00    +0.048 C 
ATOM     21  C   UNL     1       1.642  -1.996  -2.961  0.00  0.00    +0.226 C 
ENDBRANCH  19  21
ENDBRANCH  11  19
ENDBRANCH   1  13
BRANCH   3  22
ATOM     22  C   UNL     1      -3.186  -3.982  -0.361  0.00  0.00    +0.007 C 
ATOM     23  C   UNL     1      -2.884  -3.538  -1.794  0.00  0.00    +0.017 C 
ATOM     24  C   UNL     1      -4.578  -3.492   0.042  0.00  0.00    +0.017 C 
ATOM     25  C   UNL     1      -2.142  -3.390   0.588  0.00  0.00    +0.017 C 
ENDBRANCH   3  22
BRANCH   9  26
ATOM     26  N   UNL     1       0.699  -9.344  -0.195  0.00  0.00    -0.328 N 
ATOM     27  H   UNL     1       0.377 -10.252  -0.086  0.00  0.00    +0.145 HD
ATOM     28  H   UNL     1       1.652  -9.161  -0.175  0.00  0.00    +0.145 HD
ENDBRANCH   9  26
BRANCH  10  29
ATOM     29  C   UNL     1       1.717  -6.871  -0.481  0.00  0.00    +0.101 C 
ATOM     30  N   UNL     1       2.842  -6.717  -0.446  0.00  0.00    -0.191 NA
ENDBRANCH  10  29
TORSDOF 7
