REMARK  Name = ZINC08620187
REMARK  7 active torsions:
REMARK  status: ('A' for Active; 'I' for Inactive)
REMARK    1  A    between atoms: C_1  and  C_2
REMARK    2  A    between atoms: C_2  and  N_3
REMARK    3  A    between atoms: C_4  and  C_24
REMARK    4  A    between atoms: C_7  and  S_8
REMARK    5  A    between atoms: S_8  and  C_9
REMARK    6  A    between atoms: C_9  and  C_10
REMARK    7  A    between atoms: C_16  and  C_18
REMARK                            x       y       z     vdW  Elec       q    Type
REMARK                         _______ _______ _______ _____ _____    ______ ____
ROOT
ATOM      1  C   UNL     1       5.947  -0.946   0.023  0.00  0.00    +0.231 C 
ATOM      2  O   UNL     1       5.754  -0.573   1.161  0.00  0.00    -0.274 OA
ATOM      3  N   UNL     1       7.192  -1.265  -0.380  0.00  0.00    -0.238 N 
ATOM      4  C   UNL     1       8.254  -1.168   0.506  0.00  0.00    +0.314 A 
ATOM      5  N   UNL     1       8.185  -0.786   1.759  0.00  0.00    -0.092 NA
ATOM      6  N   UNL     1       9.361  -0.816   2.280  0.00  0.00    -0.106 NA
ATOM      7  C   UNL     1      10.226  -1.217   1.381  0.00  0.00    +0.250 A 
ATOM      8  O   UNL     1       9.542  -1.453   0.240  0.00  0.00    -0.405 OA
ATOM      9  H   UNL     1       7.347  -1.563  -1.290  0.00  0.00    +0.159 HD
ENDROOT
BRANCH   7  10
ATOM     10  C   UNL     1      11.681  -1.385   1.579  0.00  0.00    +0.039 A 
ATOM     11  C   UNL     1      12.487  -1.816   0.524  0.00  0.00    +0.013 A 
ATOM     12  C   UNL     1      13.844  -1.971   0.716  0.00  0.00    +0.001 A 
ATOM     13  C   UNL     1      14.407  -1.699   1.950  0.00  0.00    +0.000 A 
ATOM     14  C   UNL     1      13.614  -1.271   3.000  0.00  0.00    +0.001 A 
ATOM     15  C   UNL     1      12.256  -1.107   2.820  0.00  0.00    +0.013 A 
ENDBRANCH   7  10
BRANCH   1  16
ATOM     16  C   UNL     1       4.793  -1.052  -0.941  0.00  0.00    +0.173 C 
BRANCH  16  17
ATOM     17  S   UNL     1       3.260  -0.556  -0.106  0.00  0.00    -0.077 S 
BRANCH  17  22
ATOM     18  N   UNL     1       0.688  -0.476  -1.203  0.00  0.00    -0.300 N 
ATOM     19  C   UNL     1       0.123  -0.750  -2.430  0.00  0.00    +0.200 A 
ATOM     20  N   UNL     1       1.095  -1.145  -3.222  0.00  0.00    -0.125 NA
ATOM     21  N   UNL     1       2.211  -1.137  -2.584  0.00  0.00    -0.122 NA
ATOM     22  C   UNL     1       2.023  -0.733  -1.348  0.00  0.00    +0.192 A 
BRANCH  19  23
ATOM     23  C   UNL     1      -1.299  -0.624  -2.786  0.00  0.00    +0.172 A 
ATOM     24  C   UNL     1      -1.810  -0.621  -4.049  0.00  0.00    +0.053 A 
ATOM     25  C   UNL     1      -3.206  -0.481  -3.921  0.00  0.00    +0.042 A 
ATOM     26  C   UNL     1      -3.477  -0.406  -2.602  0.00  0.00    +0.196 A 
ATOM     27  O   UNL     1      -2.324  -0.497  -1.919  0.00  0.00    -0.460 OA
ENDBRANCH  19  23
BRANCH  18  29
ATOM     28  C   UNL     1      -0.019   1.526   0.010  0.00  0.00    +0.027 C 
ATOM     29  C   UNL     1       0.002  -0.004   0.002  0.00  0.00    +0.122 C 
ENDBRANCH  18  29
ENDBRANCH  17  22
ENDBRANCH  16  17
ENDBRANCH   1  16
TORSDOF 6
