REMARK  Name = ZINC54805200
REMARK  7 active torsions:
REMARK  status: ('A' for Active; 'I' for Inactive)
REMARK    1  A    between atoms: C_1  and  C_2
REMARK    2  A    between atoms: N_7  and  C_9
REMARK    3  A    between atoms: C_9  and  C_10
REMARK    4  A    between atoms: C_9  and  C_11
REMARK    5  A    between atoms: C_9  and  C_12
REMARK    6  A    between atoms: C_12  and  N_13
REMARK    7  A    between atoms: N_19  and  C_22
REMARK                            x       y       z     vdW  Elec       q    Type
REMARK                         _______ _______ _______ _____ _____    ______ ____
ROOT
ATOM      1  N   UNL     1       2.173  -4.448   1.132  0.00  0.00    -0.301 N 
ATOM      2  C   UNL     1       2.323  -5.769   0.910  0.00  0.00    +0.302 C 
ATOM      3  O   UNL     1       2.025  -6.568   1.777  0.00  0.00    -0.253 OA
ATOM      4  N   UNL     1       2.804  -6.204  -0.271  0.00  0.00    -0.283 N 
ATOM      5  C   UNL     1       2.862  -7.641  -0.572  0.00  0.00    +0.128 C 
ATOM      6  C   UNL     1       2.107  -7.898  -1.882  0.00  0.00    +0.124 C 
ATOM      7  N   UNL     1       2.582  -6.943  -2.893  0.00  0.00    -0.327 N 
ATOM      8  C   UNL     1       2.524  -5.506  -2.592  0.00  0.00    +0.124 C 
ATOM      9  C   UNL     1       3.274  -5.248  -1.284  0.00  0.00    +0.128 C 
ATOM     10  H   UNL     1       2.480  -3.807   0.471  0.00  0.00    +0.150 HD
ENDROOT
BRANCH   7  11
ATOM     11  C   UNL     1       3.079  -7.392  -4.113  0.00  0.00    +0.033 A 
ATOM     12  C   UNL     1       3.644  -6.503  -5.027  0.00  0.00    +0.040 A 
ATOM     13  C   UNL     1       4.125  -6.988  -6.224  0.00  0.00    +0.084 A 
ATOM     14  N   UNL     1       4.055  -8.274  -6.511  0.00  0.00    -0.367 N 
ATOM     15  C   UNL     1       3.527  -9.147  -5.673  0.00  0.00    +0.084 A 
ATOM     16  C   UNL     1       3.029  -8.744  -4.452  0.00  0.00    +0.040 A 
ATOM     17  H   UNL     1       4.401  -8.587  -7.361  0.00  0.00    +0.165 HD
ENDBRANCH   7  11
BRANCH   1  18
ATOM     18  C   UNL     1       1.546  -3.980   2.371  0.00  0.00    +0.093 C 
BRANCH  18  19
ATOM     19  C   UNL     1       1.499  -2.450   2.372  0.00  0.00    -0.055 C 
ATOM     20  C   UNL     1       2.922  -1.896   2.279  0.00  0.00    -0.008 C 
ATOM     21  C   UNL     1       0.844  -1.961   3.665  0.00  0.00    -0.008 C 
BRANCH  19  27
ATOM     22  C   UNL     1      -0.107   1.506  -0.024  0.00  0.00    +0.005 C 
ATOM     23  C   UNL     1      -0.068  -0.024  -0.025  0.00  0.00    -0.031 C 
ATOM     24  C   UNL     1      -1.498  -0.572  -0.006  0.00  0.00    -0.001 C 
ATOM     25  C   UNL     1      -1.447  -2.101   0.072  0.00  0.00    -0.018 C 
ATOM     26  C   UNL     1      -0.649  -2.517   1.310  0.00  0.00    -0.078 C 
ATOM     27  N   UNL     1       0.715  -1.984   1.220  0.00  0.00    +0.384 N 
ATOM     28  C   UNL     1       0.679  -0.517   1.217  0.00  0.00    -0.075 C 
ATOM     29  H   UNL     1       1.147  -2.310   0.368  0.00  0.00    -0.081 HD
ENDBRANCH  19  27
ENDBRANCH  18  19
ENDBRANCH   1  18
TORSDOF 4
