REMARK  Name = ZINC08645758
REMARK  10 active torsions:
REMARK  status: ('A' for Active; 'I' for Inactive)
REMARK    1  A    between atoms: C_1  and  C_2
REMARK    2  A    between atoms: C_5  and  C_9
REMARK    3  A    between atoms: C_7  and  C_8
REMARK    4  A    between atoms: C_9  and  C_11
REMARK    5  A    between atoms: C_9  and  N_12
REMARK    6  A    between atoms: C_13  and  C_15
REMARK    7  A    between atoms: C_15  and  N_16
REMARK    8  A    between atoms: C_19  and  C_23
REMARK    9  A    between atoms: C_19  and  C_24
REMARK   10  A    between atoms: C_27  and  N_30
REMARK                            x       y       z     vdW  Elec       q    Type
REMARK                         _______ _______ _______ _____ _____    ______ ____
ROOT
ATOM      1  N   UNL     1       0.002  -0.004   0.002  0.00  0.00    -0.215 N 
ATOM      2  C   UNL     1      -0.958  -0.771  -0.550  0.00  0.00    +0.251 C 
ATOM      3  O   UNL     1      -1.964  -0.394  -1.112  0.00  0.00    -0.272 OA
ATOM      4  C   UNL     1      -0.520  -2.204  -0.323  0.00  0.00    +0.135 C 
ATOM      5  N   UNL     1       0.757  -2.065   0.399  0.00  0.00    -0.281 N 
ATOM      6  C   UNL     1       0.979  -0.745   0.537  0.00  0.00    +0.310 C 
ATOM      7  O   UNL     1       1.956  -0.279   1.089  0.00  0.00    -0.252 OA
ATOM      8  C   UNL     1      -1.546  -2.952   0.531  0.00  0.00    +0.047 C 
ATOM      9  H   UNL     1       1.328  -2.785   0.711  0.00  0.00    +0.152 HD
ENDROOT
BRANCH   4  10
ATOM     10  C   UNL     1      -0.311  -2.910  -1.638  0.00  0.00    -0.015 A 
ATOM     11  C   UNL     1      -1.058  -2.548  -2.743  0.00  0.00    +0.008 A 
ATOM     12  C   UNL     1      -0.863  -3.192  -3.950  0.00  0.00    +0.033 A 
ATOM     13  C   UNL     1       0.072  -4.206  -4.050  0.00  0.00    +0.126 A 
ATOM     14  C   UNL     1       0.816  -4.571  -2.943  0.00  0.00    +0.033 A 
ATOM     15  C   UNL     1       0.624  -3.924  -1.737  0.00  0.00    +0.008 A 
BRANCH  13  16
ATOM     16  N   UNL     1       0.277  -4.899  -5.341  0.00  0.00    +0.056 N 
ATOM     17  O   UNL     1       1.101  -5.791  -5.429  0.00  0.00    -0.126 OA
ATOM     18  O   UNL     1      -0.378  -4.577  -6.316  0.00  0.00    -0.126 OA
ENDBRANCH  13  16
ENDBRANCH   4  10
BRANCH   1  19
ATOM     19  C   UNL     1      -0.018   1.461   0.010  0.00  0.00    +0.213 C 
BRANCH  19  21
ATOM     20  N   UNL     1      -0.862   3.269   1.472  0.00  0.00    -0.307 N 
ATOM     21  C   UNL     1      -0.723   1.947   1.250  0.00  0.00    +0.231 C 
ATOM     22  O   UNL     1      -1.166   1.148   2.048  0.00  0.00    -0.274 OA
ATOM     23  H   UNL     1      -0.508   3.908   0.833  0.00  0.00    +0.149 HD
BRANCH  20  24
ATOM     24  C   UNL     1      -1.548   3.741   2.677  0.00  0.00    +0.100 C 
ATOM     25  C   UNL     1      -3.057   3.774   2.426  0.00  0.00    +0.033 C 
BRANCH  24  30
ATOM     26  C   UNL     1       0.301   9.057   3.987  0.00  0.00    +0.044 C 
ATOM     27  C   UNL     1      -0.181   7.671   3.645  0.00  0.00    -0.048 A 
ATOM     28  C   UNL     1      -0.401   7.321   2.326  0.00  0.00    +0.004 A 
ATOM     29  C   UNL     1      -0.838   6.048   2.012  0.00  0.00    +0.006 A 
ATOM     30  C   UNL     1      -1.066   5.128   3.018  0.00  0.00    -0.027 A 
ATOM     31  C   UNL     1      -0.846   5.477   4.337  0.00  0.00    +0.009 A 
ATOM     32  C   UNL     1      -0.403   6.749   4.651  0.00  0.00    -0.047 A 
ATOM     33  C   UNL     1      -0.163   7.130   6.089  0.00  0.00    +0.044 C 
ENDBRANCH  24  30
ENDBRANCH  20  24
ENDBRANCH  19  21
ENDBRANCH   1  19
TORSDOF 6
