REMARK  Name = ZINC60377250
REMARK  14 active torsions:
REMARK  status: ('A' for Active; 'I' for Inactive)
REMARK    1  A    between atoms: C_1  and  C_2
REMARK    2  A    between atoms: C_2  and  O_3
REMARK    3  A    between atoms: O_3  and  C_4
REMARK    4  A    between atoms: C_4  and  C_6
REMARK    5  A    between atoms: C_7  and  C_30
REMARK    6  A    between atoms: C_9  and  N_11
REMARK    7  A    between atoms: C_12  and  C_14
REMARK    8  A    between atoms: C_14  and  N_15
REMARK    9  A    between atoms: N_15  and  C_16
REMARK   10  A    between atoms: N_15  and  C_17
REMARK   11  A    between atoms: C_17  and  C_19
REMARK   12  A    between atoms: C_17  and  C_20
REMARK   13  A    between atoms: C_24  and  S_26
REMARK   14  A    between atoms: S_26  and  N_29
REMARK                            x       y       z     vdW  Elec       q    Type
REMARK                         _______ _______ _______ _____ _____    ______ ____
ROOT
ATOM      1  N   UNL     1       4.692  -0.185  -8.256  0.00  0.00    +0.388 N 
ATOM      2  C   UNL     1       3.403   0.463  -8.534  0.00  0.00    -0.095 C 
ATOM      3  H   UNL     1       5.168   0.314  -7.519  0.00  0.00    -0.081 HD
ENDROOT
BRANCH   1   4
ATOM      4  C   UNL     1       5.519  -0.170  -9.470  0.00  0.00    -0.040 C 
ATOM      5  C   UNL     1       5.759   1.277  -9.906  0.00  0.00    -0.008 C 
BRANCH   4   6
ATOM      6  C   UNL     1       6.841  -0.835  -9.185  0.00  0.00    -0.059 A 
ATOM      7  C   UNL     1       7.478  -0.618  -7.977  0.00  0.00    +0.002 A 
ATOM      8  C   UNL     1       8.691  -1.228  -7.716  0.00  0.00    +0.002 A 
ATOM      9  C   UNL     1       9.267  -2.054  -8.663  0.00  0.00    +0.028 A 
ATOM     10  C   UNL     1       8.630  -2.271  -9.870  0.00  0.00    +0.105 A 
ATOM     11  C   UNL     1       7.415  -1.665 -10.130  0.00  0.00    +0.030 A 
BRANCH  10  12
ATOM     12  S   UNL     1       9.365  -3.324 -11.077  0.00  0.00    +0.056 S 
ATOM     13  O   UNL     1       8.835  -2.931 -12.336  0.00  0.00    -0.153 OA
ATOM     14  O   UNL     1      10.760  -3.339 -10.808  0.00  0.00    -0.153 OA
BRANCH  12  15
ATOM     15  N   UNL     1       8.812  -4.859 -10.790  0.00  0.00    -0.204 NA
ATOM     16  H   UNL     1       8.718  -5.486 -11.524  0.00  0.00    +0.144 HD
ATOM     17  H   UNL     1       8.582  -5.130  -9.888  0.00  0.00    +0.144 HD
ENDBRANCH  12  15
ENDBRANCH  10  12
ENDBRANCH   4   6
ENDBRANCH   1   4
BRANCH   1  18
ATOM     18  C   UNL     1       4.462  -1.574  -7.838  0.00  0.00    +0.019 C 
BRANCH  18  20
ATOM     19  N   UNL     1       3.396  -2.760  -5.947  0.00  0.00    -0.282 N 
ATOM     20  C   UNL     1       3.719  -1.587  -6.527  0.00  0.00    +0.201 C 
ATOM     21  O   UNL     1       3.411  -0.542  -5.994  0.00  0.00    -0.278 OA
ATOM     22  H   UNL     1       3.642  -3.596  -6.373  0.00  0.00    +0.155 HD
BRANCH  19  26
ATOM     23  C   UNL     1       1.427  -2.327  -2.478  0.00  0.00    +0.101 A 
ATOM     24  C   UNL     1       1.634  -3.655  -2.831  0.00  0.00    -0.028 A 
ATOM     25  C   UNL     1       2.302  -3.865  -4.008  0.00  0.00    +0.035 A 
ATOM     26  C   UNL     1       2.711  -2.772  -4.739  0.00  0.00    +0.073 A 
ATOM     27  S   UNL     1       2.184  -1.456  -3.836  0.00  0.00    -0.067 S 
ATOM     28  C   UNL     1       1.152  -4.795  -1.971  0.00  0.00    +0.045 C 
BRANCH  23  29
ATOM     29  C   UNL     1       0.776  -1.801  -1.335  0.00  0.00    +0.346 C 
ATOM     30  O   UNL     1       0.312  -2.553  -0.499  0.00  0.00    -0.244 OA
BRANCH  29  31
ATOM     31  O   UNL     1       0.671  -0.465  -1.174  0.00  0.00    -0.461 OA
BRANCH  31  33
ATOM     32  C   UNL     1      -0.019   1.526   0.010  0.00  0.00    +0.048 C 
ATOM     33  C   UNL     1       0.002  -0.004   0.002  0.00  0.00    +0.229 C 
ENDBRANCH  31  33
ENDBRANCH  29  31
ENDBRANCH  23  29
ENDBRANCH  19  26
ENDBRANCH  18  20
ENDBRANCH   1  18
TORSDOF 10
