REMARK  Name = ZINC15924611
REMARK  10 active torsions:
REMARK  status: ('A' for Active; 'I' for Inactive)
REMARK    1  A    between atoms: C_1  and  C_2
REMARK    2  A    between atoms: C_2  and  C_3
REMARK    3  A    between atoms: C_2  and  C_4
REMARK    4  A    between atoms: C_2  and  C_5
REMARK    5  A    between atoms: C_8  and  C_11
REMARK    6  A    between atoms: N_13  and  C_14
REMARK    7  A    between atoms: C_14  and  C_15
REMARK    8  A    between atoms: C_15  and  C_16
REMARK    9  A    between atoms: N_21  and  C_24
REMARK   10  A    between atoms: C_27  and  N_30
REMARK                            x       y       z     vdW  Elec       q    Type
REMARK                         _______ _______ _______ _____ _____    ______ ____
ROOT
ATOM      1  C   UNL     1      -1.054   0.710   2.197  0.00  0.00    +0.217 C 
ATOM      2  O   UNL     1      -0.790  -0.469   2.096  0.00  0.00    -0.276 OA
ATOM      3  N   UNL     1      -0.709   1.564   1.212  0.00  0.00    -0.298 N 
ATOM      4  C   UNL     1      -0.013   1.086   0.008  0.00  0.00    +0.126 C 
ATOM      5  C   UNL     1      -0.762   1.597  -1.227  0.00  0.00    +0.124 C 
ATOM      6  N   UNL     1      -0.913   3.056  -1.135  0.00  0.00    -0.327 N 
ATOM      7  C   UNL     1      -1.732   3.434   0.024  0.00  0.00    +0.124 C 
ATOM      8  C   UNL     1      -1.023   2.998   1.310  0.00  0.00    +0.126 C 
ENDROOT
BRANCH   6   9
ATOM      9  C   UNL     1      -1.444   3.579  -2.316  0.00  0.00    +0.030 A 
ATOM     10  C   UNL     1      -1.747   2.736  -3.377  0.00  0.00    +0.025 A 
ATOM     11  C   UNL     1      -2.278   3.256  -4.541  0.00  0.00    +0.034 A 
ATOM     12  C   UNL     1      -2.497   4.616  -4.655  0.00  0.00    +0.126 A 
ATOM     13  C   UNL     1      -2.192   5.460  -3.603  0.00  0.00    +0.034 A 
ATOM     14  C   UNL     1      -1.666   4.945  -2.434  0.00  0.00    +0.025 A 
BRANCH  12  15
ATOM     15  N   UNL     1      -3.061   5.171  -5.906  0.00  0.00    +0.056 N 
ATOM     16  O   UNL     1      -3.255   6.369  -6.008  0.00  0.00    -0.126 OA
ATOM     17  O   UNL     1      -3.330   4.430  -6.834  0.00  0.00    -0.126 OA
ENDBRANCH  12  15
ENDBRANCH   6   9
BRANCH   1  18
ATOM     18  C   UNL     1      -1.766   1.222   3.422  0.00  0.00    +0.114 C 
BRANCH  18  19
ATOM     19  C   UNL     1      -2.040   0.057   4.376  0.00  0.00    +0.113 C 
BRANCH  19  22
ATOM     20  C   UNL     1      -3.077  -0.299   6.552  0.00  0.00    +0.244 C 
ATOM     21  O   UNL     1      -2.813  -1.481   6.451  0.00  0.00    -0.270 OA
ATOM     22  N   UNL     1      -2.732   0.554   5.567  0.00  0.00    -0.311 N 
ATOM     23  H   UNL     1      -2.943   1.498   5.648  0.00  0.00    +0.149 HD
BRANCH  20  27
ATOM     24  C   UNL     1      -5.085   1.143  10.007  0.00  0.00    -0.042 A 
ATOM     25  C   UNL     1      -4.787  -0.204   9.895  0.00  0.00    +0.005 A 
ATOM     26  C   UNL     1      -4.135  -0.679   8.775  0.00  0.00    +0.013 A 
ATOM     27  C   UNL     1      -3.776   0.203   7.754  0.00  0.00    +0.037 A 
ATOM     28  C   UNL     1      -4.076   1.560   7.875  0.00  0.00    +0.013 A 
ATOM     29  C   UNL     1      -4.732   2.021   8.998  0.00  0.00    +0.005 A 
BRANCH  24  31
ATOM     30  C   UNL     1      -4.954   1.355  12.474  0.00  0.00    +0.015 C 
ATOM     31  C   UNL     1      -5.797   1.654  11.232  0.00  0.00    -0.013 C 
ATOM     32  C   UNL     1      -6.005   3.165  11.108  0.00  0.00    +0.015 C 
ATOM     33  C   UNL     1      -7.155   0.961  11.359  0.00  0.00    +0.015 C 
ENDBRANCH  24  31
ENDBRANCH  20  27
ENDBRANCH  19  22
ENDBRANCH  18  19
ENDBRANCH   1  18
TORSDOF 7
