REMARK  Name = ZINC05661854
REMARK  10 active torsions:
REMARK  status: ('A' for Active; 'I' for Inactive)
REMARK    1  A    between atoms: C_1  and  O_2
REMARK    2  A    between atoms: O_2  and  C_3
REMARK    3  A    between atoms: C_6  and  C_11
REMARK    4  A    between atoms: C_8  and  O_9
REMARK    5  A    between atoms: O_9  and  C_10
REMARK    6  A    between atoms: N_12  and  N_13
REMARK    7  A    between atoms: N_16  and  C_17
REMARK    8  A    between atoms: C_18  and  C_26
REMARK    9  A    between atoms: C_26  and  O_28
REMARK   10  A    between atoms: O_28  and  C_29
REMARK                            x       y       z     vdW  Elec       q    Type
REMARK                         _______ _______ _______ _____ _____    ______ ____
ROOT
ATOM      1  N   UNL     1       1.123   3.419   0.010  0.00  0.00    -0.191 N 
ATOM      2  C   UNL     1       1.141   2.071   0.002  0.00  0.00    +0.324 C 
ATOM      3  O   UNL     1       2.202   1.478  -0.011  0.00  0.00    -0.251 OA
ATOM      4  N   UNL     1      -0.017   1.381   0.010  0.00  0.00    -0.262 N 
ATOM      5  H   UNL     1       1.956   3.915   0.004  0.00  0.00    +0.179 HD
ATOM      6  H   UNL     1      -0.863   1.855   0.016  0.00  0.00    +0.157 HD
ENDROOT
BRANCH   4   7
ATOM      7  C   UNL     1       0.002  -0.004   0.002  0.00  0.00    +0.088 A 
ATOM      8  C   UNL     1      -1.074  -0.882   0.013  0.00  0.00    +0.091 A 
ATOM      9  C   UNL     1      -0.779  -2.305  -0.003  0.00  0.00    -0.021 A 
ATOM     10  C   UNL     1       0.534  -2.620  -0.016  0.00  0.00    -0.004 A 
ATOM     11  S   UNL     1       1.374  -1.062  -0.016  0.00  0.00    -0.077 S 
ATOM     12  C   UNL     1       1.133  -3.993  -0.028  0.00  0.00    +0.043 C 
ATOM     13  C   UNL     1       0.040  -5.001   0.356  0.00  0.00    +0.005 C 
ATOM     14  C   UNL     1      -1.216  -4.704  -0.467  0.00  0.00    +0.005 C 
ATOM     15  C   UNL     1      -1.847  -3.392   0.002  0.00  0.00    +0.037 C 
BRANCH   8  16
ATOM     16  C   UNL     1      -2.454  -0.392   0.036  0.00  0.00    +0.342 C 
ATOM     17  O   UNL     1      -3.042  -0.184  -1.008  0.00  0.00    -0.245 OA
BRANCH  16  18
ATOM     18  O   UNL     1      -3.072  -0.172   1.214  0.00  0.00    -0.464 OA
ATOM     19  C   UNL     1      -4.439   0.313   1.161  0.00  0.00    +0.280 C 
ENDBRANCH  16  18
ENDBRANCH   8  16
ENDBRANCH   4   7
BRANCH   1  21
ATOM     20  C   UNL     1      -0.117   5.400   0.032  0.00  0.00    +0.138 C 
ATOM     21  N   UNL     1      -0.100   4.103   0.025  0.00  0.00    -0.186 NA
BRANCH  20  25
ATOM     22  C   UNL     1      -3.828   7.469   0.079  0.00  0.00    +0.162 A 
ATOM     23  C   UNL     1      -3.808   6.082   0.072  0.00  0.00    +0.050 A 
ATOM     24  C   UNL     1      -2.605   5.407   0.050  0.00  0.00    +0.013 A 
ATOM     25  C   UNL     1      -1.404   6.120   0.048  0.00  0.00    -0.002 A 
ATOM     26  C   UNL     1      -1.425   7.517   0.056  0.00  0.00    +0.059 A 
ATOM     27  C   UNL     1      -2.634   8.187   0.071  0.00  0.00    +0.162 A 
BRANCH  22  29
ATOM     28  C   UNL     1      -6.202   7.332   0.102  0.00  0.00    +0.277 C 
ATOM     29  O   UNL     1      -5.016   8.129   0.094  0.00  0.00    -0.491 OA
ENDBRANCH  22  29
BRANCH  27  30
ATOM     30  O   UNL     1      -2.658   9.546   0.079  0.00  0.00    -0.491 OA
ATOM     31  C   UNL     1      -1.397  10.217   0.070  0.00  0.00    +0.277 C 
ENDBRANCH  27  30
ENDBRANCH  20  25
ENDBRANCH   1  21
TORSDOF 7
