REMARK  Name = ZINC36633775
REMARK  6 active torsions:
REMARK  status: ('A' for Active; 'I' for Inactive)
REMARK    1  A    between atoms: N_7  and  C_11
REMARK    2  A    between atoms: C_11  and  C_12
REMARK    3  A    between atoms: N_14  and  N_15
REMARK    4  A    between atoms: C_19  and  N_20
REMARK    5  A    between atoms: N_20  and  C_21
REMARK    6  A    between atoms: C_24  and  N_27
REMARK                            x       y       z     vdW  Elec       q    Type
REMARK                         _______ _______ _______ _____ _____    ______ ____
ROOT
ATOM      1  N   UNL     1      -1.622  -4.341  -2.993  0.00  0.00    -0.170 N 
ATOM      2  C   UNL     1      -2.693  -3.752  -3.495  0.00  0.00    +0.276 C 
ATOM      3  O   UNL     1      -3.350  -2.972  -2.829  0.00  0.00    -0.267 OA
ATOM      4  C   UNL     1      -3.056  -4.054  -4.840  0.00  0.00    +0.092 C 
ATOM      5  C   UNL     1      -4.094  -3.590  -5.578  0.00  0.00    +0.092 C 
ATOM      6  S   UNL     1      -1.771  -5.213  -5.288  0.00  0.00    -0.058 S 
ATOM      7  C   UNL     1      -0.890  -5.202  -3.734  0.00  0.00    +0.138 C 
ATOM      8  S   UNL     1       0.522  -6.065  -3.295  0.00  0.00    -0.026 S 
ENDROOT
BRANCH   1  11
ATOM      9  C   UNL     1      -0.180  -3.264  -1.434  0.00  0.00    +0.249 C 
ATOM     10  O   UNL     1       0.438  -2.783  -2.359  0.00  0.00    -0.272 OA
ATOM     11  N   UNL     1      -1.237  -4.065  -1.674  0.00  0.00    -0.225 N 
ATOM     12  H   UNL     1      -1.732  -4.451  -0.934  0.00  0.00    +0.174 HD
BRANCH   9  13
ATOM     13  C   UNL     1       0.234  -2.968  -0.015  0.00  0.00    +0.223 C 
BRANCH  13  20
ATOM     14  C   UNL     1      -0.017   1.370   0.010  0.00  0.00    +0.002 A 
ATOM     15  C   UNL     1       1.157   2.105   0.002  0.00  0.00    +0.001 A 
ATOM     16  C   UNL     1       2.369   1.437  -0.013  0.00  0.00    +0.017 A 
ATOM     17  C   UNL     1       2.388   0.064  -0.020  0.00  0.00    +0.041 A 
ATOM     18  C   UNL     1       1.217  -0.709  -0.013  0.00  0.00    +0.060 A 
ATOM     19  C   UNL     1       0.002  -0.004   0.002  0.00  0.00    +0.027 A 
ATOM     20  N   UNL     1       1.400  -2.081  -0.022  0.00  0.00    -0.293 N 
ATOM     21  C   UNL     1       2.640  -2.610  -0.037  0.00  0.00    +0.292 A 
ATOM     22  O   UNL     1       2.968  -3.782  -0.046  0.00  0.00    -0.259 OA
ATOM     23  S   UNL     1       3.678  -1.157  -0.039  0.00  0.00    -0.027 S 
ENDBRANCH  13  20
ENDBRANCH   9  13
ENDBRANCH   1  11
BRANCH   5  24
ATOM     24  N   UNL     1      -4.262  -4.017  -6.868  0.00  0.00    -0.319 N 
ATOM     25  H   UNL     1      -3.638  -4.651  -7.254  0.00  0.00    +0.152 HD
BRANCH  24  26
ATOM     26  C   UNL     1      -5.332  -3.538  -7.629  0.00  0.00    +0.031 A 
ATOM     27  C   UNL     1      -6.223  -2.625  -7.080  0.00  0.00    +0.025 A 
ATOM     28  C   UNL     1      -7.279  -2.154  -7.834  0.00  0.00    +0.034 A 
ATOM     29  C   UNL     1      -7.450  -2.590  -9.136  0.00  0.00    +0.126 A 
ATOM     30  C   UNL     1      -6.565  -3.500  -9.685  0.00  0.00    +0.034 A 
ATOM     31  C   UNL     1      -5.503  -3.970  -8.938  0.00  0.00    +0.025 A 
BRANCH  29  32
ATOM     32  N   UNL     1      -8.584  -2.083  -9.941  0.00  0.00    +0.056 N 
ATOM     33  O   UNL     1      -9.358  -1.288  -9.462  0.00  0.00    -0.126 OA
ATOM     34  O   UNL     1      -8.735  -2.464 -11.079  0.00  0.00    -0.126 OA
ENDBRANCH  29  32
ENDBRANCH  24  26
ENDBRANCH   5  24
TORSDOF 6
