REMARK  Name = ZINC39489507
REMARK  7 active torsions:
REMARK  status: ('A' for Active; 'I' for Inactive)
REMARK    1  A    between atoms: C_1  and  C_2
REMARK    2  A    between atoms: C_2  and  C_4
REMARK    3  A    between atoms: C_2  and  N_15
REMARK    4  A    between atoms: N_6  and  C_7
REMARK    5  A    between atoms: C_12  and  S_13
REMARK    6  A    between atoms: S_13  and  C_14
REMARK    7  A    between atoms: C_22  and  N_26
REMARK                            x       y       z     vdW  Elec       q    Type
REMARK                         _______ _______ _______ _____ _____    ______ ____
ROOT
ATOM      1  C   UNL     1      -0.020   1.540  -0.009  0.00  0.00    +0.038 C 
ATOM      2  C   UNL     1      -0.004   0.011  -0.008  0.00  0.00    +0.168 C 
ENDROOT
BRANCH   2   3
ATOM      3  N   UNL     1      -1.380  -0.493  -0.001  0.00  0.00    -0.222 N 
ATOM      4  C   UNL     1      -2.288  -0.238  -0.960  0.00  0.00    +0.255 C 
ATOM      5  O   UNL     1      -2.101   0.434  -1.954  0.00  0.00    -0.270 OA
ATOM      6  C   UNL     1      -3.553  -0.915  -0.602  0.00  0.00    +0.052 A 
ATOM      7  C   UNL     1      -4.802  -1.007  -1.194  0.00  0.00    +0.014 A 
ATOM      8  C   UNL     1      -5.802  -1.744  -0.578  0.00  0.00    +0.003 A 
ATOM      9  C   UNL     1      -5.561  -2.386   0.622  0.00  0.00    +0.033 A 
ATOM     10  C   UNL     1      -4.316  -2.303   1.226  0.00  0.00    +0.139 A 
ATOM     11  C   UNL     1      -3.307  -1.570   0.622  0.00  0.00    +0.080 A 
ATOM     12  C   UNL     1      -1.899  -1.274   0.963  0.00  0.00    +0.257 C 
ATOM     13  O   UNL     1      -1.312  -1.669   1.950  0.00  0.00    -0.269 OA
BRANCH  10  14
ATOM     14  N   UNL     1      -4.065  -2.994   2.511  0.00  0.00    +0.057 N 
ATOM     15  O   UNL     1      -4.947  -3.633   3.036  0.00  0.00    -0.126 OA
ATOM     16  O   UNL     1      -2.978  -2.920   3.035  0.00  0.00    -0.126 OA
ENDBRANCH  10  14
ENDBRANCH   2   3
BRANCH   2  17
ATOM     17  C   UNL     1       0.706  -0.485  -1.242  0.00  0.00    +0.238 C 
ATOM     18  O   UNL     1       0.119  -1.189  -2.037  0.00  0.00    -0.273 OA
ATOM     19  N   UNL     1       1.991  -0.146  -1.462  0.00  0.00    -0.283 N 
ATOM     20  H   UNL     1       2.440   0.469  -0.861  0.00  0.00    +0.155 HD
BRANCH  19  21
ATOM     21  C   UNL     1       2.679  -0.682  -2.558  0.00  0.00    +0.047 A 
ATOM     22  C   UNL     1       2.010  -0.927  -3.747  0.00  0.00    +0.024 A 
ATOM     23  C   UNL     1       2.690  -1.455  -4.828  0.00  0.00    +0.002 A 
ATOM     24  C   UNL     1       4.040  -1.741  -4.729  0.00  0.00    +0.001 A 
ATOM     25  C   UNL     1       4.716  -1.500  -3.548  0.00  0.00    +0.016 A 
ATOM     26  C   UNL     1       4.042  -0.965  -2.459  0.00  0.00    +0.029 A 
BRANCH  26  27
ATOM     27  S   UNL     1       4.903  -0.650  -0.954  0.00  0.00    -0.127 S 
ATOM     28  C   UNL     1       6.605  -1.167  -1.306  0.00  0.00    +0.090 C 
ENDBRANCH  26  27
ENDBRANCH  19  21
ENDBRANCH   2  17
TORSDOF 5
