REMARK  Name = ZINC39894357
REMARK  9 active torsions:
REMARK  status: ('A' for Active; 'I' for Inactive)
REMARK    1  A    between atoms: C_1  and  C_2
REMARK    2  A    between atoms: C_5  and  N_30
REMARK    3  A    between atoms: C_7  and  N_8
REMARK    4  A    between atoms: N_8  and  C_9
REMARK    5  A    between atoms: C_11  and  C_29
REMARK    6  A    between atoms: C_12  and  C_27
REMARK    7  A    between atoms: N_15  and  C_18
REMARK    8  A    between atoms: C_18  and  C_20
REMARK    9  A    between atoms: C_18  and  C_21
REMARK                            x       y       z     vdW  Elec       q    Type
REMARK                         _______ _______ _______ _____ _____    ______ ____
ROOT
ATOM      1  C   UNL     1      -0.473  -0.657   3.657  0.00  0.00    +0.085 C 
ATOM      2  C   UNL     1      -0.168   0.015   4.837  0.00  0.00    +0.055 C 
ATOM      3  C   UNL     1      -0.053   1.423   4.849  0.00  0.00    -0.015 C 
ATOM      4  C   UNL     1       0.252   2.057   6.045  0.00  0.00    +0.118 C 
ATOM      5  C   UNL     1       0.446   1.260   7.257  0.00  0.00    +0.264 C 
ATOM      6  O   UNL     1       0.713   1.816   8.306  0.00  0.00    -0.269 OA
ATOM      7  N   UNL     1       0.333  -0.080   7.225  0.00  0.00    -0.226 N 
ATOM      8  C   UNL     1       0.033  -0.730   6.087  0.00  0.00    +0.255 C 
ATOM      9  O   UNL     1      -0.068  -1.943   6.091  0.00  0.00    -0.269 OA
ATOM     10  C   UNL     1      -0.258   2.221   3.587  0.00  0.00    +0.046 C 
ENDROOT
BRANCH   1  11
ATOM     11  N   UNL     1      -0.653   0.034   2.516  0.00  0.00    -0.320 N 
ATOM     12  H   UNL     1      -0.654   1.004   2.532  0.00  0.00    +0.152 HD
BRANCH  11  19
ATOM     13  C   UNL     1      -1.026   1.573   0.152  0.00  0.00    +0.045 C 
ATOM     14  C   UNL     1      -1.022   0.066   0.131  0.00  0.00    -0.029 A 
ATOM     15  C   UNL     1      -1.198  -0.609  -1.061  0.00  0.00    +0.007 A 
ATOM     16  C   UNL     1      -1.196  -1.992  -1.081  0.00  0.00    +0.033 A 
ATOM     17  C   UNL     1      -1.017  -2.703   0.091  0.00  0.00    +0.128 A 
ATOM     18  C   UNL     1      -0.841  -2.035   1.286  0.00  0.00    +0.056 A 
ATOM     19  C   UNL     1      -0.837  -0.646   1.310  0.00  0.00    +0.036 A 
BRANCH  17  20
ATOM     20  N   UNL     1      -1.016  -4.183   0.065  0.00  0.00    +0.056 N 
ATOM     21  O   UNL     1      -1.170  -4.769  -0.982  0.00  0.00    -0.126 OA
ATOM     22  O   UNL     1      -0.860  -4.806   1.089  0.00  0.00    -0.126 OA
ENDBRANCH  17  20
ENDBRANCH  11  19
ENDBRANCH   1  11
BRANCH   7  23
ATOM     23  C   UNL     1       0.534  -0.846   8.458  0.00  0.00    +0.112 C 
ATOM     24  C   UNL     1       0.158  -2.309   8.216  0.00  0.00    +0.033 C 
BRANCH  23  25
ATOM     25  C   UNL     1       1.981  -0.761   8.871  0.00  0.00    -0.027 A 
ATOM     26  C   UNL     1       2.974  -0.726   7.909  0.00  0.00    +0.005 A 
ATOM     27  C   UNL     1       4.301  -0.648   8.288  0.00  0.00    +0.000 A 
ATOM     28  C   UNL     1       4.635  -0.605   9.629  0.00  0.00    +0.000 A 
ATOM     29  C   UNL     1       3.643  -0.638  10.590  0.00  0.00    +0.000 A 
ATOM     30  C   UNL     1       2.315  -0.712  10.211  0.00  0.00    +0.005 A 
ENDBRANCH  23  25
ENDBRANCH   7  23
BRANCH   4  31
ATOM     31  C   UNL     1       0.376   3.483   6.093  0.00  0.00    +0.105 C 
ATOM     32  N   UNL     1       0.475   4.614   6.131  0.00  0.00    -0.191 NA
ENDBRANCH   4  31
TORSDOF 6
