REMARK  Name = ZINC02627319
REMARK  6 active torsions:
REMARK  status: ('A' for Active; 'I' for Inactive)
REMARK    1  A    between atoms: C_1  and  C_2
REMARK    2  A    between atoms: C_5  and  C_8
REMARK    3  A    between atoms: C_8  and  C_33
REMARK    4  A    between atoms: N_11  and  C_15
REMARK    5  A    between atoms: C_15  and  C_16
REMARK    6  A    between atoms: C_28  and  C_32
REMARK                            x       y       z     vdW  Elec       q    Type
REMARK                         _______ _______ _______ _____ _____    ______ ____
ROOT
ATOM      1  C   UNL     1      -2.766  -6.244  -1.413  0.00  0.00    +0.192 C 
ENDROOT
BRANCH   1   2
ATOM      2  C   UNL     1      -3.941  -5.328  -1.643  0.00  0.00    +0.129 A 
ATOM      3  N   UNL     1      -5.010  -5.780  -2.347  0.00  0.00    -0.309 N 
ATOM      4  H   UNL     1      -5.003  -6.686  -2.693  0.00  0.00    +0.170 HD
ATOM      5  C   UNL     1      -6.083  -4.997  -2.570  0.00  0.00    +0.260 A 
ATOM      6  O   UNL     1      -7.037  -5.419  -3.200  0.00  0.00    -0.267 OA
ATOM      7  C   UNL     1      -6.080  -3.657  -2.060  0.00  0.00    +0.075 A 
ATOM      8  C   UNL     1      -7.120  -2.637  -2.185  0.00  0.00    -0.023 A 
ATOM      9  C   UNL     1      -6.875  -1.440  -1.610  0.00  0.00    -0.004 A 
ATOM     10  S   UNL     1      -5.268  -1.602  -0.880  0.00  0.00    -0.073 S 
ATOM     11  C   UNL     1      -4.930  -3.279  -1.351  0.00  0.00    +0.116 A 
ATOM     12  N   UNL     1      -3.910  -4.113  -1.165  0.00  0.00    -0.225 NA
ATOM     13  C   UNL     1      -7.771  -0.240  -1.596  0.00  0.00    +0.046 C 
ATOM     14  C   UNL     1      -9.180  -0.682  -2.018  0.00  0.00    -0.009 C 
ATOM     15  C   UNL     1      -9.068  -1.547  -3.276  0.00  0.00    +0.008 C 
ATOM     16  C   UNL     1      -8.429  -2.892  -2.927  0.00  0.00    +0.037 C 
ATOM     17  C   UNL     1     -10.037   0.550  -2.316  0.00  0.00    +0.008 C 
ENDBRANCH   1   2
BRANCH   1  21
ATOM     18  C   UNL     1       0.060  -4.275  -0.021  0.00  0.00    +0.135 C 
ATOM     19  C   UNL     1      -0.745  -4.813  -1.188  0.00  0.00    +0.251 C 
ATOM     20  O   UNL     1      -0.537  -4.629  -2.368  0.00  0.00    -0.272 OA
ATOM     21  N   UNL     1      -1.741  -5.538  -0.640  0.00  0.00    -0.217 N 
ATOM     22  C   UNL     1      -1.677  -5.533   0.696  0.00  0.00    +0.310 C 
ATOM     23  O   UNL     1      -2.467  -6.117   1.412  0.00  0.00    -0.252 OA
ATOM     24  N   UNL     1      -0.641  -4.810   1.159  0.00  0.00    -0.281 N 
ATOM     25  C   UNL     1       1.499  -4.792  -0.072  0.00  0.00    +0.047 C 
ATOM     26  H   UNL     1      -0.403  -4.668   2.088  0.00  0.00    +0.152 HD
BRANCH  18  31
ATOM     27  C   UNL     1      -0.018   1.503   0.010  0.00  0.00    +0.044 C 
ATOM     28  C   UNL     1       0.002  -0.004   0.002  0.00  0.00    -0.050 A 
ATOM     29  C   UNL     1      -0.006  -0.689  -1.199  0.00  0.00    +0.004 A 
ATOM     30  C   UNL     1       0.018  -2.071  -1.206  0.00  0.00    +0.006 A 
ATOM     31  C   UNL     1       0.039  -2.768  -0.013  0.00  0.00    -0.015 A 
ATOM     32  C   UNL     1       0.041  -2.084   1.188  0.00  0.00    +0.006 A 
ATOM     33  C   UNL     1       0.023  -0.702   1.195  0.00  0.00    +0.004 A 
ENDBRANCH  18  31
ENDBRANCH   1  21
TORSDOF 3
