REMARK  Name = ZINC33317504
REMARK  7 active torsions:
REMARK  status: ('A' for Active; 'I' for Inactive)
REMARK    1  A    between atoms: C_1  and  C_2
REMARK    2  A    between atoms: C_5  and  S_8
REMARK    3  A    between atoms: S_8  and  N_11
REMARK    4  A    between atoms: C_14  and  C_16
REMARK    5  A    between atoms: N_21  and  C_22
REMARK    6  A    between atoms: C_22  and  C_23
REMARK    7  A    between atoms: C_26  and  C_28
REMARK                            x       y       z     vdW  Elec       q    Type
REMARK                         _______ _______ _______ _____ _____    ______ ____
ROOT
ATOM      1  N   UNL     1      -4.824   0.606   2.881  0.00  0.00    -0.094 N 
ATOM      2  C   UNL     1      -4.280   0.795   1.659  0.00  0.00    +0.237 A 
ATOM      3  N   UNL     1      -5.189   0.504   0.757  0.00  0.00    -0.189 NA
ATOM      4  C   UNL     1      -6.322   0.119   1.366  0.00  0.00    +0.220 A 
ATOM      5  N   UNL     1      -6.142   0.170   2.669  0.00  0.00    -0.123 NA
ATOM      6  N   UNL     1      -2.991   1.226   1.403  0.00  0.00    -0.305 N 
ATOM      7  H   UNL     1      -2.309   1.447   2.237  0.00  0.00    +0.149 HD
ENDROOT
BRANCH   4   8
ATOM      8  C   UNL     1      -7.569  -0.290   0.686  0.00  0.00    +0.173 A 
ATOM      9  C   UNL     1      -7.763  -0.346  -0.659  0.00  0.00    +0.053 A 
ATOM     10  C   UNL     1      -9.087  -0.784  -0.860  0.00  0.00    +0.042 A 
ATOM     11  C   UNL     1      -9.630  -0.973   0.358  0.00  0.00    +0.196 A 
ATOM     12  O   UNL     1      -8.708  -0.679   1.290  0.00  0.00    -0.460 OA
ENDBRANCH   4   8
BRANCH   1  13
ATOM     13  S   UNL     1      -4.083   0.843   4.343  0.00  0.00    +0.102 S 
ATOM     14  O   UNL     1      -4.770   0.028   5.283  0.00  0.00    -0.146 OA
ATOM     15  O   UNL     1      -2.686   0.729   4.113  0.00  0.00    -0.146 OA
BRANCH  13  20
ATOM     16  C   UNL     1      -5.105   6.568   5.953  0.00  0.00    +0.044 C 
ATOM     17  C   UNL     1      -4.850   5.138   5.551  0.00  0.00    -0.050 A 
ATOM     18  C   UNL     1      -5.735   4.145   5.929  0.00  0.00    +0.005 A 
ATOM     19  C   UNL     1      -5.500   2.834   5.560  0.00  0.00    +0.029 A 
ATOM     20  C   UNL     1      -4.382   2.515   4.813  0.00  0.00    +0.113 A 
ATOM     21  C   UNL     1      -3.494   3.507   4.440  0.00  0.00    +0.029 A 
ATOM     22  C   UNL     1      -3.730   4.819   4.806  0.00  0.00    +0.005 A 
ENDBRANCH  13  20
ENDBRANCH   1  13
BRANCH   6  23
ATOM     23  C   UNL     1      -2.533   1.387   0.021  0.00  0.00    +0.178 C 
BRANCH  23  24
ATOM     24  C   UNL     1      -1.103   1.863   0.017  0.00  0.00    +0.122 A 
ATOM     25  C   UNL     1      -0.013   1.076   0.008  0.00  0.00    +0.046 A 
ATOM     26  C   UNL     1       1.111   1.934   0.002  0.00  0.00    +0.045 A 
ATOM     27  C   UNL     1       0.640   3.193   0.012  0.00  0.00    +0.102 A 
ATOM     28  O   UNL     1      -0.702   3.144   0.024  0.00  0.00    -0.463 OA
ATOM     29  C   UNL     1       1.476   4.447   0.011  0.00  0.00    +0.086 C 
ENDBRANCH  23  24
ENDBRANCH   6  23
TORSDOF 5
