REMARK  Name = ZINC22018650
REMARK  12 active torsions:
REMARK  status: ('A' for Active; 'I' for Inactive)
REMARK    1  A    between atoms: C_1  and  C_2
REMARK    2  A    between atoms: C_2  and  O_3
REMARK    3  A    between atoms: O_3  and  C_4
REMARK    4  A    between atoms: C_4  and  C_6
REMARK    5  A    between atoms: C_9  and  O_12
REMARK    6  A    between atoms: O_12  and  C_13
REMARK    7  A    between atoms: C_13  and  C_14
REMARK    8  A    between atoms: C_14  and  C_16
REMARK    9  A    between atoms: C_14  and  O_35
REMARK   10  A    between atoms: C_16  and  N_17
REMARK   11  A    between atoms: C_20  and  C_24
REMARK   12  A    between atoms: C_20  and  C_25
REMARK                            x       y       z     vdW  Elec       q    Type
REMARK                         _______ _______ _______ _____ _____    ______ ____
ROOT
ATOM      1  N   UNL     1       1.048   2.037   0.003  0.00  0.00    -0.221 N 
ATOM      2  C   UNL     1      -0.014   1.208   0.009  0.00  0.00    +0.251 C 
ATOM      3  O   UNL     1       0.002  -0.004   0.002  0.00  0.00    -0.272 OA
ATOM      4  C   UNL     1      -1.235   2.107   0.018  0.00  0.00    +0.135 C 
ATOM      5  N   UNL     1      -0.664   3.465   0.026  0.00  0.00    -0.281 N 
ATOM      6  C   UNL     1       0.673   3.321   0.013  0.00  0.00    +0.310 C 
ATOM      7  O   UNL     1       1.453   4.253   0.010  0.00  0.00    -0.252 OA
ATOM      8  C   UNL     1      -2.068   1.870   1.279  0.00  0.00    +0.047 C 
ATOM      9  H   UNL     1      -1.329   4.341   0.039  0.00  0.00    +0.152 HD
ENDROOT
BRANCH   4  10
ATOM     10  C   UNL     1      -2.067   1.885  -1.218  0.00  0.00    -0.012 A 
ATOM     11  C   UNL     1      -2.081   0.644  -1.827  0.00  0.00    +0.010 A 
ATOM     12  C   UNL     1      -2.843   0.437  -2.961  0.00  0.00    +0.050 A 
ATOM     13  C   UNL     1      -3.594   1.474  -3.493  0.00  0.00    +0.162 A 
ATOM     14  C   UNL     1      -3.581   2.722  -2.881  0.00  0.00    +0.162 A 
ATOM     15  C   UNL     1      -2.818   2.922  -1.739  0.00  0.00    +0.055 A 
ATOM     16  O   UNL     1      -4.314   3.752  -3.383  0.00  0.00    -0.485 OA
ATOM     17  C   UNL     1      -4.772   3.618  -4.733  0.00  0.00    +0.270 C 
ATOM     18  C   UNL     1      -5.363   2.211  -4.901  0.00  0.00    +0.270 C 
ATOM     19  O   UNL     1      -4.336   1.256  -4.613  0.00  0.00    -0.485 OA
ENDBRANCH   4  10
BRANCH   1  20
ATOM     20  C   UNL     1       2.443   1.587  -0.013  0.00  0.00    +0.152 C 
BRANCH  20  21
ATOM     21  C   UNL     1       2.914   1.438  -1.461  0.00  0.00    +0.170 C 
BRANCH  21  22
ATOM     22  O   UNL     1       2.096   0.477  -2.132  0.00  0.00    -0.387 OA
ATOM     23  H   UNL     1       1.012   0.644  -2.221  0.00  0.00    +0.210 HD
ENDBRANCH  21  22
BRANCH  21  24
ATOM     24  C   UNL     1       4.370   0.968  -1.477  0.00  0.00    +0.261 C 
BRANCH  24  25
ATOM     25  O   UNL     1       4.847   0.941  -2.824  0.00  0.00    -0.489 OA
BRANCH  25  29
ATOM     26  C   UNL     1       8.750  -0.268  -3.406  0.00  0.00    +0.059 A 
ATOM     27  C   UNL     1       7.957   0.092  -4.500  0.00  0.00    +0.018 A 
ATOM     28  C   UNL     1       6.656   0.494  -4.301  0.00  0.00    +0.046 A 
ATOM     29  C   UNL     1       6.130   0.543  -3.015  0.00  0.00    +0.121 A 
ATOM     30  C   UNL     1       6.917   0.192  -1.925  0.00  0.00    +0.046 A 
ATOM     31  C   UNL     1       8.217  -0.217  -2.115  0.00  0.00    +0.018 A 
BRANCH  26  32
ATOM     32  C   UNL     1      10.145  -0.699  -3.615  0.00  0.00    +0.339 C 
ATOM     33  O   UNL     1      10.607  -0.742  -4.738  0.00  0.00    -0.245 OA
BRANCH  32  34
ATOM     34  O   UNL     1      10.908  -1.045  -2.559  0.00  0.00    -0.461 OA
BRANCH  34  36
ATOM     35  C   UNL     1      12.976  -1.811  -1.527  0.00  0.00    +0.048 C 
ATOM     36  C   UNL     1      12.271  -1.459  -2.838  0.00  0.00    +0.229 C 
ENDBRANCH  34  36
ENDBRANCH  32  34
ENDBRANCH  26  32
ENDBRANCH  25  29
ENDBRANCH  24  25
ENDBRANCH  21  24
ENDBRANCH  20  21
ENDBRANCH   1  20
TORSDOF 10
