REMARK  Name = ZINC67604637
REMARK  7 active torsions:
REMARK  status: ('A' for Active; 'I' for Inactive)
REMARK    1  A    between atoms: C_1  and  C_2
REMARK    2  A    between atoms: C_2  and  O_3
REMARK    3  A    between atoms: O_3  and  C_4
REMARK    4  A    between atoms: N_13  and  C_14
REMARK    5  A    between atoms: C_14  and  C_16
REMARK    6  A    between atoms: C_14  and  C_17
REMARK    7  A    between atoms: C_18  and  C_26
REMARK                            x       y       z     vdW  Elec       q    Type
REMARK                         _______ _______ _______ _____ _____    ______ ____
ROOT
ATOM      1  C   UNL     1      -1.432  -1.921   0.011  0.00  0.00    +0.136 C 
ATOM      2  C   UNL     1      -2.717  -2.345  -0.704  0.00  0.00    +0.035 C 
ATOM      3  C   UNL     1      -2.799  -3.873  -0.744  0.00  0.00    +0.022 C 
ATOM      4  C   UNL     1      -2.839  -4.417   0.687  0.00  0.00    +0.109 C 
ATOM      5  N   UNL     1      -1.681  -3.894   1.425  0.00  0.00    -0.283 N 
ATOM      6  C   UNL     1      -1.456  -2.442   1.451  0.00  0.00    +0.140 C 
ATOM      7  C   UNL     1      -0.840  -4.730   2.065  0.00  0.00    +0.303 C 
ATOM      8  O   UNL     1       0.166  -4.295   2.591  0.00  0.00    -0.253 OA
ATOM      9  N   UNL     1      -1.114  -6.048   2.122  0.00  0.00    -0.290 N 
ATOM     10  H   UNL     1      -1.878  -6.406   1.642  0.00  0.00    +0.151 HD
ENDROOT
BRANCH   9  11
ATOM     11  C   UNL     1      -0.260  -6.941   2.909  0.00  0.00    +0.138 C 
ATOM     12  C   UNL     1      -0.720  -6.932   4.368  0.00  0.00    +0.036 C 
BRANCH  11  13
ATOM     13  C   UNL     1      -0.357  -8.342   2.361  0.00  0.00    +0.129 A 
ATOM     14  C   UNL     1       0.685  -9.157   2.151  0.00  0.00    +0.000 A 
ATOM     15  C   UNL     1       0.127 -10.405   1.616  0.00  0.00    +0.023 A 
ATOM     16  C   UNL     1       0.674 -11.619   1.203  0.00  0.00    +0.012 A 
ATOM     17  C   UNL     1      -0.147 -12.610   0.741  0.00  0.00    +0.001 A 
ATOM     18  C   UNL     1      -1.520 -12.414   0.680  0.00  0.00    +0.004 A 
ATOM     19  C   UNL     1      -2.078 -11.220   1.084  0.00  0.00    +0.047 A 
ATOM     20  C   UNL     1      -1.262 -10.200   1.558  0.00  0.00    +0.136 A 
ATOM     21  O   UNL     1      -1.503  -8.956   2.017  0.00  0.00    -0.458 OA
ATOM     22  C   UNL     1       2.138  -8.854   2.411  0.00  0.00    +0.048 C 
ENDBRANCH  11  13
ENDBRANCH   9  11
BRANCH   1  23
ATOM     23  O   UNL     1      -1.341  -0.495   0.021  0.00  0.00    -0.375 OA
BRANCH  23  25
ATOM     24  C   UNL     1      -0.025   1.532   0.028  0.00  0.00    +0.034 C 
ATOM     25  C   UNL     1      -0.001   0.003   0.016  0.00  0.00    +0.157 C 
ENDBRANCH  23  25
ENDBRANCH   1  23
TORSDOF 4
