REMARK  Name = ZINC21744268
REMARK  8 active torsions:
REMARK  status: ('A' for Active; 'I' for Inactive)
REMARK    1  A    between atoms: C_1  and  C_2
REMARK    2  A    between atoms: C_3  and  C_7
REMARK    3  A    between atoms: C_10  and  S_13
REMARK    4  A    between atoms: N_11  and  N_12
REMARK    5  A    between atoms: S_13  and  C_14
REMARK    6  A    between atoms: C_14  and  C_16
REMARK    7  A    between atoms: C_14  and  C_17
REMARK    8  A    between atoms: N_19  and  C_20
REMARK                            x       y       z     vdW  Elec       q    Type
REMARK                         _______ _______ _______ _____ _____    ______ ____
ROOT
ATOM      1  C   UNL     1       1.345  -0.349   0.009  0.00  0.00    +0.185 A 
ATOM      2  N   UNL     1       2.036   0.767   0.013  0.00  0.00    -0.127 NA
ATOM      3  N   UNL     1       1.240   1.776   0.020  0.00  0.00    -0.121 NA
ATOM      4  C   UNL     1      -0.007   1.367   0.021  0.00  0.00    +0.209 A 
ATOM      5  N   UNL     1       0.015   0.000   0.015  0.00  0.00    -0.224 N 
ENDROOT
BRANCH   1   8
ATOM      6  C   UNL     1       4.379  -1.137  -0.015  0.00  0.00    +0.087 C 
ATOM      7  C   UNL     1       3.206  -2.083  -0.010  0.00  0.00    +0.112 A 
ATOM      8  C   UNL     1       1.894  -1.722   0.001  0.00  0.00    +0.061 A 
ATOM      9  C   UNL     1       1.136  -2.980  -0.005  0.00  0.00    +0.053 A 
ATOM     10  C   UNL     1       2.050  -3.964  -0.013  0.00  0.00    +0.196 A 
ATOM     11  O   UNL     1       3.277  -3.422  -0.013  0.00  0.00    -0.467 OA
ENDBRANCH   1   8
BRANCH   5  12
ATOM     12  N   UNL     1      -1.060  -0.843   0.013  0.00  0.00    -0.295 N 
ATOM     13  H   UNL     1      -2.080  -0.433   0.018  0.00  0.00    +0.163 HD
ATOM     14  H   UNL     1      -0.904  -1.932   0.007  0.00  0.00    +0.163 HD
ENDBRANCH   5  12
BRANCH   4  15
ATOM     15  S   UNL     1      -1.443   2.389   0.024  0.00  0.00    -0.072 S 
BRANCH  15  16
ATOM     16  C   UNL     1      -0.665   4.024   0.033  0.00  0.00    +0.137 C 
ATOM     17  C   UNL     1       0.102   4.215   1.343  0.00  0.00    +0.029 C 
BRANCH  16  18
ATOM     18  C   UNL     1      -1.726   5.086  -0.087  0.00  0.00    +0.230 C 
ATOM     19  O   UNL     1      -2.861   4.854   0.274  0.00  0.00    -0.274 OA
ATOM     20  N   UNL     1      -1.416   6.295  -0.597  0.00  0.00    -0.285 N 
ATOM     21  H   UNL     1      -0.373   6.531  -0.854  0.00  0.00    +0.155 HD
BRANCH  20  22
ATOM     22  C   UNL     1      -2.420   7.248  -0.799  0.00  0.00    +0.034 A 
ATOM     23  C   UNL     1      -2.349   8.114  -1.882  0.00  0.00    +0.025 A 
ATOM     24  C   UNL     1      -3.345   9.051  -2.082  0.00  0.00    +0.022 A 
ATOM     25  C   UNL     1      -4.406   9.134  -1.198  0.00  0.00    +0.041 A 
ATOM     26  C   UNL     1      -4.476   8.275  -0.115  0.00  0.00    +0.022 A 
ATOM     27  C   UNL     1      -3.487   7.333   0.087  0.00  0.00    +0.025 A 
ATOM     28 CL   UNL     1      -5.651  10.317  -1.448  0.00  0.00    -0.084 Cl
ENDBRANCH  20  22
ENDBRANCH  16  18
ENDBRANCH  15  16
ENDBRANCH   4  15
TORSDOF 6
