REMARK  Name = ZINC64793737
REMARK  8 active torsions:
REMARK  status: ('A' for Active; 'I' for Inactive)
REMARK    1  A    between atoms: C_1  and  C_2
REMARK    2  A    between atoms: C_2  and  C_3
REMARK    3  A    between atoms: C_3  and  C_5
REMARK    4  A    between atoms: C_3  and  N_6
REMARK    5  A    between atoms: C_7  and  C_9
REMARK    6  A    between atoms: C_9  and  N_10
REMARK    7  A    between atoms: C_16  and  C_26
REMARK    8  A    between atoms: C_19  and  C_20
REMARK                            x       y       z     vdW  Elec       q    Type
REMARK                         _______ _______ _______ _____ _____    ______ ____
ROOT
ATOM      1  N   UNL     1       0.740   0.471  -5.926  0.00  0.00    -0.259 N 
ATOM      2  C   UNL     1       1.289   1.688  -6.300  0.00  0.00    +0.243 A 
ATOM      3  N   UNL     1       1.078   2.894  -5.855  0.00  0.00    -0.092 NA
ATOM      4  N   UNL     1       1.806   3.741  -6.500  0.00  0.00    -0.021 NA
ATOM      5  N   UNL     1       2.524   3.134  -7.388  0.00  0.00    -0.042 NA
ATOM      6  N   UNL     1       2.217   1.778  -7.288  0.00  0.00    -0.202 N 
ATOM      7  C   UNL     1       2.729   0.631  -8.028  0.00  0.00    +0.167 C 
ATOM      8  C   UNL     1       1.879  -0.577  -7.742  0.00  0.00    +0.028 C 
ATOM      9  C   UNL     1       0.983  -0.623  -6.767  0.00  0.00    +0.043 C 
ENDROOT
BRANCH   7  10
ATOM     10  C   UNL     1       4.149   0.356  -7.608  0.00  0.00    -0.019 A 
ATOM     11  C   UNL     1       4.433   0.050  -6.290  0.00  0.00    +0.007 A 
ATOM     12  C   UNL     1       5.735  -0.203  -5.903  0.00  0.00    +0.020 A 
ATOM     13  C   UNL     1       6.756  -0.150  -6.836  0.00  0.00    +0.041 A 
ATOM     14  C   UNL     1       6.472   0.156  -8.155  0.00  0.00    +0.020 A 
ATOM     15  C   UNL     1       5.168   0.403  -8.541  0.00  0.00    +0.007 A 
ATOM     16 CL   UNL     1       8.392  -0.468  -6.351  0.00  0.00    -0.084 Cl
ENDBRANCH   7  10
BRANCH   9  17
ATOM     17  C   UNL     1       0.209  -1.869  -6.564  0.00  0.00    -0.004 A 
ATOM     18  C   UNL     1       0.869  -3.093  -6.459  0.00  0.00    +0.010 A 
ATOM     19  C   UNL     1       0.143  -4.251  -6.270  0.00  0.00    +0.001 A 
ATOM     20  C   UNL     1      -1.237  -4.200  -6.184  0.00  0.00    +0.000 A 
ATOM     21  C   UNL     1      -1.897  -2.988  -6.288  0.00  0.00    +0.001 A 
ATOM     22  C   UNL     1      -1.181  -1.823  -6.471  0.00  0.00    +0.010 A 
ENDBRANCH   9  17
BRANCH   1  23
ATOM     23  C   UNL     1      -0.053   0.334  -4.702  0.00  0.00    +0.209 C 
BRANCH  23  25
ATOM     24  N   UNL     1       0.316  -0.338  -2.350  0.00  0.00    -0.311 N 
ATOM     25  C   UNL     1       0.833  -0.140  -3.579  0.00  0.00    +0.231 C 
ATOM     26  O   UNL     1       2.011  -0.343  -3.781  0.00  0.00    -0.274 OA
ATOM     27  H   UNL     1      -0.627  -0.176  -2.189  0.00  0.00    +0.149 HD
BRANCH  24  28
ATOM     28  C   UNL     1       1.177  -0.799  -1.259  0.00  0.00    +0.070 C 
ATOM     29  C   UNL     1       1.281  -2.325  -1.301  0.00  0.00    +0.028 C 
BRANCH  28  31
ATOM     30  C   UNL     1       0.590   1.161   0.174  0.00  0.00    +0.005 C 
ATOM     31  C   UNL     1       0.579  -0.366   0.081  0.00  0.00    +0.018 C 
ENDBRANCH  28  31
ENDBRANCH  24  28
ENDBRANCH  23  25
ENDBRANCH   1  23
TORSDOF 6
