REMARK  Name = ZINC13551886
REMARK  11 active torsions:
REMARK  status: ('A' for Active; 'I' for Inactive)
REMARK    1  A    between atoms: C_1  and  C_2
REMARK    2  A    between atoms: C_5  and  C_8
REMARK    3  A    between atoms: N_10  and  C_11
REMARK    4  A    between atoms: C_11  and  C_27
REMARK    5  A    between atoms: C_12  and  C_13
REMARK    6  A    between atoms: C_16  and  C_18
REMARK    7  A    between atoms: C_23  and  N_24
REMARK    8  A    between atoms: N_29  and  C_30
REMARK    9  A    between atoms: C_30  and  C_31
REMARK   10  A    between atoms: C_31  and  O_32
REMARK   11  A    between atoms: O_32  and  C_33
REMARK                            x       y       z     vdW  Elec       q    Type
REMARK                         _______ _______ _______ _____ _____    ______ ____
ROOT
ATOM      1  C   UNL     1       3.921   7.042  -2.345  0.00  0.00    +0.100 C 
ATOM      2  C   UNL     1       4.528   6.618  -1.155  0.00  0.00    +0.074 C 
ENDROOT
BRANCH   2   3
ATOM      3  C   UNL     1       3.884   5.703  -0.335  0.00  0.00    +0.131 A 
ATOM      4  C   UNL     1       4.436   5.079   0.877  0.00  0.00    +0.050 A 
ATOM      5  C   UNL     1       3.466   4.262   1.361  0.00  0.00    +0.050 A 
ATOM      6  C   UNL     1       2.353   4.357   0.488  0.00  0.00    +0.138 A 
ATOM      7  O   UNL     1       2.633   5.221  -0.502  0.00  0.00    -0.455 OA
BRANCH   6   8
ATOM      8  C   UNL     1       1.132   3.654   0.640  0.00  0.00    +0.047 A 
ATOM      9  C   UNL     1       1.136   2.261   0.849  0.00  0.00    +0.014 A 
ATOM     10  C   UNL     1      -0.046   1.594   0.994  0.00  0.00    +0.001 A 
ATOM     11  C   UNL     1      -1.250   2.282   0.930  0.00  0.00    +0.002 A 
ATOM     12  C   UNL     1      -1.266   3.655   0.730  0.00  0.00    +0.033 A 
ATOM     13  C   UNL     1      -0.095   4.343   0.583  0.00  0.00    +0.137 A 
BRANCH  13  14
ATOM     14  N   UNL     1      -0.116   5.807   0.364  0.00  0.00    +0.057 N 
ATOM     15  O   UNL     1      -1.264   6.448   0.310  0.00  0.00    -0.126 OA
ATOM     16  O   UNL     1       1.015   6.467   0.223  0.00  0.00    -0.126 OA
ENDBRANCH  13  14
ENDBRANCH   6   8
ENDBRANCH   2   3
BRANCH   1  19
ATOM     17  C   UNL     1       1.688   7.509  -2.850  0.00  0.00    +0.248 C 
ATOM     18  O   UNL     1       1.930   8.699  -2.826  0.00  0.00    -0.270 OA
ATOM     19  N   UNL     1       2.678   6.615  -2.658  0.00  0.00    -0.277 N 
ATOM     20  H   UNL     1       2.499   5.666  -2.745  0.00  0.00    +0.155 HD
BRANCH  17  25
ATOM     21  C   UNL     1      -3.689   5.686  -3.784  0.00  0.00    +0.044 C 
ATOM     22  C   UNL     1      -2.281   6.163  -3.540  0.00  0.00    -0.050 A 
ATOM     23  C   UNL     1      -2.009   7.519  -3.512  0.00  0.00    +0.004 A 
ATOM     24  C   UNL     1      -0.722   7.963  -3.289  0.00  0.00    +0.013 A 
ATOM     25  C   UNL     1       0.307   7.040  -3.090  0.00  0.00    +0.037 A 
ATOM     26  C   UNL     1       0.026   5.673  -3.123  0.00  0.00    +0.013 A 
ATOM     27  C   UNL     1      -1.266   5.243  -3.343  0.00  0.00    +0.004 A 
ENDBRANCH  17  25
ENDBRANCH   1  19
BRANCH   1  28
ATOM     28  C   UNL     1       4.646   7.962  -3.263  0.00  0.00    +0.258 C 
ATOM     29  O   UNL     1       4.163   8.251  -4.339  0.00  0.00    -0.269 OA
ATOM     30  N   UNL     1       5.839   8.474  -2.901  0.00  0.00    -0.308 N 
ATOM     31  H   UNL     1       6.226   8.243  -2.042  0.00  0.00    +0.149 HD
BRANCH  30  32
ATOM     32  C   UNL     1       6.553   9.380  -3.805  0.00  0.00    +0.132 C 
BRANCH  32  33
ATOM     33  C   UNL     1       7.870   9.813  -3.158  0.00  0.00    +0.178 C 
BRANCH  33  34
ATOM     34  O   UNL     1       8.724   8.677  -3.009  0.00  0.00    -0.381 OA
ATOM     35  C   UNL     1       9.987   8.974  -2.412  0.00  0.00    +0.194 C 
ENDBRANCH  33  34
ENDBRANCH  32  33
ENDBRANCH  30  32
ENDBRANCH   1  28
TORSDOF 9
