REMARK  Name = ZINC09872582
REMARK  16 active torsions:
REMARK  status: ('A' for Active; 'I' for Inactive)
REMARK    1  A    between atoms: C_1  and  C_2
REMARK    2  A    between atoms: C_2  and  N_3
REMARK    3  A    between atoms: C_7  and  S_27
REMARK    4  A    between atoms: C_11  and  S_12
REMARK    5  A    between atoms: S_12  and  C_13
REMARK    6  A    between atoms: C_13  and  C_15
REMARK    7  A    between atoms: C_13  and  C_16
REMARK    8  A    between atoms: N_18  and  C_19
REMARK    9  A    between atoms: N_23  and  C_24
REMARK   10  A    between atoms: C_24  and  C_25
REMARK   11  A    between atoms: C_24  and  C_26
REMARK   12  A    between atoms: S_27  and  N_30
REMARK   13  A    between atoms: N_30  and  C_31
REMARK   14  A    between atoms: N_30  and  C_33
REMARK   15  A    between atoms: C_31  and  C_32
REMARK   16  A    between atoms: C_33  and  C_34
REMARK                            x       y       z     vdW  Elec       q    Type
REMARK                         _______ _______ _______ _____ _____    ______ ____
ROOT
ATOM      1  N   UNL     1      -7.443   6.753   1.302  0.00  0.00    -0.319 N 
ATOM      2  C   UNL     1      -7.672   8.111   1.151  0.00  0.00    +0.070 A 
ATOM      3  C   UNL     1      -8.743   8.943   1.440  0.00  0.00    +0.030 A 
ATOM      4  C   UNL     1      -8.659  10.292   1.163  0.00  0.00    +0.030 A 
ATOM      5  C   UNL     1      -7.511  10.822   0.595  0.00  0.00    +0.108 A 
ATOM      6  C   UNL     1      -6.438  10.011   0.300  0.00  0.00    +0.058 A 
ATOM      7  C   UNL     1      -6.506   8.643   0.576  0.00  0.00    +0.092 A 
ATOM      8  N   UNL     1      -5.636   7.613   0.410  0.00  0.00    -0.222 NA
ATOM      9  C   UNL     1      -6.185   6.500   0.831  0.00  0.00    +0.171 A 
ENDROOT
BRANCH   5  10
ATOM     10  S   UNL     1      -7.423  12.548   0.248  0.00  0.00    +0.061 S 
ATOM     11  O   UNL     1      -6.457  12.707  -0.782  0.00  0.00    -0.153 OA
ATOM     12  O   UNL     1      -8.762  13.003   0.113  0.00  0.00    -0.153 OA
BRANCH  10  13
ATOM     13  N   UNL     1      -6.805  13.287   1.595  0.00  0.00    -0.177 NA
BRANCH  13  14
ATOM     14  C   UNL     1      -5.358  13.463   1.735  0.00  0.00    +0.106 C 
ATOM     15  C   UNL     1      -4.963  14.855   1.237  0.00  0.00    +0.022 C 
ENDBRANCH  13  14
BRANCH  13  16
ATOM     16  C   UNL     1      -7.706  13.765   2.647  0.00  0.00    +0.106 C 
ATOM     17  C   UNL     1      -7.830  12.699   3.736  0.00  0.00    +0.022 C 
ENDBRANCH  13  16
ENDBRANCH  10  13
ENDBRANCH   5  10
BRANCH   1  19
ATOM     18  C   UNL     1      -8.158   5.668   3.373  0.00  0.00    +0.027 C 
ATOM     19  C   UNL     1      -8.374   5.771   1.862  0.00  0.00    +0.121 C 
ENDBRANCH   1  19
BRANCH   9  20
ATOM     20  S   UNL     1      -5.415   4.916   0.800  0.00  0.00    -0.075 S 
BRANCH  20  21
ATOM     21  C   UNL     1      -3.820   5.356   0.066  0.00  0.00    +0.137 C 
ATOM     22  C   UNL     1      -4.037   5.847  -1.367  0.00  0.00    +0.029 C 
BRANCH  21  23
ATOM     23  C   UNL     1      -2.923   4.145   0.052  0.00  0.00    +0.231 C 
ATOM     24  O   UNL     1      -3.405   3.032   0.051  0.00  0.00    -0.274 OA
ATOM     25  N   UNL     1      -1.584   4.299   0.040  0.00  0.00    -0.270 N 
ATOM     26  H   UNL     1      -1.198   5.189   0.040  0.00  0.00    +0.156 HD
BRANCH  25  27
ATOM     27  C   UNL     1      -0.753   3.179   0.026  0.00  0.00    +0.123 A 
ATOM     28  C   UNL     1      -1.157   1.879   0.017  0.00  0.00    +0.065 A 
ATOM     29  C   UNL     1      -0.013   1.076   0.008  0.00  0.00    +0.136 A 
ATOM     30  N   UNL     1       1.038   1.856   0.002  0.00  0.00    -0.178 NA
ATOM     31  N   UNL     1       0.599   3.187   0.013  0.00  0.00    -0.248 N 
BRANCH  31  32
ATOM     32  C   UNL     1       1.454   4.376   0.012  0.00  0.00    +0.103 C 
ATOM     33  C   UNL     1       2.349   4.362   1.253  0.00  0.00    +0.032 C 
ATOM     34  C   UNL     1       2.326   4.377  -1.245  0.00  0.00    +0.032 C 
ENDBRANCH  31  32
ENDBRANCH  25  27
ENDBRANCH  21  23
ENDBRANCH  20  21
ENDBRANCH   9  20
TORSDOF 10
