REMARK  Name = ZINC45275972
REMARK  9 active torsions:
REMARK  status: ('A' for Active; 'I' for Inactive)
REMARK    1  A    between atoms: C_1  and  C_2
REMARK    2  A    between atoms: C_2  and  C_4
REMARK    3  A    between atoms: C_2  and  O_16
REMARK    4  A    between atoms: N_9  and  C_10
REMARK    5  A    between atoms: O_16  and  C_17
REMARK    6  A    between atoms: C_17  and  C_19
REMARK    7  A    between atoms: N_28  and  C_30
REMARK    8  A    between atoms: C_30  and  C_31
REMARK    9  A    between atoms: C_30  and  C_32
REMARK                            x       y       z     vdW  Elec       q    Type
REMARK                         _______ _______ _______ _____ _____    ______ ____
ROOT
ATOM      1  O   UNL     1       0.671  -0.465  -1.174  0.00  0.00    -0.448 OA
ENDROOT
BRANCH   1   3
ATOM      2  C   UNL     1      -0.019   1.526   0.010  0.00  0.00    +0.062 C 
ATOM      3  C   UNL     1       0.002  -0.004   0.002  0.00  0.00    +0.259 C 
BRANCH   3   4
ATOM      4  C   UNL     1       0.731  -0.503   1.223  0.00  0.00    +0.261 C 
ATOM      5  O   UNL     1       1.774  -1.109   1.101  0.00  0.00    -0.271 OA
ATOM      6  N   UNL     1       0.223  -0.277   2.451  0.00  0.00    -0.237 N 
ATOM      7  C   UNL     1       0.875  -0.723   3.542  0.00  0.00    +0.306 C 
ATOM      8  O   UNL     1       1.921  -1.330   3.420  0.00  0.00    -0.252 OA
ATOM      9  N   UNL     1       0.367  -0.496   4.770  0.00  0.00    -0.296 N 
ATOM     10  H   UNL     1      -0.611   0.208   2.548  0.00  0.00    +0.159 HD
ATOM     11  H   UNL     1      -0.467  -0.011   4.868  0.00  0.00    +0.151 HD
BRANCH   9  12
ATOM     12  C   UNL     1       1.076  -0.981   5.957  0.00  0.00    +0.074 C 
ATOM     13  C   UNL     1       2.139   0.039   6.369  0.00  0.00    +0.022 C 
ATOM     14  C   UNL     1       2.879  -0.468   7.608  0.00  0.00    +0.002 C 
ATOM     15  C   UNL     1       1.884  -0.658   8.755  0.00  0.00    +0.000 C 
ATOM     16  C   UNL     1       0.820  -1.678   8.343  0.00  0.00    +0.002 C 
ATOM     17  C   UNL     1       0.080  -1.171   7.103  0.00  0.00    +0.022 C 
ENDBRANCH   9  12
ENDBRANCH   3   4
ENDBRANCH   1   3
BRANCH   1  18
ATOM     18  C   UNL     1      -0.088  -0.673  -2.268  0.00  0.00    +0.361 C 
ATOM     19  O   UNL     1      -1.285  -0.469  -2.224  0.00  0.00    -0.243 OA
BRANCH  18  20
ATOM     20  C   UNL     1       0.534  -1.149  -3.517  0.00  0.00    +0.176 A 
ATOM     21  C   UNL     1      -0.286  -1.373  -4.719  0.00  0.00    +0.021 A 
ATOM     22  C   UNL     1      -1.659  -1.156  -4.745  0.00  0.00    +0.011 A 
ATOM     23  C   UNL     1      -2.359  -1.390  -5.910  0.00  0.00    +0.001 A 
ATOM     24  C   UNL     1      -1.709  -1.839  -7.052  0.00  0.00    +0.001 A 
ATOM     25  C   UNL     1      -0.348  -2.060  -7.048  0.00  0.00    +0.014 A 
ATOM     26  C   UNL     1       0.376  -1.830  -5.883  0.00  0.00    +0.050 A 
ATOM     27  C   UNL     1       1.827  -2.041  -5.790  0.00  0.00    +0.275 A 
ATOM     28  O   UNL     1       2.462  -2.432  -6.752  0.00  0.00    -0.266 OA
ATOM     29  N   UNL     1       2.439  -1.790  -4.614  0.00  0.00    -0.226 N 
ATOM     30  N   UNL     1       1.825  -1.372  -3.573  0.00  0.00    -0.161 NA
BRANCH  29  31
ATOM     31  C   UNL     1       3.886  -2.002  -4.527  0.00  0.00    +0.105 C 
ATOM     32  C   UNL     1       4.574  -0.685  -4.160  0.00  0.00    +0.032 C 
ATOM     33  C   UNL     1       4.185  -3.050  -3.453  0.00  0.00    +0.032 C 
ENDBRANCH  29  31
ENDBRANCH  18  20
ENDBRANCH   1  18
TORSDOF 6
