REMARK  Name = ZINC58522335
REMARK  13 active torsions:
REMARK  status: ('A' for Active; 'I' for Inactive)
REMARK    1  A    between atoms: C_1  and  C_2
REMARK    2  A    between atoms: C_5  and  C_8
REMARK    3  A    between atoms: C_10  and  C_20
REMARK    4  A    between atoms: N_14  and  C_17
REMARK    5  A    between atoms: C_17  and  C_18
REMARK    6  A    between atoms: C_17  and  C_19
REMARK    7  A    between atoms: C_20  and  O_22
REMARK    8  A    between atoms: O_22  and  C_23
REMARK    9  A    between atoms: C_23  and  C_24
REMARK   10  A    between atoms: C_26  and  C_27
REMARK   11  A    between atoms: C_26  and  C_30
REMARK   12  A    between atoms: C_27  and  C_28
REMARK   13  A    between atoms: C_30  and  C_32
REMARK                            x       y       z     vdW  Elec       q    Type
REMARK                         _______ _______ _______ _____ _____    ______ ____
ROOT
ATOM      1  C   UNL     1       1.467  -6.263  -0.025  0.00  0.00    +0.074 A 
ATOM      2  C   UNL     1       1.191  -6.579   1.309  0.00  0.00    +0.044 A 
ATOM      3  C   UNL     1       1.094  -7.915   1.685  0.00  0.00    +0.073 A 
ATOM      4  C   UNL     1       1.281  -8.899   0.687  0.00  0.00    +0.053 A 
ATOM      5  C   UNL     1       1.259 -10.310   0.692  0.00  0.00    +0.145 A 
ATOM      6  N   UNL     1       1.498 -10.734  -0.517  0.00  0.00    -0.177 NA
ATOM      7  N   UNL     1       1.688  -9.642  -1.372  0.00  0.00    -0.244 N 
ATOM      8  C   UNL     1       1.556  -8.493  -0.635  0.00  0.00    +0.160 A 
ATOM      9  N   UNL     1       1.632  -7.206  -0.937  0.00  0.00    -0.228 NA
ENDROOT
BRANCH   1  14
ATOM     10  C   UNL     1       1.866  -0.734  -1.585  0.00  0.00    +0.044 C 
ATOM     11  C   UNL     1       1.761  -2.181  -1.176  0.00  0.00    -0.050 A 
ATOM     12  C   UNL     1       1.933  -3.177  -2.120  0.00  0.00    +0.004 A 
ATOM     13  C   UNL     1       1.839  -4.504  -1.752  0.00  0.00    +0.010 A 
ATOM     14  C   UNL     1       1.570  -4.839  -0.426  0.00  0.00    +0.000 A 
ATOM     15  C   UNL     1       1.398  -3.831   0.521  0.00  0.00    +0.010 A 
ATOM     16  C   UNL     1       1.500  -2.508   0.142  0.00  0.00    +0.004 A 
ENDBRANCH   1  14
BRANCH   7  17
ATOM     17  C   UNL     1       1.980  -9.714  -2.806  0.00  0.00    +0.103 C 
ATOM     18  C   UNL     1       3.288 -10.478  -3.023  0.00  0.00    +0.032 C 
ATOM     19  C   UNL     1       0.840 -10.441  -3.522  0.00  0.00    +0.032 C 
ENDBRANCH   7  17
BRANCH   3  20
ATOM     20  C   UNL     1       0.804  -8.293   3.084  0.00  0.00    +0.340 C 
ATOM     21  O   UNL     1       0.724  -9.465   3.391  0.00  0.00    -0.245 OA
BRANCH  20  22
ATOM     22  O   UNL     1       0.630  -7.338   4.018  0.00  0.00    -0.453 OA
BRANCH  22  23
ATOM     23  C   UNL     1       0.353  -7.776   5.349  0.00  0.00    +0.312 C 
BRANCH  23  24
ATOM     24  C   UNL     1       0.190  -6.577   6.248  0.00  0.00    +0.205 C 
ATOM     25  O   UNL     1       1.235  -5.769   6.486  0.00  0.00    -0.288 OA
ATOM     26  C   UNL     1      -1.032  -6.311   6.826  0.00  0.00    +0.083 C 
BRANCH  26  27
ATOM     27  C   UNL     1      -1.163  -5.215   7.799  0.00  0.00    +0.043 C 
ATOM     28  C   UNL     1      -1.830  -3.925   7.396  0.00  0.00    +0.066 C 
ATOM     29  N   UNL     1      -0.704  -5.359   9.002  0.00  0.00    -0.303 NA
ATOM     30  H   UNL     1      -0.211  -6.160   9.241  0.00  0.00    +0.186 HD
ENDBRANCH  26  27
BRANCH  26  31
ATOM     31  C   UNL     1      -2.199  -7.118   6.473  0.00  0.00    +0.165 C 
ATOM     32  O   UNL     1      -2.637  -7.088   5.341  0.00  0.00    -0.292 OA
ATOM     33  C   UNL     1      -2.857  -7.987   7.513  0.00  0.00    +0.092 C 
ENDBRANCH  26  31
ENDBRANCH  23  24
ENDBRANCH  22  23
ENDBRANCH  20  22
ENDBRANCH   3  20
TORSDOF 8
