REMARK  Name = ZINC56069857
REMARK  7 active torsions:
REMARK  status: ('A' for Active; 'I' for Inactive)
REMARK    1  A    between atoms: C_1  and  C_2
REMARK    2  A    between atoms: C_2  and  C_4
REMARK    3  A    between atoms: C_2  and  N_17
REMARK    4  A    between atoms: C_7  and  N_10
REMARK    5  A    between atoms: N_13  and  C_14
REMARK    6  A    between atoms: N_17  and  S_18
REMARK    7  A    between atoms: S_18  and  N_21
REMARK                            x       y       z     vdW  Elec       q    Type
REMARK                         _______ _______ _______ _____ _____    ______ ____
ROOT
ATOM      1  C   UNL     1      -1.448  -0.726  -0.111  0.00  0.00    -0.029 A 
ATOM      2  C   UNL     1      -2.079  -0.900   1.107  0.00  0.00    +0.007 A 
ATOM      3  C   UNL     1      -3.343  -1.456   1.158  0.00  0.00    +0.023 A 
ATOM      4  C   UNL     1      -3.980  -1.839  -0.015  0.00  0.00    +0.035 A 
ATOM      5  C   UNL     1      -3.343  -1.663  -1.237  0.00  0.00    +0.023 A 
ATOM      6  C   UNL     1      -2.082  -1.101  -1.282  0.00  0.00    +0.007 A 
ENDROOT
BRANCH   4   7
ATOM      7  N   UNL     1      -5.260  -2.403   0.034  0.00  0.00    -0.269 N 
ATOM      8  C   UNL     1      -6.148  -1.978   0.954  0.00  0.00    +0.304 C 
ATOM      9  O   UNL     1      -5.812  -1.168   1.796  0.00  0.00    -0.253 OA
ATOM     10  N   UNL     1      -7.410  -2.452   0.941  0.00  0.00    -0.296 N 
ATOM     11  H   UNL     1      -5.507  -3.099  -0.595  0.00  0.00    +0.156 HD
ATOM     12  H   UNL     1      -7.679  -3.098   0.269  0.00  0.00    +0.151 HD
BRANCH  10  13
ATOM     13  C   UNL     1      -8.376  -1.990   1.941  0.00  0.00    +0.075 C 
ATOM     14  C   UNL     1      -9.274  -3.043   2.594  0.00  0.00    +0.024 C 
ATOM     15  C   UNL     1      -9.860  -2.063   1.576  0.00  0.00    +0.024 C 
ENDBRANCH  10  13
ENDBRANCH   4   7
BRANCH   1  17
ATOM     16  C   UNL     1      -0.177   1.402  -0.037  0.00  0.00    +0.031 C 
ATOM     17  C   UNL     1      -0.070  -0.119  -0.164  0.00  0.00    +0.104 C 
BRANCH  17  18
ATOM     18  N   UNL     1       0.738  -0.646   0.939  0.00  0.00    -0.173 NA
ATOM     19  H   UNL     1       0.326  -0.825   1.799  0.00  0.00    +0.150 HD
BRANCH  18  20
ATOM     20  S   UNL     1       2.353  -0.936   0.718  0.00  0.00    +0.098 S 
ATOM     21  O   UNL     1       2.909   0.254   0.176  0.00  0.00    -0.141 OA
ATOM     22  O   UNL     1       2.830  -1.520   1.923  0.00  0.00    -0.141 OA
BRANCH  20  23
ATOM     23  N   UNL     1       2.486  -2.098  -0.455  0.00  0.00    -0.162 NA
ATOM     24  C   UNL     1       2.385  -3.527  -0.121  0.00  0.00    +0.138 C 
ATOM     25  C   UNL     1       1.366  -4.174  -1.065  0.00  0.00    +0.177 C 
ATOM     26  O   UNL     1       1.711  -3.861  -2.417  0.00  0.00    -0.377 OA
ATOM     27  C   UNL     1       1.671  -2.465  -2.723  0.00  0.00    +0.177 C 
ATOM     28  C   UNL     1       2.701  -1.730  -1.864  0.00  0.00    +0.138 C 
ENDBRANCH  20  23
ENDBRANCH  18  20
ENDBRANCH  17  18
ENDBRANCH   1  17
TORSDOF 6
