REMARK  Name = ZINC36354836
REMARK  9 active torsions:
REMARK  status: ('A' for Active; 'I' for Inactive)
REMARK    1  A    between atoms: C_1  and  N_2
REMARK    2  A    between atoms: C_9  and  C_14
REMARK    3  A    between atoms: C_10  and  C_11
REMARK    4  A    between atoms: C_14  and  C_16
REMARK    5  A    between atoms: C_14  and  N_19
REMARK    6  A    between atoms: N_22  and  C_25
REMARK    7  A    between atoms: C_25  and  C_26
REMARK    8  A    between atoms: C_26  and  O_27
REMARK    9  A    between atoms: O_27  and  C_28
REMARK                            x       y       z     vdW  Elec       q    Type
REMARK                         _______ _______ _______ _____ _____    ______ ____
ROOT
ATOM      1  C   UNL     1       0.066  -3.320   1.637  0.00  0.00    +0.081 C 
ENDROOT
BRANCH   1  10
ATOM      2  C   UNL     1      -0.677  -0.991  -2.783  0.00  0.00    +0.149 C 
ATOM      3  N   UNL     1      -0.483  -1.207  -1.347  0.00  0.00    -0.338 N 
ATOM      4  C   UNL     1      -0.452  -0.224  -0.387  0.00  0.00    +0.050 A 
ATOM      5  C   UNL     1      -0.580   1.162  -0.438  0.00  0.00    +0.026 A 
ATOM      6  C   UNL     1      -0.504   1.900   0.722  0.00  0.00    +0.002 A 
ATOM      7  C   UNL     1      -0.300   1.276   1.946  0.00  0.00    +0.001 A 
ATOM      8  C   UNL     1      -0.171  -0.080   2.023  0.00  0.00    +0.010 A 
ATOM      9  C   UNL     1      -0.246  -0.854   0.857  0.00  0.00    +0.003 A 
ATOM     10  C   UNL     1      -0.154  -2.244   0.606  0.00  0.00    -0.010 A 
ATOM     11  C   UNL     1      -0.306  -2.433  -0.733  0.00  0.00    +0.134 A 
BRANCH  11  12
ATOM     12  C   UNL     1      -0.283  -3.730  -1.417  0.00  0.00    +0.403 C 
ATOM     13  O   UNL     1      -0.332  -3.779  -2.639  0.00  0.00    -0.239 OA
ATOM     14  O   UNL     1      -0.215  -4.764  -0.765  0.00  0.00    -0.239 OA
ENDBRANCH  11  12
ENDBRANCH   1  10
BRANCH   1  15
ATOM     15  N   UNL     1      -0.820  -3.087   2.785  0.00  0.00    +0.393 N 
ATOM     16  C   UNL     1      -0.702  -4.205   3.730  0.00  0.00    -0.062 C 
ATOM     17  C   UNL     1      -1.610  -3.954   4.935  0.00  0.00    +0.066 C 
ATOM     18  N   UNL     1      -3.001  -3.822   4.478  0.00  0.00    -0.303 NA
ATOM     19  C   UNL     1      -3.131  -2.722   3.512  0.00  0.00    +0.066 C 
ATOM     20  C   UNL     1      -2.209  -2.983   2.318  0.00  0.00    -0.062 C 
ATOM     21  H   UNL     1      -0.555  -2.229   3.245  0.00  0.00    -0.080 HD
BRANCH  18  22
ATOM     22  C   UNL     1      -3.913  -3.635   5.614  0.00  0.00    +0.125 C 
BRANCH  22  23
ATOM     23  C   UNL     1      -5.360  -3.752   5.130  0.00  0.00    +0.244 C 
BRANCH  23  24
ATOM     24  O   UNL     1      -5.602  -5.081   4.665  0.00  0.00    -0.491 OA
BRANCH  24  25
ATOM     25  C   UNL     1      -6.848  -5.355   4.198  0.00  0.00    +0.121 A 
ATOM     26  C   UNL     1      -7.817  -4.362   4.181  0.00  0.00    +0.047 A 
ATOM     27  C   UNL     1      -9.084  -4.641   3.706  0.00  0.00    +0.023 A 
ATOM     28  C   UNL     1      -9.386  -5.911   3.246  0.00  0.00    +0.041 A 
ATOM     29  C   UNL     1      -8.422  -6.903   3.262  0.00  0.00    +0.023 A 
ATOM     30  C   UNL     1      -7.152  -6.625   3.731  0.00  0.00    +0.047 A 
ATOM     31 CL   UNL     1     -10.979  -6.260   2.650  0.00  0.00    -0.084 Cl
ENDBRANCH  24  25
ENDBRANCH  23  24
ENDBRANCH  22  23
ENDBRANCH  18  22
ENDBRANCH   1  15
BRANCH   1  32
ATOM     32  C   UNL     1       1.501  -3.291   2.096  0.00  0.00    +0.347 C 
ATOM     33  O   UNL     1       1.773  -2.916   3.224  0.00  0.00    -0.248 OA
ATOM     34  O   UNL     1       2.390  -3.641   1.339  0.00  0.00    -0.248 OA
ENDBRANCH   1  32
TORSDOF 8
