REMARK  Name = ZINC05515902
REMARK  3 active torsions:
REMARK  status: ('A' for Active; 'I' for Inactive)
REMARK    1  A    between atoms: C_4  and  C_7
REMARK    2  A    between atoms: C_10  and  C_13
REMARK    3  A    between atoms: C_17  and  N_19
REMARK                            x       y       z     vdW  Elec       q    Type
REMARK                         _______ _______ _______ _____ _____    ______ ____
ROOT
ATOM      1  C   UNL     1      -1.221   2.986   0.029  0.00  0.00    +0.124 C 
ATOM      2  N   UNL     1      -1.184   1.687   0.017  0.00  0.00    -0.178 NA
ATOM      3  N   UNL     1      -0.011   0.966   0.007  0.00  0.00    -0.250 N 
ATOM      4  C   UNL     1       1.228   1.775  -0.000  0.00  0.00    +0.183 C 
ATOM      5  S   UNL     1       0.499   3.465   0.015  0.00  0.00    -0.075 S 
ATOM      6  H   UNL     1       0.002  -0.004   0.002  0.00  0.00    +0.170 HD
ENDROOT
BRANCH   4   7
ATOM      7  C   UNL     1       2.055   1.524   1.234  0.00  0.00    -0.013 A 
ATOM      8  C   UNL     1       1.437   1.174   2.421  0.00  0.00    +0.008 A 
ATOM      9  C   UNL     1       2.195   0.943   3.553  0.00  0.00    +0.022 A 
ATOM     10  C   UNL     1       3.572   1.062   3.500  0.00  0.00    +0.071 A 
ATOM     11  C   UNL     1       4.190   1.411   2.312  0.00  0.00    +0.145 A 
ATOM     12  C   UNL     1       3.432   1.637   1.179  0.00  0.00    +0.040 A 
ATOM     13 CL   UNL     1       4.524   0.772   4.922  0.00  0.00    -0.081 Cl
BRANCH  11  14
ATOM     14  N   UNL     1       5.663   1.538   2.254  0.00  0.00    +0.058 N 
ATOM     15  O   UNL     1       6.207   1.846   1.209  0.00  0.00    -0.126 OA
ATOM     16  O   UNL     1       6.332   1.335   3.252  0.00  0.00    -0.126 OA
ENDBRANCH  11  14
ENDBRANCH   4   7
BRANCH   1  20
ATOM     17  C   UNL     1      -4.639   5.508   0.071  0.00  0.00    +0.000 A 
ATOM     18  C   UNL     1      -4.797   4.133   0.067  0.00  0.00    +0.001 A 
ATOM     19  C   UNL     1      -3.691   3.309   0.053  0.00  0.00    +0.010 A 
ATOM     20  C   UNL     1      -2.411   3.864   0.044  0.00  0.00    +0.008 A 
ATOM     21  C   UNL     1      -2.258   5.251   0.054  0.00  0.00    +0.010 A 
ATOM     22  C   UNL     1      -3.373   6.064   0.062  0.00  0.00    +0.001 A 
ENDBRANCH   1  20
TORSDOF 3
