REMARK  Name = ZINC25496467
REMARK  11 active torsions:
REMARK  status: ('A' for Active; 'I' for Inactive)
REMARK    1  A    between atoms: C_1  and  C_2
REMARK    2  A    between atoms: C_5  and  O_8
REMARK    3  A    between atoms: O_8  and  C_9
REMARK    4  A    between atoms: C_9  and  C_10
REMARK    5  A    between atoms: C_10  and  S_11
REMARK    6  A    between atoms: S_11  and  C_12
REMARK    7  A    between atoms: N_23  and  C_24
REMARK    8  A    between atoms: N_23  and  C_25
REMARK    9  A    between atoms: N_26  and  C_27
REMARK   10  A    between atoms: C_27  and  C_28
REMARK   11  A    between atoms: C_27  and  C_29
REMARK                            x       y       z     vdW  Elec       q    Type
REMARK                         _______ _______ _______ _____ _____    ______ ____
ROOT
ATOM      1  C   UNL     1       3.398   8.177   0.015  0.00  0.00    +0.209 A 
ATOM      2  N   UNL     1       2.156   8.677   0.024  0.00  0.00    -0.209 NA
ATOM      3  C   UNL     1       2.204   9.983   0.036  0.00  0.00    +0.229 A 
ATOM      4  N   UNL     1       3.501  10.356   0.026  0.00  0.00    -0.184 N 
ATOM      5  N   UNL     1       4.255   9.171   0.012  0.00  0.00    -0.136 NA
ATOM      6  C   UNL     1       3.994  11.658   0.028  0.00  0.00    +0.259 A 
ATOM      7  N   UNL     1       3.153  12.685   0.041  0.00  0.00    -0.177 NA
ATOM      8  C   UNL     1       3.623  13.929   0.043  0.00  0.00    +0.221 A 
ATOM      9  N   UNL     1       4.935  14.143   0.032  0.00  0.00    -0.181 NA
ATOM     10  C   UNL     1       5.776  13.114   0.019  0.00  0.00    +0.223 A 
ATOM     11  N   UNL     1       5.304  11.871   0.022  0.00  0.00    -0.177 NA
ATOM     12  N   UNL     1       7.138  13.335   0.008  0.00  0.00    -0.306 N 
ATOM     13  C   UNL     1       7.657  14.705   0.010  0.00  0.00    +0.132 C 
ATOM     14  C   UNL     1       8.064  12.201  -0.007  0.00  0.00    +0.132 C 
ATOM     15  N   UNL     1       2.749  14.997   0.056  0.00  0.00    -0.311 N 
ATOM     16  H   UNL     1       3.139  16.026   0.058  0.00  0.00    +0.149 HD
ENDROOT
BRANCH  15  17
ATOM     17  C   UNL     1       1.304  14.761   0.068  0.00  0.00    +0.067 C 
ATOM     18  C   UNL     1       0.834  14.547   1.508  0.00  0.00    +0.027 C 
ATOM     19  C   UNL     1       0.584  15.972  -0.529  0.00  0.00    +0.027 C 
ENDBRANCH  15  17
BRANCH   1  20
ATOM     20  S   UNL     1       3.814   6.465   0.001  0.00  0.00    -0.081 S 
BRANCH  20  21
ATOM     21  C   UNL     1       2.208   5.623   0.012  0.00  0.00    +0.118 C 
BRANCH  21  22
ATOM     22  C   UNL     1       2.426   4.108   0.001  0.00  0.00    +0.240 C 
BRANCH  22  23
ATOM     23  O   UNL     1       1.160   3.445   0.010  0.00  0.00    -0.491 OA
BRANCH  23  28
ATOM     24  C   UNL     1       1.226  -2.187  -0.021  0.00  0.00    +0.044 C 
ATOM     25  C   UNL     1       1.208  -0.680  -0.013  0.00  0.00    -0.050 A 
ATOM     26  C   UNL     1       0.002  -0.004   0.002  0.00  0.00    +0.007 A 
ATOM     27  C   UNL     1      -0.017   1.377   0.010  0.00  0.00    +0.046 A 
ATOM     28  C   UNL     1       1.176   2.086   0.002  0.00  0.00    +0.121 A 
ATOM     29  C   UNL     1       2.385   1.405  -0.013  0.00  0.00    +0.046 A 
ATOM     30  C   UNL     1       2.398   0.024  -0.021  0.00  0.00    +0.007 A 
ENDBRANCH  23  28
ENDBRANCH  22  23
ENDBRANCH  21  22
ENDBRANCH  20  21
ENDBRANCH   1  20
TORSDOF 6
