REMARK  Name = ZINC42287807
REMARK  7 active torsions:
REMARK  status: ('A' for Active; 'I' for Inactive)
REMARK    1  A    between atoms: C_1  and  C_2
REMARK    2  A    between atoms: C_2  and  C_4
REMARK    3  A    between atoms: C_2  and  N_16
REMARK    4  A    between atoms: C_10  and  C_13
REMARK    5  A    between atoms: N_16  and  C_17
REMARK    6  A    between atoms: C_17  and  C_18
REMARK    7  A    between atoms: C_17  and  C_24
REMARK                            x       y       z     vdW  Elec       q    Type
REMARK                         _______ _______ _______ _____ _____    ______ ____
ROOT
ATOM      1  N   UNL     1       0.528  -0.772   1.151  0.00  0.00    +0.394 N 
ATOM      2  H   UNL     1       1.531  -0.707   1.244  0.00  0.00    -0.083 HD
ATOM      3  H   UNL     1       0.089  -0.370   1.966  0.00  0.00    -0.083 HD
ENDROOT
BRANCH   1   5
ATOM      4  C   UNL     1       0.412   1.446   0.121  0.00  0.00    -0.004 C 
ATOM      5  C   UNL     1       0.098  -0.042  -0.048  0.00  0.00    +0.014 C 
BRANCH   5   6
ATOM      6  C   UNL     1       0.831  -0.576  -1.252  0.00  0.00    +0.201 C 
ATOM      7  O   UNL     1       1.765  -1.336  -1.105  0.00  0.00    -0.277 OA
ATOM      8  N   UNL     1       0.449  -0.210  -2.491  0.00  0.00    -0.302 N 
ATOM      9  C   UNL     1      -0.728   0.647  -2.689  0.00  0.00    +0.108 C 
ATOM     10  C   UNL     1      -1.676  -0.038  -3.678  0.00  0.00    +0.020 C 
ATOM     11  C   UNL     1      -0.914  -0.367  -4.964  0.00  0.00    +0.016 C 
ATOM     12  C   UNL     1       0.233  -1.329  -4.648  0.00  0.00    +0.092 C 
ATOM     13  C   UNL     1       1.205  -0.654  -3.670  0.00  0.00    +0.120 C 
BRANCH  12  14
ATOM     14  C   UNL     1       0.961  -1.678  -5.920  0.00  0.00    +0.215 C 
ATOM     15  O   UNL     1       2.141  -1.419  -6.034  0.00  0.00    -0.276 OA
ATOM     16  N   UNL     1       0.302  -2.278  -6.932  0.00  0.00    -0.329 N 
ATOM     17  H   UNL     1      -0.641  -2.485  -6.841  0.00  0.00    +0.145 HD
ATOM     18  H   UNL     1       0.772  -2.502  -7.750  0.00  0.00    +0.145 HD
ENDBRANCH  12  14
ENDBRANCH   5   6
ENDBRANCH   1   5
BRANCH   1  19
ATOM     19  C   UNL     1       0.139  -2.184   1.031  0.00  0.00    -0.009 C 
BRANCH  19  20
ATOM     20  C   UNL     1       0.697  -2.960   2.196  0.00  0.00    -0.057 A 
ATOM     21  C   UNL     1       0.685  -2.408   3.464  0.00  0.00    +0.002 A 
ATOM     22  C   UNL     1       1.197  -3.120   4.532  0.00  0.00    +0.000 A 
ATOM     23  C   UNL     1       1.721  -4.384   4.334  0.00  0.00    +0.000 A 
ATOM     24  C   UNL     1       1.731  -4.936   3.067  0.00  0.00    +0.000 A 
ATOM     25  C   UNL     1       1.215  -4.226   1.999  0.00  0.00    +0.002 A 
ENDBRANCH  19  20
BRANCH  19  26
ATOM     26  C   UNL     1      -1.364  -2.291   1.030  0.00  0.00    -0.057 A 
ATOM     27  C   UNL     1      -2.115  -1.492   1.871  0.00  0.00    +0.002 A 
ATOM     28  C   UNL     1      -3.494  -1.591   1.870  0.00  0.00    +0.000 A 
ATOM     29  C   UNL     1      -4.122  -2.489   1.027  0.00  0.00    +0.000 A 
ATOM     30  C   UNL     1      -3.371  -3.288   0.185  0.00  0.00    +0.000 A 
ATOM     31  C   UNL     1      -1.992  -3.186   0.183  0.00  0.00    +0.002 A 
ENDBRANCH  19  26
ENDBRANCH   1  19
TORSDOF 6
