REMARK  Name = ZINC36539330
REMARK  11 active torsions:
REMARK  status: ('A' for Active; 'I' for Inactive)
REMARK    1  A    between atoms: C_1  and  C_2
REMARK    2  A    between atoms: C_5  and  S_8
REMARK    3  A    between atoms: S_8  and  C_11
REMARK    4  A    between atoms: C_11  and  N_12
REMARK    5  A    between atoms: C_13  and  C_15
REMARK    6  A    between atoms: C_15  and  C_17
REMARK    7  A    between atoms: C_15  and  N_24
REMARK    8  A    between atoms: C_20  and  O_23
REMARK    9  A    between atoms: N_24  and  C_25
REMARK   10  A    between atoms: C_26  and  C_28
REMARK   11  A    between atoms: C_31  and  N_34
REMARK                            x       y       z     vdW  Elec       q    Type
REMARK                         _______ _______ _______ _____ _____    ______ ____
ROOT
ATOM      1  C   UNL     1       3.219  -4.900   3.536  0.00  0.00    +0.192 C 
ENDROOT
BRANCH   1   2
ATOM      2  C   UNL     1       4.605  -4.330   3.385  0.00  0.00    -0.018 A 
ATOM      3  C   UNL     1       4.836  -2.994   3.659  0.00  0.00    +0.009 A 
ATOM      4  C   UNL     1       6.106  -2.469   3.521  0.00  0.00    +0.046 A 
ATOM      5  C   UNL     1       7.151  -3.282   3.106  0.00  0.00    +0.117 A 
ATOM      6  C   UNL     1       6.917  -4.622   2.832  0.00  0.00    +0.046 A 
ATOM      7  C   UNL     1       5.646  -5.144   2.977  0.00  0.00    +0.009 A 
BRANCH   5   8
ATOM      8  O   UNL     1       8.401  -2.768   2.969  0.00  0.00    -0.507 OA
ATOM      9  H   UNL     1       8.939  -2.822   3.771  0.00  0.00    +0.292 HD
ENDBRANCH   5   8
ENDBRANCH   1   2
BRANCH   1  11
ATOM     10  N   UNL     1       2.611  -4.518   1.169  0.00  0.00    -0.294 N 
ATOM     11  C   UNL     1       2.725  -5.383   2.196  0.00  0.00    +0.239 C 
ATOM     12  O   UNL     1       2.430  -6.549   2.043  0.00  0.00    -0.273 OA
ATOM     13  H   UNL     1       2.847  -3.585   1.291  0.00  0.00    +0.150 HD
BRANCH  10  14
ATOM     14  C   UNL     1       2.131  -4.987  -0.133  0.00  0.00    +0.278 C 
BRANCH  14  15
ATOM     15  S   UNL     1       0.345  -4.700  -0.259  0.00  0.00    +0.013 S 
ATOM     16  O   UNL     1      -0.308  -5.150   0.920  0.00  0.00    -0.168 OA
ATOM     17  O   UNL     1      -0.125  -5.092  -1.541  0.00  0.00    -0.168 OA
BRANCH  15  22
ATOM     18  C   UNL     1      -0.273   1.302  -0.163  0.00  0.00    +0.044 C 
ATOM     19  C   UNL     1      -0.119  -0.197  -0.187  0.00  0.00    -0.050 A 
ATOM     20  C   UNL     1       0.042  -0.856  -1.391  0.00  0.00    +0.005 A 
ATOM     21  C   UNL     1       0.183  -2.231  -1.413  0.00  0.00    +0.027 A 
ATOM     22  C   UNL     1       0.165  -2.947  -0.231  0.00  0.00    +0.090 A 
ATOM     23  C   UNL     1       0.006  -2.288   0.974  0.00  0.00    +0.027 A 
ATOM     24  C   UNL     1      -0.132  -0.912   0.996  0.00  0.00    +0.005 A 
ENDBRANCH  15  22
ENDBRANCH  14  15
ENDBRANCH  10  14
ENDBRANCH   1  11
BRANCH   1  25
ATOM     25  N   UNL     1       3.252  -6.022   4.477  0.00  0.00    -0.285 N 
ATOM     26  C   UNL     1       4.061  -7.206   4.177  0.00  0.00    +0.133 C 
ATOM     27  C   UNL     1       2.540  -5.965   5.620  0.00  0.00    +0.247 C 
ATOM     28  O   UNL     1       1.928  -4.954   5.905  0.00  0.00    -0.270 OA
BRANCH  27  29
ATOM     29  C   UNL     1       2.501  -7.132   6.526  0.00  0.00    +0.037 A 
ATOM     30  C   UNL     1       3.646  -7.907   6.720  0.00  0.00    +0.015 A 
ATOM     31  C   UNL     1       3.603  -8.995   7.567  0.00  0.00    +0.033 A 
ATOM     32  C   UNL     1       2.429  -9.318   8.225  0.00  0.00    +0.126 A 
ATOM     33  C   UNL     1       1.291  -8.554   8.037  0.00  0.00    +0.033 A 
ATOM     34  C   UNL     1       1.322  -7.460   7.197  0.00  0.00    +0.015 A 
BRANCH  32  35
ATOM     35  N   UNL     1       2.391 -10.487   9.132  0.00  0.00    +0.056 N 
ATOM     36  O   UNL     1       3.384 -11.156   9.298  0.00  0.00    -0.126 OA
ATOM     37  O   UNL     1       1.367 -10.771   9.708  0.00  0.00    -0.126 OA
ENDBRANCH  32  35
ENDBRANCH  27  29
ENDBRANCH   1  25
TORSDOF 9
