REMARK  Name = ZINC34863416
REMARK  5 active torsions:
REMARK  status: ('A' for Active; 'I' for Inactive)
REMARK    1  A    between atoms: C_3  and  N_18
REMARK    2  A    between atoms: C_4  and  N_15
REMARK    3  A    between atoms: C_6  and  S_7
REMARK    4  A    between atoms: S_7  and  N_10
REMARK    5  A    between atoms: N_18  and  C_19
REMARK                            x       y       z     vdW  Elec       q    Type
REMARK                         _______ _______ _______ _____ _____    ______ ____
ROOT
ATOM      1  C   UNL     1       0.042   1.419   0.714  0.00  0.00    +0.030 A 
ATOM      2  C   UNL     1       1.248   2.091   0.724  0.00  0.00    +0.027 A 
ATOM      3  C   UNL     1       2.424   1.408   0.442  0.00  0.00    +0.058 A 
ATOM      4  C   UNL     1       2.383   0.050   0.152  0.00  0.00    +0.149 A 
ATOM      5  C   UNL     1       1.174  -0.616   0.144  0.00  0.00    +0.063 A 
ATOM      6  C   UNL     1       0.004   0.067   0.425  0.00  0.00    +0.108 A 
ENDROOT
BRANCH   6   7
ATOM      7  S   UNL     1      -1.537  -0.787   0.415  0.00  0.00    +0.061 S 
ATOM      8  O   UNL     1      -1.243  -2.157   0.651  0.00  0.00    -0.153 OA
ATOM      9  O   UNL     1      -2.419  -0.043   1.244  0.00  0.00    -0.153 OA
BRANCH   7  10
ATOM     10  N   UNL     1      -2.139  -0.691  -1.125  0.00  0.00    -0.177 NA
ATOM     11  C   UNL     1      -3.010   0.376  -1.639  0.00  0.00    +0.109 C 
ATOM     12  C   UNL     1      -3.337   0.033  -3.108  0.00  0.00    +0.018 C 
ATOM     13  C   UNL     1      -3.094  -1.498  -3.169  0.00  0.00    +0.018 C 
ATOM     14  C   UNL     1      -1.887  -1.658  -2.208  0.00  0.00    +0.109 C 
ENDBRANCH   7  10
ENDBRANCH   6   7
BRANCH   4  15
ATOM     15  N   UNL     1       3.634  -0.681  -0.149  0.00  0.00    +0.058 N 
ATOM     16  O   UNL     1       3.613  -1.882  -0.290  0.00  0.00    -0.126 OA
ATOM     17  O   UNL     1       4.676  -0.079  -0.255  0.00  0.00    -0.126 OA
ENDBRANCH   4  15
BRANCH   3  18
ATOM     18  N   UNL     1       3.646   2.085   0.450  0.00  0.00    -0.339 N 
ATOM     19  H   UNL     1       4.475   1.591   0.356  0.00  0.00    +0.146 HD
BRANCH  18  20
ATOM     20  C   UNL     1       3.675   3.542   0.600  0.00  0.00    +0.074 C 
ATOM     21  C   UNL     1       5.060   4.094   0.169  0.00  0.00    +0.026 C 
ATOM     22  C   UNL     1       5.708   4.495   1.558  0.00  0.00    -0.006 C 
ATOM     23  C   UNL     1       4.418   5.207   2.148  0.00  0.00    +0.009 C 
ATOM     24  C   UNL     1       3.488   3.924   2.082  0.00  0.00    +0.013 C 
ATOM     25  C   UNL     1       4.324   3.051   3.007  0.00  0.00    -0.003 C 
ATOM     26  C   UNL     1       5.714   3.151   2.222  0.00  0.00    -0.004 C 
ATOM     27  C   UNL     1       6.652   2.274   2.930  0.00  0.00    +0.004 C 
ATOM     28  C   UNL     1       5.737   1.088   3.391  0.00  0.00    +0.001 C 
ATOM     29  C   UNL     1       4.201   1.533   3.031  0.00  0.00    +0.004 C 
ENDBRANCH  18  20
ENDBRANCH   3  18
TORSDOF 5
