REMARK  Name = ZINC62661310
REMARK  9 active torsions:
REMARK  status: ('A' for Active; 'I' for Inactive)
REMARK    1  A    between atoms: C_1  and  N_2
REMARK    2  A    between atoms: C_4  and  C_11
REMARK    3  A    between atoms: C_11  and  C_13
REMARK    4  A    between atoms: C_13  and  N_14
REMARK    5  A    between atoms: N_14  and  C_15
REMARK    6  A    between atoms: C_15  and  C_16
REMARK    7  A    between atoms: C_16  and  C_17
REMARK    8  A    between atoms: C_20  and  S_23
REMARK    9  A    between atoms: S_23  and  N_26
REMARK                            x       y       z     vdW  Elec       q    Type
REMARK                         _______ _______ _______ _____ _____    ______ ____
ROOT
ATOM      1  N   UNL     1       0.043  -4.287  -3.818  0.00  0.00    +0.384 N 
ATOM      2  H   UNL     1       0.875  -4.795  -3.558  0.00  0.00    -0.085 HD
ATOM      3  H   UNL     1      -0.772  -4.817  -3.550  0.00  0.00    -0.085 HD
ENDROOT
BRANCH   1   4
ATOM      4  C   UNL     1       0.029  -2.988  -3.131  0.00  0.00    -0.002 C 
BRANCH   4   5
ATOM      5  C   UNL     1       0.039  -3.208  -1.640  0.00  0.00    +0.148 C 
ATOM      6  O   UNL     1       0.057  -4.336  -1.193  0.00  0.00    -0.294 OA
BRANCH   5  10
ATOM      7  C   UNL     1      -0.018   1.461   0.010  0.00  0.00    +0.149 C 
ATOM      8  N   UNL     1       0.002  -0.004   0.002  0.00  0.00    -0.349 N 
ATOM      9  C   UNL     1       0.008  -0.763  -1.110  0.00  0.00    +0.097 A 
ATOM     10  C   UNL     1       0.028  -2.097  -0.760  0.00  0.00    +0.041 A 
ATOM     11  C   UNL     1       0.035  -2.135   0.715  0.00  0.00    +0.010 A 
ATOM     12  C   UNL     1       0.024  -0.795   1.133  0.00  0.00    +0.050 A 
ATOM     13  C   UNL     1       0.031  -0.505   2.494  0.00  0.00    +0.026 A 
ATOM     14  C   UNL     1       0.053  -1.530   3.415  0.00  0.00    +0.002 A 
ATOM     15  C   UNL     1       0.069  -2.853   3.000  0.00  0.00    +0.001 A 
ATOM     16  C   UNL     1       0.054  -3.160   1.656  0.00  0.00    +0.011 A 
ENDBRANCH   5  10
ENDBRANCH   4   5
ENDBRANCH   1   4
BRANCH   1  17
ATOM     17  C   UNL     1       0.034  -4.072  -5.271  0.00  0.00    -0.077 C 
BRANCH  17  18
ATOM     18  C   UNL     1       0.049  -5.425  -5.986  0.00  0.00    +0.016 C 
BRANCH  18  19
ATOM     19  C   UNL     1       0.038  -5.205  -7.477  0.00  0.00    -0.049 A 
ATOM     20  C   UNL     1      -1.163  -5.115  -8.154  0.00  0.00    +0.005 A 
ATOM     21  C   UNL     1      -1.173  -4.914  -9.521  0.00  0.00    +0.029 A 
ATOM     22  C   UNL     1       0.020  -4.802 -10.212  0.00  0.00    +0.105 A 
ATOM     23  C   UNL     1       1.221  -4.891  -9.534  0.00  0.00    +0.029 A 
ATOM     24  C   UNL     1       1.231  -5.088  -8.166  0.00  0.00    +0.005 A 
BRANCH  22  25
ATOM     25  S   UNL     1       0.008  -4.546 -11.955  0.00  0.00    +0.056 S 
ATOM     26  O   UNL     1       1.255  -5.020 -12.444  0.00  0.00    -0.153 OA
ATOM     27  O   UNL     1      -1.235  -5.044 -12.430  0.00  0.00    -0.153 OA
BRANCH  25  28
ATOM     28  N   UNL     1      -0.010  -2.910 -12.210  0.00  0.00    -0.204 NA
ATOM     29  H   UNL     1      -0.011  -2.301 -11.454  0.00  0.00    +0.144 HD
ATOM     30  H   UNL     1      -0.018  -2.560 -13.114  0.00  0.00    +0.144 HD
ENDBRANCH  25  28
ENDBRANCH  22  25
ENDBRANCH  18  19
ENDBRANCH  17  18
ENDBRANCH   1  17
TORSDOF 8
