REMARK  Name = ZINC20793829
REMARK  8 active torsions:
REMARK  status: ('A' for Active; 'I' for Inactive)
REMARK    1  A    between atoms: C_1  and  C_2
REMARK    2  A    between atoms: N_4  and  C_5
REMARK    3  A    between atoms: C_6  and  C_14
REMARK    4  A    between atoms: C_14  and  O_16
REMARK    5  A    between atoms: O_16  and  C_17
REMARK    6  A    between atoms: C_17  and  C_18
REMARK    7  A    between atoms: N_20  and  C_21
REMARK    8  A    between atoms: C_24  and  N_28
REMARK                            x       y       z     vdW  Elec       q    Type
REMARK                         _______ _______ _______ _____ _____    ______ ____
ROOT
ATOM      1  C   UNL     1      -6.040   1.680  -0.380  0.00  0.00    +0.342 C 
ATOM      2  O   UNL     1      -6.210   2.885  -0.387  0.00  0.00    -0.245 OA
ENDROOT
BRANCH   1   4
ATOM      3  C   UNL     1      -7.657   0.342  -1.714  0.00  0.00    +0.086 A 
ATOM      4  C   UNL     1      -7.189   0.778  -0.481  0.00  0.00    +0.091 A 
ATOM      5  C   UNL     1      -7.880   0.301   0.706  0.00  0.00    -0.021 A 
ATOM      6  C   UNL     1      -8.925  -0.521   0.471  0.00  0.00    -0.004 A 
ATOM      7  S   UNL     1      -8.993  -0.677  -1.291  0.00  0.00    -0.077 S 
ATOM      8  C   UNL     1      -9.818  -1.159   1.490  0.00  0.00    +0.043 C 
ATOM      9  C   UNL     1      -9.148  -1.036   2.866  0.00  0.00    +0.005 C 
ATOM     10  C   UNL     1      -8.674   0.408   3.056  0.00  0.00    +0.005 C 
ATOM     11  C   UNL     1      -7.494   0.695   2.126  0.00  0.00    +0.037 C 
BRANCH   3  15
ATOM     12  C   UNL     1      -7.233   0.453  -5.441  0.00  0.00    +0.109 C 
ATOM     13  C   UNL     1      -7.761   0.122  -4.069  0.00  0.00    +0.214 C 
ATOM     14  O   UNL     1      -8.716  -0.615  -3.948  0.00  0.00    -0.276 OA
ATOM     15  N   UNL     1      -7.171   0.646  -2.976  0.00  0.00    -0.280 N 
ATOM     16  H   UNL     1      -6.305   1.315  -3.085  0.00  0.00    +0.155 HD
ENDBRANCH   3  15
ENDBRANCH   1   4
BRANCH   1  17
ATOM     17  O   UNL     1      -4.793   1.175  -0.280  0.00  0.00    -0.452 OA
BRANCH  17  18
ATOM     18  C   UNL     1      -3.702   2.128  -0.184  0.00  0.00    +0.328 C 
BRANCH  18  19
ATOM     19  C   UNL     1      -2.395   1.385  -0.081  0.00  0.00    +0.255 C 
ATOM     20  O   UNL     1      -2.384   0.173  -0.088  0.00  0.00    -0.272 OA
ATOM     21  N   UNL     1      -1.238   2.069   0.019  0.00  0.00    -0.281 N 
ATOM     22  H   UNL     1      -1.253   3.165   0.117  0.00  0.00    +0.155 HD
BRANCH  21  23
ATOM     23  C   UNL     1      -0.016   1.385  -0.001  0.00  0.00    +0.052 A 
ATOM     24  C   UNL     1       0.076   0.144  -0.617  0.00  0.00    +0.027 A 
ATOM     25  C   UNL     1       1.283  -0.526  -0.640  0.00  0.00    +0.034 A 
ATOM     26  C   UNL     1       2.401   0.038  -0.052  0.00  0.00    +0.128 A 
ATOM     27  C   UNL     1       2.313   1.274   0.561  0.00  0.00    +0.054 A 
ATOM     28  C   UNL     1       1.108   1.950   0.589  0.00  0.00    +0.064 A 
ATOM     29 CL   UNL     1       0.999   3.502   1.359  0.00  0.00    -0.082 Cl
BRANCH  26  30
ATOM     30  N   UNL     1       3.693  -0.683  -0.080  0.00  0.00    +0.056 N 
ATOM     31  O   UNL     1       3.771  -1.772  -0.620  0.00  0.00    -0.126 OA
ATOM     32  O   UNL     1       4.678  -0.188   0.438  0.00  0.00    -0.126 OA
ENDBRANCH  26  30
ENDBRANCH  21  23
ENDBRANCH  18  19
ENDBRANCH  17  18
ENDBRANCH   1  17
TORSDOF 7
