REMARK  Name = ZINC07698887
REMARK  6 active torsions:
REMARK  status: ('A' for Active; 'I' for Inactive)
REMARK    1  A    between atoms: C_4  and  C_7
REMARK    2  A    between atoms: N_14  and  N_28
REMARK    3  A    between atoms: C_15  and  S_17
REMARK    4  A    between atoms: S_17  and  C_18
REMARK    5  A    between atoms: C_18  and  C_19
REMARK    6  A    between atoms: N_21  and  C_22
REMARK                            x       y       z     vdW  Elec       q    Type
REMARK                         _______ _______ _______ _____ _____    ______ ____
ROOT
ATOM      1  C   UNL     1       9.939   3.280   0.890  0.00  0.00    +0.004 A 
ATOM      2  C   UNL     1       9.796   4.395   0.136  0.00  0.00    +0.056 A 
ATOM      3  S   UNL     1       8.061   4.401  -0.270  0.00  0.00    -0.076 S 
ATOM      4  C   UNL     1       7.570   2.919   0.575  0.00  0.00    +0.117 A 
ATOM      5  C   UNL     1       8.764   2.454   1.153  0.00  0.00    +0.081 A 
ATOM      6  C   UNL     1       8.661   1.248   1.911  0.00  0.00    +0.280 A 
ATOM      7  O   UNL     1       9.646   0.770   2.448  0.00  0.00    -0.265 OA
ATOM      8  N   UNL     1       7.464   0.644   2.024  0.00  0.00    -0.209 N 
ATOM      9  C   UNL     1       6.351   1.165   1.430  0.00  0.00    +0.190 A 
ATOM     10  N   UNL     1       6.419   2.273   0.721  0.00  0.00    -0.215 NA
ENDROOT
BRANCH   1  14
ATOM     11  C   UNL     1      13.738   2.205   2.466  0.00  0.00    +0.000 A 
ATOM     12  C   UNL     1      13.611   2.511   1.123  0.00  0.00    +0.001 A 
ATOM     13  C   UNL     1      12.380   2.861   0.606  0.00  0.00    +0.008 A 
ATOM     14  C   UNL     1      11.264   2.905   1.440  0.00  0.00    -0.017 A 
ATOM     15  C   UNL     1      11.399   2.601   2.794  0.00  0.00    +0.008 A 
ATOM     16  C   UNL     1      12.633   2.247   3.299  0.00  0.00    +0.001 A 
ENDBRANCH   1  14
BRANCH   8  17
ATOM     17  N   UNL     1       7.360  -0.510   2.747  0.00  0.00    -0.293 N 
ATOM     18  H   UNL     1       6.386  -1.011   2.847  0.00  0.00    +0.163 HD
ATOM     19  H   UNL     1       8.251  -0.938   3.230  0.00  0.00    +0.163 HD
ENDBRANCH   8  17
BRANCH   9  20
ATOM     20  S   UNL     1       4.804   0.339   1.606  0.00  0.00    -0.077 S 
BRANCH  20  21
ATOM     21  C   UNL     1       3.745   1.447   0.644  0.00  0.00    +0.173 C 
BRANCH  21  22
ATOM     22  C   UNL     1       2.331   0.926   0.654  0.00  0.00    +0.224 C 
ATOM     23  O   UNL     1       2.066  -0.095   1.254  0.00  0.00    -0.275 OA
ATOM     24  N   UNL     1       1.362   1.593  -0.002  0.00  0.00    -0.312 N 
ATOM     25  H   UNL     1       1.602   2.518  -0.546  0.00  0.00    +0.149 HD
BRANCH  24  26
ATOM     26  C   UNL     1      -0.013   1.086   0.008  0.00  0.00    +0.073 C 
ATOM     27  C   UNL     1      -0.729   1.579   1.267  0.00  0.00    +0.022 C 
ATOM     28  C   UNL     1      -2.164   1.050   1.278  0.00  0.00    +0.002 C 
ATOM     29  C   UNL     1      -2.904   1.556   0.038  0.00  0.00    +0.000 C 
ATOM     30  C   UNL     1      -2.188   1.063  -1.221  0.00  0.00    +0.002 C 
ATOM     31  C   UNL     1      -0.753   1.593  -1.232  0.00  0.00    +0.022 C 
ENDBRANCH  24  26
ENDBRANCH  21  22
ENDBRANCH  20  21
ENDBRANCH   9  20
TORSDOF 6
