REMARK  Name = ZINC36207976
REMARK  17 active torsions:
REMARK  status: ('A' for Active; 'I' for Inactive)
REMARK    1  A    between atoms: C_1  and  C_2
REMARK    2  A    between atoms: C_5  and  C_9
REMARK    3  A    between atoms: C_6  and  C_8
REMARK    4  A    between atoms: C_18  and  C_20
REMARK    5  A    between atoms: C_20  and  N_21
REMARK    6  A    between atoms: N_21  and  C_22
REMARK    7  A    between atoms: N_21  and  C_27
REMARK    8  A    between atoms: C_22  and  C_23
REMARK    9  A    between atoms: C_23  and  C_24
REMARK   10  A    between atoms: C_24  and  C_25
REMARK   11  A    between atoms: C_24  and  C_26
REMARK   12  A    between atoms: C_27  and  C_28
REMARK   13  A    between atoms: C_28  and  C_30
REMARK   14  A    between atoms: C_28  and  O_35
REMARK   15  A    between atoms: C_30  and  O_31
REMARK   16  A    between atoms: O_31  and  C_32
REMARK   17  A    between atoms: C_32  and  C_33
REMARK                            x       y       z     vdW  Elec       q    Type
REMARK                         _______ _______ _______ _____ _____    ______ ____
ROOT
ATOM      1  C   UNL     1       2.196  -6.176   1.550  0.00  0.00    +0.004 A 
ATOM      2  C   UNL     1       2.963  -7.231   1.183  0.00  0.00    +0.056 A 
ATOM      3  S   UNL     1       1.804  -8.585   1.134  0.00  0.00    -0.076 S 
ATOM      4  C   UNL     1       0.333  -7.712   1.603  0.00  0.00    +0.116 A 
ATOM      5  C   UNL     1       0.775  -6.392   1.792  0.00  0.00    +0.080 A 
ATOM      6  C   UNL     1      -0.230  -5.453   2.189  0.00  0.00    +0.260 A 
ATOM      7  O   UNL     1       0.056  -4.282   2.373  0.00  0.00    -0.267 OA
ATOM      8  N   UNL     1      -1.494  -5.882   2.356  0.00  0.00    -0.312 N 
ATOM      9  H   UNL     1      -2.179  -5.249   2.625  0.00  0.00    +0.170 HD
ATOM     10  C   UNL     1      -1.831  -7.181   2.155  0.00  0.00    +0.094 A 
ATOM     11  N   UNL     1      -0.939  -8.060   1.782  0.00  0.00    -0.229 NA
ENDROOT
BRANCH   1  16
ATOM     12  C   UNL     1       4.513  -0.940   2.164  0.00  0.00    +0.044 C 
ATOM     13  C   UNL     1       3.906  -2.311   2.003  0.00  0.00    -0.050 A 
ATOM     14  C   UNL     1       3.872  -2.907   0.755  0.00  0.00    +0.004 A 
ATOM     15  C   UNL     1       3.318  -4.161   0.602  0.00  0.00    +0.009 A 
ATOM     16  C   UNL     1       2.793  -4.828   1.708  0.00  0.00    -0.014 A 
ATOM     17  C   UNL     1       2.830  -4.223   2.963  0.00  0.00    -0.042 A 
ATOM     18  C   UNL     1       3.392  -2.970   3.105  0.00  0.00    +0.007 A 
ATOM     19  C   UNL     1       2.265  -4.937   4.163  0.00  0.00    +0.044 C 
ENDBRANCH   1  16
BRANCH  10  20
ATOM     20  C   UNL     1      -3.260  -7.616   2.353  0.00  0.00    -0.003 C 
BRANCH  20  21
ATOM     21  N   UNL     1      -3.411  -9.014   1.927  0.00  0.00    +0.386 N 
ATOM     22  H   UNL     1      -2.723  -9.584   2.396  0.00  0.00    -0.081 HD
BRANCH  21  23
ATOM     23  C   UNL     1      -3.216  -9.107   0.474  0.00  0.00    -0.078 C 
BRANCH  23  24
ATOM     24  C   UNL     1      -4.338  -8.351  -0.240  0.00  0.00    -0.016 C 
BRANCH  24  25
ATOM     25  C   UNL     1      -4.062  -8.331  -1.745  0.00  0.00    -0.019 C 
ATOM     26  C   UNL     1      -4.122  -9.758  -2.293  0.00  0.00    +0.007 C 
ATOM     27  C   UNL     1      -5.115  -7.470  -2.445  0.00  0.00    +0.007 C 
ENDBRANCH  24  25
ENDBRANCH  23  24
ENDBRANCH  21  23
BRANCH  21  28
ATOM     28  C   UNL     1      -4.757  -9.488   2.272  0.00  0.00    -0.044 C 
BRANCH  28  29
ATOM     29  C   UNL     1      -4.863 -10.985   1.974  0.00  0.00    +0.124 C 
BRANCH  29  30
ATOM     30  O   UNL     1      -4.776 -11.197   0.563  0.00  0.00    -0.391 OA
ATOM     31  H   UNL     1      -5.470 -10.755   0.056  0.00  0.00    +0.210 HD
ENDBRANCH  29  30
BRANCH  29  32
ATOM     32  C   UNL     1      -6.203 -11.514   2.487  0.00  0.00    +0.190 C 
BRANCH  32  33
ATOM     33  O   UNL     1      -6.253 -12.932   2.314  0.00  0.00    -0.365 OA
BRANCH  33  34
ATOM     34  C   UNL     1      -7.471 -13.530   2.764  0.00  0.00    +0.248 C 
BRANCH  34  35
ATOM     35  C   UNL     1      -7.416 -14.984   2.540  0.00  0.00    -0.077 C 
ATOM     36  C   UNL     1      -7.372 -16.143   2.361  0.00  0.00    +0.006 C 
ENDBRANCH  34  35
ENDBRANCH  33  34
ENDBRANCH  32  33
ENDBRANCH  29  32
ENDBRANCH  28  29
ENDBRANCH  21  28
ENDBRANCH  20  21
ENDBRANCH  10  20
TORSDOF 13
