REMARK  Name = ZINC44714066
REMARK  9 active torsions:
REMARK  status: ('A' for Active; 'I' for Inactive)
REMARK    1  A    between atoms: C_1  and  C_2
REMARK    2  A    between atoms: C_3  and  C_9
REMARK    3  A    between atoms: C_4  and  C_8
REMARK    4  A    between atoms: C_9  and  C_11
REMARK    5  A    between atoms: C_9  and  N_12
REMARK    6  A    between atoms: C_13  and  C_15
REMARK    7  A    between atoms: C_26  and  C_28
REMARK    8  A    between atoms: C_33  and  S_34
REMARK    9  A    between atoms: S_34  and  C_35
REMARK                            x       y       z     vdW  Elec       q    Type
REMARK                         _______ _______ _______ _____ _____    ______ ____
ROOT
ATOM      1  C   UNL     1      -3.218  -1.609  -4.858  0.00  0.00    +0.100 C 
ATOM      2  C   UNL     1      -2.324  -2.777  -5.330  0.00  0.00    +0.121 C 
ATOM      3  N   UNL     1      -2.763  -3.048  -6.719  0.00  0.00    -0.296 N 
ATOM      4  C   UNL     1      -3.009  -1.705  -7.296  0.00  0.00    +0.115 C 
ATOM      5  C   UNL     1      -3.666  -0.907  -6.152  0.00  0.00    -0.004 C 
ATOM      6  C   UNL     1      -3.174   0.537  -6.167  0.00  0.00    -0.010 C 
ATOM      7  C   UNL     1      -3.680   1.231  -7.434  0.00  0.00    -0.082 C 
ATOM      8  N   UNL     1      -5.147   1.192  -7.463  0.00  0.00    +0.379 N 
ATOM      9  C   UNL     1      -5.610  -0.199  -7.543  0.00  0.00    -0.082 C 
ATOM     10  C   UNL     1      -5.185  -0.953  -6.280  0.00  0.00    -0.010 C 
ATOM     11  C   UNL     1      -2.906  -4.245  -7.322  0.00  0.00    +0.249 C 
ATOM     12  O   UNL     1      -3.183  -4.301  -8.504  0.00  0.00    -0.270 OA
ATOM     13  H   UNL     1      -5.510   1.618  -6.623  0.00  0.00    -0.086 HD
ATOM     14  H   UNL     1      -5.480   1.702  -8.267  0.00  0.00    -0.086 HD
ENDROOT
BRANCH  11  15
ATOM     15  C   UNL     1      -2.727  -5.486  -6.547  0.00  0.00    +0.069 A 
ATOM     16  C   UNL     1      -1.762  -5.563  -5.536  0.00  0.00    +0.017 A 
ATOM     17  C   UNL     1      -1.634  -6.750  -4.838  0.00  0.00    +0.020 A 
ATOM     18  C   UNL     1      -2.454  -7.819  -5.154  0.00  0.00    +0.112 A 
ATOM     19  N   UNL     1      -3.357  -7.728  -6.110  0.00  0.00    -0.248 NA
ATOM     20  C   UNL     1      -3.526  -6.614  -6.806  0.00  0.00    +0.114 A 
BRANCH  20  21
ATOM     21  S   UNL     1      -4.754  -6.546  -8.068  0.00  0.00    -0.069 S 
BRANCH  21  22
ATOM     22  C   UNL     1      -5.587  -8.093  -7.935  0.00  0.00    +0.014 A 
ATOM     23  C   UNL     1      -6.754  -8.194  -7.188  0.00  0.00    +0.015 A 
ATOM     24  C   UNL     1      -7.404  -9.407  -7.086  0.00  0.00    +0.001 A 
ATOM     25  C   UNL     1      -6.896 -10.522  -7.728  0.00  0.00    +0.000 A 
ATOM     26  C   UNL     1      -5.734 -10.426  -8.472  0.00  0.00    +0.001 A 
ATOM     27  C   UNL     1      -5.082  -9.214  -8.583  0.00  0.00    +0.015 A 
ENDBRANCH  21  22
ENDBRANCH  20  21
ENDBRANCH  11  15
BRANCH   1  29
ATOM     28  N   UNL     1      -3.069   0.158  -3.134  0.00  0.00    -0.308 N 
ATOM     29  C   UNL     1      -2.430  -0.661  -3.993  0.00  0.00    +0.219 C 
ATOM     30  O   UNL     1      -1.220  -0.634  -4.069  0.00  0.00    -0.275 OA
ATOM     31  H   UNL     1      -4.037   0.136  -3.073  0.00  0.00    +0.149 HD
BRANCH  28  32
ATOM     32  C   UNL     1      -2.303   1.080  -2.292  0.00  0.00    +0.104 C 
ATOM     33  C   UNL     1      -1.754   0.326  -1.078  0.00  0.00    +0.033 C 
BRANCH  32  36
ATOM     34  C   UNL     1      -5.199   0.764  -1.151  0.00  0.00    +0.065 C 
ATOM     35  C   UNL     1      -4.452   2.061  -1.332  0.00  0.00    +0.038 A 
ATOM     36  C   UNL     1      -3.199   2.198  -1.826  0.00  0.00    +0.015 A 
ATOM     37  C   UNL     1      -2.884   3.560  -1.827  0.00  0.00    +0.065 A 
ATOM     38  N   UNL     1      -3.910   4.218  -1.350  0.00  0.00    -0.179 NA
ATOM     39  N   UNL     1      -4.914   3.293  -1.036  0.00  0.00    -0.281 N 
ATOM     40  H   UNL     1      -5.787   3.502  -0.668  0.00  0.00    +0.189 HD
ATOM     41  C   UNL     1      -1.586   4.166  -2.294  0.00  0.00    +0.068 C 
ENDBRANCH  32  36
ENDBRANCH  28  32
ENDBRANCH   1  29
TORSDOF 6
