REMARK  Name = ZINC26873888
REMARK  9 active torsions:
REMARK  status: ('A' for Active; 'I' for Inactive)
REMARK    1  A    between atoms: C_1  and  N_2
REMARK    2  A    between atoms: N_5  and  C_15
REMARK    3  A    between atoms: C_6  and  C_9
REMARK    4  A    between atoms: C_15  and  C_16
REMARK    5  A    between atoms: C_16  and  C_17
REMARK    6  A    between atoms: C_17  and  N_18
REMARK    7  A    between atoms: N_18  and  S_19
REMARK    8  A    between atoms: S_19  and  C_22
REMARK    9  A    between atoms: C_25  and  C_28
REMARK                            x       y       z     vdW  Elec       q    Type
REMARK                         _______ _______ _______ _____ _____    ______ ____
ROOT
ATOM      1  C   UNL     1      -0.068   1.448   2.431  0.00  0.00    -0.077 C 
ENDROOT
BRANCH   1   6
ATOM      2  C   UNL     1      -1.451   4.008  -2.410  0.00  0.00    -0.096 C 
ATOM      3  N   UNL     1      -0.812   3.478  -1.198  0.00  0.00    +0.376 N 
ATOM      4  C   UNL     1      -1.501   3.953   0.011  0.00  0.00    -0.098 C 
ATOM      5  C   UNL     1      -0.759   3.445   1.250  0.00  0.00    -0.097 C 
ATOM      6  N   UNL     1      -0.707   1.977   1.219  0.00  0.00    +0.382 N 
ATOM      7  C   UNL     1      -0.018   1.503   0.010  0.00  0.00    -0.055 C 
ATOM      8  C   UNL     1      -0.759   2.010  -1.229  0.00  0.00    -0.090 C 
ATOM      9  H   UNL     1      -1.740   1.601   1.191  0.00  0.00    -0.081 HD
ATOM     10  H   UNL     1       0.221   3.855  -1.170  0.00  0.00    -0.082 HD
BRANCH   7  11
ATOM     11  C   UNL     1       0.002  -0.004   0.002  0.00  0.00    -0.063 A 
ATOM     12  C   UNL     1      -1.107  -0.713   0.424  0.00  0.00    +0.002 A 
ATOM     13  C   UNL     1      -1.090  -2.095   0.411  0.00  0.00    +0.000 A 
ATOM     14  C   UNL     1       0.040  -2.768  -0.012  0.00  0.00    +0.000 A 
ATOM     15  C   UNL     1       1.151  -2.060  -0.429  0.00  0.00    +0.000 A 
ATOM     16  C   UNL     1       1.132  -0.678  -0.422  0.00  0.00    +0.002 A 
ENDBRANCH   7  11
ENDBRANCH   1   6
BRANCH   1  17
ATOM     17  C   UNL     1      -0.948   1.752   3.645  0.00  0.00    -0.002 C 
BRANCH  17  18
ATOM     18  C   UNL     1      -0.282   1.200   4.908  0.00  0.00    +0.104 C 
BRANCH  18  19
ATOM     19  N   UNL     1      -1.124   1.492   6.071  0.00  0.00    -0.190 NA
ATOM     20  H   UNL     1      -1.822   2.342   6.046  0.00  0.00    +0.148 HD
BRANCH  19  21
ATOM     21  S   UNL     1      -0.857   0.707   7.504  0.00  0.00    +0.058 S 
ATOM     22  O   UNL     1      -1.805   1.219   8.431  0.00  0.00    -0.153 OA
ATOM     23  O   UNL     1      -0.762  -0.678   7.198  0.00  0.00    -0.153 OA
BRANCH  21  24
ATOM     24  C   UNL     1       0.732   1.204   8.082  0.00  0.00    +0.105 A 
ATOM     25  C   UNL     1       1.854   0.481   7.718  0.00  0.00    +0.030 A 
ATOM     26  C   UNL     1       3.101   0.867   8.163  0.00  0.00    +0.021 A 
ATOM     27  C   UNL     1       3.228   1.985   8.991  0.00  0.00    +0.052 A 
ATOM     28  C   UNL     1       2.091   2.707   9.358  0.00  0.00    +0.021 A 
ATOM     29  C   UNL     1       0.850   2.312   8.902  0.00  0.00    +0.030 A 
BRANCH  27  30
ATOM     30  C   UNL     1       4.519   2.389   9.461  0.00  0.00    +0.099 C 
ATOM     31  N   UNL     1       5.543   2.709   9.834  0.00  0.00    -0.191 NA
ENDBRANCH  27  30
ENDBRANCH  21  24
ENDBRANCH  19  21
ENDBRANCH  18  19
ENDBRANCH  17  18
ENDBRANCH   1  17
TORSDOF 8
