REMARK  Name = ZINC03594742
REMARK  6 active torsions:
REMARK  status: ('A' for Active; 'I' for Inactive)
REMARK    1  A    between atoms: C_1  and  C_2
REMARK    2  A    between atoms: C_2  and  C_3
REMARK    3  A    between atoms: C_2  and  C_4
REMARK    4  A    between atoms: C_4  and  N_5
REMARK    5  A    between atoms: C_9  and  C_11
REMARK    6  A    between atoms: C_11  and  N_12
REMARK                            x       y       z     vdW  Elec       q    Type
REMARK                         _______ _______ _______ _____ _____    ______ ____
ROOT
ATOM      1  N   UNL     1      -1.273  -1.303  -1.359  0.00  0.00    -0.215 N 
ATOM      2  C   UNL     1      -0.155  -0.544  -1.395  0.00  0.00    +0.251 C 
ATOM      3  O   UNL     1       0.566  -0.342  -2.348  0.00  0.00    -0.272 OA
ATOM      4  C   UNL     1       0.002  -0.004   0.002  0.00  0.00    +0.138 C 
ATOM      5  C   UNL     1      -0.019   1.530   0.011  0.00  0.00    +0.045 C 
ATOM      6  C   UNL     1       1.487   1.876  -0.002  0.00  0.00    +0.038 C 
ATOM      7  C   UNL     1       2.177   0.676   0.613  0.00  0.00    -0.042 A 
ATOM      8  C   UNL     1       1.317  -0.410   0.610  0.00  0.00    -0.012 A 
ATOM      9  C   UNL     1       1.744  -1.624   1.124  0.00  0.00    +0.006 A 
ATOM     10  C   UNL     1       3.018  -1.753   1.640  0.00  0.00    +0.000 A 
ATOM     11  C   UNL     1       3.874  -0.668   1.644  0.00  0.00    +0.000 A 
ATOM     12  C   UNL     1       3.453   0.543   1.131  0.00  0.00    +0.004 A 
ATOM     13  N   UNL     1      -1.133  -0.558   0.742  0.00  0.00    -0.281 N 
ATOM     14  C   UNL     1      -1.826  -1.307  -0.139  0.00  0.00    +0.310 C 
ATOM     15  O   UNL     1      -2.838  -1.919   0.142  0.00  0.00    -0.252 OA
ATOM     16  H   UNL     1      -1.344  -0.414   1.678  0.00  0.00    +0.152 HD
ENDROOT
BRANCH   1  17
ATOM     17  C   UNL     1      -1.813  -2.029  -2.511  0.00  0.00    +0.214 C 
BRANCH  17  22
ATOM     18  N   UNL     1      -1.390  -6.358  -4.560  0.00  0.00    -0.299 N 
ATOM     19  C   UNL     1      -1.037  -5.504  -3.579  0.00  0.00    +0.306 C 
ATOM     20  O   UNL     1      -0.238  -5.849  -2.730  0.00  0.00    -0.252 OA
ATOM     21  N   UNL     1      -1.570  -4.266  -3.538  0.00  0.00    -0.239 N 
ATOM     22  C   UNL     1      -1.217  -3.413  -2.557  0.00  0.00    +0.238 C 
ATOM     23  O   UNL     1      -0.420  -3.757  -1.711  0.00  0.00    -0.274 OA
ATOM     24  H   UNL     1      -2.027  -6.082  -5.237  0.00  0.00    +0.150 HD
ATOM     25  H   UNL     1      -2.207  -3.991  -4.215  0.00  0.00    +0.159 HD
BRANCH  18  26
ATOM     26  C   UNL     1      -0.810  -7.702  -4.604  0.00  0.00    +0.108 C 
BRANCH  26  28
ATOM     27  C   UNL     1      -0.917  -7.781  -7.099  0.00  0.00    +0.009 C 
ATOM     28  C   UNL     1      -1.374  -8.461  -5.807  0.00  0.00    -0.000 C 
ATOM     29  C   UNL     1      -0.866  -9.905  -5.783  0.00  0.00    +0.009 C 
ENDBRANCH  26  28
ENDBRANCH  18  26
ENDBRANCH  17  22
ENDBRANCH   1  17
TORSDOF 4
