REMARK  Name = ZINC07988418
REMARK  6 active torsions:
REMARK  status: ('A' for Active; 'I' for Inactive)
REMARK    1  A    between atoms: C_1  and  C_2
REMARK    2  A    between atoms: C_2  and  C_3
REMARK    3  A    between atoms: C_2  and  C_4
REMARK    4  A    between atoms: C_7  and  C_10
REMARK    5  A    between atoms: C_16  and  C_18
REMARK    6  A    between atoms: C_18  and  N_19
REMARK                            x       y       z     vdW  Elec       q    Type
REMARK                         _______ _______ _______ _____ _____    ______ ____
ROOT
ATOM      1  C   UNL     1       3.612   2.695  -0.019  0.00  0.00    +0.134 A 
ATOM      2  N   UNL     1       2.544   3.482  -0.004  0.00  0.00    -0.140 NA
ATOM      3  N   UNL     1       1.384   2.985  -0.001  0.00  0.00    -0.125 NA
ATOM      4  C   UNL     1       1.183   1.677  -0.000  0.00  0.00    +0.188 A 
ATOM      5  S   UNL     1       2.820   1.091  -0.019  0.00  0.00    -0.030 S 
ATOM      6  N   UNL     1      -0.011   0.966   0.007  0.00  0.00    -0.262 N 
ATOM      7  C   UNL     1      -1.187   1.624   0.017  0.00  0.00    +0.239 C 
ATOM      8  O   UNL     1      -1.204   2.837   0.023  0.00  0.00    -0.273 OA
ATOM      9  H   UNL     1       0.002  -0.004   0.002  0.00  0.00    +0.157 HD
ENDROOT
BRANCH   1  13
ATOM     10  C   UNL     1       7.739   3.697  -0.055  0.00  0.00    -0.045 A 
ATOM     11  C   UNL     1       6.787   4.701  -0.040  0.00  0.00    +0.004 A 
ATOM     12  C   UNL     1       5.444   4.382  -0.028  0.00  0.00    +0.011 A 
ATOM     13  C   UNL     1       5.048   3.043  -0.031  0.00  0.00    +0.009 A 
ATOM     14  C   UNL     1       6.014   2.036  -0.040  0.00  0.00    +0.011 A 
ATOM     15  C   UNL     1       7.353   2.369  -0.058  0.00  0.00    +0.004 A 
BRANCH  10  17
ATOM     16  C   UNL     1       9.881   3.466   1.172  0.00  0.00    +0.012 C 
ATOM     17  C   UNL     1       9.204   4.053  -0.067  0.00  0.00    +0.013 C 
ATOM     18  C   UNL     1       9.857   3.479  -1.326  0.00  0.00    +0.012 C 
ENDBRANCH  10  17
ENDBRANCH   1  13
BRANCH   7  19
ATOM     19  C   UNL     1      -2.482   0.853   0.018  0.00  0.00    +0.224 C 
BRANCH  19  20
ATOM     20  N   UNL     1      -3.608   1.789   0.029  0.00  0.00    -0.265 N 
ATOM     21  C   UNL     1      -4.241   2.306   1.159  0.00  0.00    +0.091 A 
ATOM     22  C   UNL     1      -4.046   2.134   2.521  0.00  0.00    +0.030 A 
ATOM     23  C   UNL     1      -4.856   2.800   3.420  0.00  0.00    +0.002 A 
ATOM     24  C   UNL     1      -5.859   3.639   2.965  0.00  0.00    +0.004 A 
ATOM     25  C   UNL     1      -6.053   3.821   1.610  0.00  0.00    +0.048 A 
ATOM     26  C   UNL     1      -5.249   3.153   0.700  0.00  0.00    +0.157 A 
ATOM     27  O   UNL     1      -5.213   3.124  -0.655  0.00  0.00    -0.407 OA
ATOM     28  C   UNL     1      -4.227   2.305  -1.052  0.00  0.00    +0.422 A 
ATOM     29  O   UNL     1      -3.936   2.064  -2.208  0.00  0.00    -0.223 OA
ENDBRANCH  19  20
ENDBRANCH   7  19
TORSDOF 4
