REMARK  Name = ZINC09720510
REMARK  9 active torsions:
REMARK  status: ('A' for Active; 'I' for Inactive)
REMARK    1  A    between atoms: C_1  and  N_2
REMARK    2  A    between atoms: N_2  and  C_3
REMARK    3  A    between atoms: N_2  and  C_4
REMARK    4  A    between atoms: C_7  and  C_10
REMARK    5  A    between atoms: N_11  and  N_12
REMARK    6  A    between atoms: C_13  and  C_15
REMARK    7  A    between atoms: C_15  and  O_16
REMARK    8  A    between atoms: O_16  and  C_17
REMARK    9  A    between atoms: C_20  and  N_24
REMARK                            x       y       z     vdW  Elec       q    Type
REMARK                         _______ _______ _______ _____ _____    ______ ____
ROOT
ATOM      1  N   UNL     1       2.088   4.348   0.013  0.00  0.00    -0.204 N 
ATOM      2  C   UNL     1       1.031   3.512   0.032  0.00  0.00    +0.270 C 
ATOM      3  O   UNL     1      -0.096   3.960   0.059  0.00  0.00    -0.270 OA
ATOM      4  H   UNL     1       2.990   3.989  -0.009  0.00  0.00    +0.177 HD
ENDROOT
BRANCH   1   6
ATOM      5  C   UNL     1       2.904   6.539   0.004  0.00  0.00    +0.138 C 
ATOM      6  N   UNL     1       1.886   5.734   0.023  0.00  0.00    -0.188 NA
BRANCH   5  10
ATOM      7  C   UNL     1       2.291  10.739   0.036  0.00  0.00    +0.029 A 
ATOM      8  C   UNL     1       3.584  10.227   0.006  0.00  0.00    +0.024 A 
ATOM      9  C   UNL     1       3.787   8.865  -0.004  0.00  0.00    +0.011 A 
ATOM     10  C   UNL     1       2.691   7.997   0.016  0.00  0.00    -0.005 A 
ATOM     11  C   UNL     1       1.393   8.515   0.041  0.00  0.00    +0.011 A 
ATOM     12  C   UNL     1       1.198   9.879   0.055  0.00  0.00    +0.024 A 
BRANCH   7  14
ATOM     13  C   UNL     1       3.235  13.026   0.151  0.00  0.00    +0.129 C 
ATOM     14  N   UNL     1       2.089  12.120   0.046  0.00  0.00    -0.336 N 
ATOM     15  C   UNL     1       0.732  12.662  -0.050  0.00  0.00    +0.129 C 
ENDBRANCH   7  14
ENDBRANCH   5  10
ENDBRANCH   1   6
BRANCH   2  16
ATOM     16  C   UNL     1       1.249   2.021   0.021  0.00  0.00    +0.326 C 
BRANCH  16  17
ATOM     17  O   UNL     1      -0.015   1.355   0.045  0.00  0.00    -0.482 OA
BRANCH  17  18
ATOM     18  C   UNL     1       0.004  -0.004   0.039  0.00  0.00    +0.135 A 
ATOM     19  C   UNL     1       1.213  -0.683   0.009  0.00  0.00    +0.049 A 
ATOM     20  C   UNL     1       1.230  -2.064   0.003  0.00  0.00    +0.036 A 
ATOM     21  C   UNL     1       0.042  -2.771   0.026  0.00  0.00    +0.127 A 
ATOM     22  C   UNL     1      -1.166  -2.098   0.056  0.00  0.00    +0.051 A 
ATOM     23  C   UNL     1      -1.188  -0.716   0.068  0.00  0.00    +0.062 A 
ATOM     24 BR   UNL     1      -2.839   0.204   0.116  0.00  0.00    -0.046 Br
BRANCH  21  25
ATOM     25  N   UNL     1       0.062  -4.251   0.019  0.00  0.00    +0.056 N 
ATOM     26  O   UNL     1       1.125  -4.845  -0.007  0.00  0.00    -0.126 OA
ATOM     27  O   UNL     1      -0.983  -4.875   0.039  0.00  0.00    -0.126 OA
ENDBRANCH  21  25
ENDBRANCH  17  18
ENDBRANCH  16  17
ENDBRANCH   2  16
TORSDOF 7
