REMARK  Name = ZINC09539722
REMARK  6 active torsions:
REMARK  status: ('A' for Active; 'I' for Inactive)
REMARK    1  A    between atoms: C_5  and  C_15
REMARK    2  A    between atoms: C_10  and  N_12
REMARK    3  A    between atoms: C_15  and  O_17
REMARK    4  A    between atoms: O_17  and  C_18
REMARK    5  A    between atoms: C_18  and  C_19
REMARK    6  A    between atoms: N_21  and  C_22
REMARK                            x       y       z     vdW  Elec       q    Type
REMARK                         _______ _______ _______ _____ _____    ______ ____
ROOT
ATOM      1  C   UNL     1       2.426   5.639   0.011  0.00  0.00    +0.347 C 
ATOM      2  O   UNL     1       3.494   6.220   0.002  0.00  0.00    -0.245 OA
ENDROOT
BRANCH   1   7
ATOM      3  C   UNL     1       0.002  -0.004   0.002  0.00  0.00    +0.003 A 
ATOM      4  C   UNL     1      -0.016   1.361   0.009  0.00  0.00    +0.012 A 
ATOM      5  C   UNL     1       1.190   2.076   0.002  0.00  0.00    +0.021 A 
ATOM      6  C   UNL     1       1.179   3.494   0.011  0.00  0.00    +0.033 A 
ATOM      7  C   UNL     1       2.389   4.169   0.003  0.00  0.00    +0.144 A 
ATOM      8  C   UNL     1       3.633   3.390  -0.015  0.00  0.00    +0.352 A 
ATOM      9  O   UNL     1       4.707   3.962  -0.023  0.00  0.00    -0.244 OA
ATOM     10  O   UNL     1       3.588   2.047  -0.022  0.00  0.00    -0.419 OA
ATOM     11  C   UNL     1       2.414   1.381  -0.014  0.00  0.00    +0.169 A 
ATOM     12  C   UNL     1       2.406  -0.009  -0.022  0.00  0.00    +0.169 A 
ATOM     13  C   UNL     1       1.208  -0.692  -0.014  0.00  0.00    +0.036 A 
BRANCH  12  14
ATOM     14  N   UNL     1       3.683  -0.756  -0.040  0.00  0.00    +0.060 N 
ATOM     15  O   UNL     1       3.676  -1.974  -0.047  0.00  0.00    -0.126 OA
ATOM     16  O   UNL     1       4.742  -0.153  -0.047  0.00  0.00    -0.126 OA
ENDBRANCH  12  14
ENDBRANCH   1   7
BRANCH   1  17
ATOM     17  O   UNL     1       1.276   6.342   0.027  0.00  0.00    -0.452 OA
BRANCH  17  18
ATOM     18  C   UNL     1       1.389   7.790   0.034  0.00  0.00    +0.328 C 
BRANCH  18  19
ATOM     19  C   UNL     1       0.011   8.401   0.052  0.00  0.00    +0.251 C 
ATOM     20  O   UNL     1      -0.969   7.687   0.059  0.00  0.00    -0.272 OA
ATOM     21  N   UNL     1      -0.132   9.741   0.061  0.00  0.00    -0.307 N 
ATOM     22  H   UNL     1       0.652  10.312   0.056  0.00  0.00    +0.149 HD
BRANCH  21  23
ATOM     23  C   UNL     1      -1.471  10.335   0.079  0.00  0.00    +0.035 C 
ATOM     24  C   UNL     1      -2.243   9.889  -1.164  0.00  0.00    +0.029 C 
ATOM     25  C   UNL     1      -3.641  10.510  -1.145  0.00  0.00    -0.008 C 
ATOM     26  C   UNL     1      -3.523  12.035  -1.138  0.00  0.00    +0.007 C 
ATOM     27  C   UNL     1      -2.751  12.481   0.105  0.00  0.00    -0.008 C 
ATOM     28  C   UNL     1      -1.352  11.860   0.087  0.00  0.00    +0.029 C 
ATOM     29  C   UNL     1      -3.495  12.021   1.360  0.00  0.00    +0.007 C 
ATOM     30  C   UNL     1      -3.614  10.496   1.353  0.00  0.00    -0.008 C 
ATOM     31  C   UNL     1      -4.386  10.050   0.109  0.00  0.00    +0.007 C 
ATOM     32  C   UNL     1      -2.216   9.875   1.334  0.00  0.00    +0.029 C 
ENDBRANCH  21  23
ENDBRANCH  18  19
ENDBRANCH  17  18
ENDBRANCH   1  17
TORSDOF 6
