REMARK  Name = ZINC43553941
REMARK  12 active torsions:
REMARK  status: ('A' for Active; 'I' for Inactive)
REMARK    1  A    between atoms: C_1  and  C_2
REMARK    2  A    between atoms: C_5  and  O_29
REMARK    3  A    between atoms: C_7  and  C_26
REMARK    4  A    between atoms: C_7  and  C_27
REMARK    5  A    between atoms: C_12  and  O_25
REMARK    6  A    between atoms: C_14  and  C_16
REMARK    7  A    between atoms: C_16  and  C_17
REMARK    8  A    between atoms: C_27  and  O_28
REMARK    9  A    between atoms: O_29  and  C_30
REMARK   10  A    between atoms: N_32  and  C_33
REMARK   11  A    between atoms: C_37  and  S_39
REMARK   12  A    between atoms: S_39  and  C_40
REMARK                            x       y       z     vdW  Elec       q    Type
REMARK                         _______ _______ _______ _____ _____    ______ ____
ROOT
ATOM      1  C   UNL     1       0.509   0.944  -0.781  0.00  0.00    +0.012 C 
ATOM      2  C   UNL     1       0.195  -0.551  -0.608  0.00  0.00    -0.023 C 
ATOM      3  C   UNL     1      -1.305  -0.751  -0.833  0.00  0.00    +0.011 C 
ATOM      4  C   UNL     1      -2.087  -0.016   0.257  0.00  0.00    +0.046 C 
ATOM      5  C   UNL     1      -1.748  -0.607   1.620  0.00  0.00    +0.186 C 
ATOM      6  C   UNL     1      -0.251  -0.542   1.920  0.00  0.00    +0.031 C 
ATOM      7  C   UNL     1       0.593  -1.053   0.769  0.00  0.00    +0.007 C 
ATOM      8  C   UNL     1       2.086  -0.814   1.003  0.00  0.00    +0.007 C 
ATOM      9  C   UNL     1       2.875  -1.614  -0.040  0.00  0.00    +0.032 C 
ATOM     10  C   UNL     1       2.489  -1.174  -1.449  0.00  0.00    +0.119 C 
ATOM     11  C   UNL     1       0.986  -1.300  -1.686  0.00  0.00    +0.032 C 
ATOM     12  C   UNL     1       0.131   0.875   2.349  0.00  0.00    +0.017 C 
ENDROOT
BRANCH  10  13
ATOM     13  O   UNL     1       3.178  -2.001  -2.398  0.00  0.00    -0.391 OA
ATOM     14  H   UNL     1       4.141  -1.955  -2.333  0.00  0.00    +0.210 HD
ENDBRANCH  10  13
BRANCH  11  15
ATOM     15  C   UNL     1       0.590  -2.771  -1.758  0.00  0.00    +0.102 C 
BRANCH  15  16
ATOM     16  C   UNL     1       1.129  -3.375  -3.029  0.00  0.00    +0.216 C 
ATOM     17  O   UNL     1       1.606  -2.661  -3.885  0.00  0.00    -0.276 OA
ATOM     18  N   UNL     1       1.081  -4.709  -3.214  0.00  0.00    -0.301 N 
ATOM     19  C   UNL     1       0.501  -5.587  -2.189  0.00  0.00    +0.108 C 
ATOM     20  C   UNL     1      -0.577  -6.460  -2.839  0.00  0.00    +0.019 C 
ATOM     21  C   UNL     1       0.025  -7.202  -4.034  0.00  0.00    +0.003 C 
ATOM     22  C   UNL     1       0.517  -6.189  -5.071  0.00  0.00    +0.019 C 
ATOM     23  C   UNL     1       1.602  -5.313  -4.448  0.00  0.00    +0.108 C 
ENDBRANCH  15  16
ENDBRANCH  11  15
BRANCH   6  24
ATOM     24  C   UNL     1      -0.007  -1.466   3.138  0.00  0.00    +0.166 C 
BRANCH  24  25
ATOM     25  O   UNL     1      -0.772  -1.000   4.251  0.00  0.00    -0.394 OA
ATOM     26  H   UNL     1      -0.668  -1.533   5.051  0.00  0.00    +0.209 HD
ENDBRANCH  24  25
ENDBRANCH   6  24
BRANCH   5  27
ATOM     27  O   UNL     1      -2.180  -1.971   1.671  0.00  0.00    -0.446 OA
BRANCH  27  28
ATOM     28  C   UNL     1      -3.432  -2.199   2.112  0.00  0.00    +0.405 C 
ATOM     29  O   UNL     1      -4.138  -1.268   2.444  0.00  0.00    -0.226 OA
ATOM     30  N   UNL     1      -3.901  -3.461   2.184  0.00  0.00    -0.251 N 
ATOM     31  H   UNL     1      -3.312  -4.209   2.000  0.00  0.00    +0.158 HD
BRANCH  30  32
ATOM     32  C   UNL     1      -5.239  -3.691   2.526  0.00  0.00    +0.037 A 
ATOM     33  C   UNL     1      -6.225  -2.803   2.112  0.00  0.00    +0.023 A 
ATOM     34  C   UNL     1      -7.546  -3.029   2.449  0.00  0.00    +0.003 A 
ATOM     35  C   UNL     1      -7.891  -4.138   3.197  0.00  0.00    +0.015 A 
ATOM     36  C   UNL     1      -6.910  -5.030   3.614  0.00  0.00    +0.009 A 
ATOM     37  C   UNL     1      -5.582  -4.808   3.272  0.00  0.00    +0.038 A 
BRANCH  36  38
ATOM     38  S   UNL     1      -7.351  -6.444   4.568  0.00  0.00    -0.129 S 
ATOM     39  C   UNL     1      -9.151  -6.308   4.747  0.00  0.00    +0.090 C 
ENDBRANCH  36  38
ENDBRANCH  30  32
ENDBRANCH  27  28
ENDBRANCH   5  27
TORSDOF 9
