REMARK  Name = ZINC15772333
REMARK  9 active torsions:
REMARK  status: ('A' for Active; 'I' for Inactive)
REMARK    1  A    between atoms: C_1  and  C_2
REMARK    2  A    between atoms: C_6  and  C_12
REMARK    3  A    between atoms: C_12  and  O_13
REMARK    4  A    between atoms: O_13  and  C_14
REMARK    5  A    between atoms: C_14  and  C_16
REMARK    6  A    between atoms: C_21  and  N_22
REMARK    7  A    between atoms: C_23  and  C_25
REMARK    8  A    between atoms: C_25  and  O_26
REMARK    9  A    between atoms: O_26  and  C_27
REMARK                            x       y       z     vdW  Elec       q    Type
REMARK                         _______ _______ _______ _____ _____    ______ ____
ROOT
ATOM      1  C   UNL     1      -3.105  -3.775   0.198  0.00  0.00    +0.080 A 
ATOM      2  C   UNL     1      -4.397  -4.296   0.304  0.00  0.00    +0.017 A 
ATOM      3  C   UNL     1      -5.482  -3.447   0.312  0.00  0.00    +0.001 A 
ATOM      4  C   UNL     1      -5.299  -2.077   0.214  0.00  0.00    +0.002 A 
ATOM      5  C   UNL     1      -4.029  -1.547   0.114  0.00  0.00    +0.024 A 
ATOM      6  C   UNL     1      -2.923  -2.387   0.099  0.00  0.00    +0.048 A 
ENDROOT
BRANCH   6   7
ATOM      7  N   UNL     1      -1.641  -1.855  -0.008  0.00  0.00    -0.282 N 
ATOM      8  C   UNL     1      -1.348  -0.678   0.581  0.00  0.00    +0.255 C 
ATOM      9  O   UNL     1      -2.221  -0.044   1.134  0.00  0.00    -0.272 OA
ATOM     10  H   UNL     1      -0.958  -2.331  -0.506  0.00  0.00    +0.155 HD
BRANCH   8  11
ATOM     11  C   UNL     1       0.063  -0.151   0.551  0.00  0.00    +0.324 C 
BRANCH  11  12
ATOM     12  O   UNL     1       0.118   1.101   1.237  0.00  0.00    -0.483 OA
BRANCH  12  13
ATOM     13  C   UNL     1       1.329   1.716   1.302  0.00  0.00    +0.121 A 
ATOM     14  C   UNL     1       2.441   1.123   0.723  0.00  0.00    +0.048 A 
ATOM     15  C   UNL     1       3.670   1.752   0.785  0.00  0.00    +0.042 A 
ATOM     16  C   UNL     1       3.793   2.968   1.434  0.00  0.00    +0.124 A 
ATOM     17  C   UNL     1       2.685   3.559   2.018  0.00  0.00    +0.042 A 
ATOM     18  C   UNL     1       1.454   2.935   1.952  0.00  0.00    +0.048 A 
ATOM     19  F   UNL     1       4.996   3.580   1.498  0.00  0.00    -0.205 F 
ENDBRANCH  12  13
ENDBRANCH  11  12
ENDBRANCH   8  11
ENDBRANCH   6   7
BRANCH   1  20
ATOM     20  C   UNL     1      -1.940  -4.678   0.190  0.00  0.00    +0.341 C 
ATOM     21  O   UNL     1      -0.815  -4.218   0.196  0.00  0.00    -0.245 OA
BRANCH  20  22
ATOM     22  O   UNL     1      -2.122  -6.013   0.175  0.00  0.00    -0.455 OA
BRANCH  22  23
ATOM     23  C   UNL     1      -0.929  -6.841   0.168  0.00  0.00    +0.288 C 
BRANCH  23  29
ATOM     24  C   UNL     1      -3.706 -13.345   2.176  0.00  0.00    +0.089 C 
ATOM     25  C   UNL     1      -3.076 -12.114   1.576  0.00  0.00    +0.134 A 
ATOM     26  C   UNL     1      -3.011 -10.890   2.150  0.00  0.00    +0.093 A 
ATOM     27  C   UNL     1      -2.330 -10.096   1.195  0.00  0.00    +0.177 A 
ATOM     28  N   UNL     1      -1.966  -8.820   1.188  0.00  0.00    -0.228 NA
ATOM     29  C   UNL     1      -1.327  -8.294   0.152  0.00  0.00    +0.086 A 
ATOM     30  C   UNL     1      -1.022  -9.084  -0.937  0.00  0.00    +0.100 A 
ATOM     31  C   UNL     1      -1.401 -10.432  -0.928  0.00  0.00    +0.287 A 
ATOM     32  O   UNL     1      -1.144 -11.155  -1.879  0.00  0.00    -0.265 OA
ATOM     33  N   UNL     1      -2.057 -10.922   0.149  0.00  0.00    -0.119 N 
ATOM     34  O   UNL     1      -2.479 -12.036   0.383  0.00  0.00    -0.373 OA
ENDBRANCH  23  29
ENDBRANCH  22  23
ENDBRANCH  20  22
ENDBRANCH   1  20
TORSDOF 8
