REMARK  Name = ZINC57567225
REMARK  8 active torsions:
REMARK  status: ('A' for Active; 'I' for Inactive)
REMARK    1  A    between atoms: C_1  and  C_2
REMARK    2  A    between atoms: C_4  and  C_14
REMARK    3  A    between atoms: C_6  and  S_9
REMARK    4  A    between atoms: C_7  and  C_8
REMARK    5  A    between atoms: S_9  and  N_12
REMARK    6  A    between atoms: N_12  and  C_13
REMARK    7  A    between atoms: N_16  and  N_17
REMARK    8  A    between atoms: C_18  and  C_20
REMARK                            x       y       z     vdW  Elec       q    Type
REMARK                         _______ _______ _______ _____ _____    ______ ____
ROOT
ATOM      1  C   UNL     1      -0.419  -3.042  -2.527  0.00  0.00    +0.260 C 
ATOM      2  O   UNL     1      -0.450  -4.255  -2.469  0.00  0.00    -0.269 OA
ATOM      3  N   UNL     1      -0.502  -2.422  -3.721  0.00  0.00    -0.230 N 
ATOM      4  H   UNL     1      -0.477  -1.453  -3.767  0.00  0.00    +0.173 HD
ENDROOT
BRANCH   1   8
ATOM      5  C   UNL     1      -0.095   1.391  -0.257  0.00  0.00    +0.044 C 
ATOM      6  C   UNL     1      -0.135  -0.114  -0.191  0.00  0.00    -0.045 A 
ATOM      7  C   UNL     1      -0.255  -0.852  -1.351  0.00  0.00    +0.016 A 
ATOM      8  C   UNL     1      -0.291  -2.245  -1.288  0.00  0.00    +0.040 A 
ATOM      9  C   UNL     1      -0.205  -2.884  -0.050  0.00  0.00    +0.042 A 
ATOM     10  C   UNL     1      -0.086  -2.135   1.103  0.00  0.00    +0.109 A 
ATOM     11  C   UNL     1      -0.045  -0.754   1.033  0.00  0.00    -0.021 A 
ATOM     12  C   UNL     1       0.091   0.058   2.295  0.00  0.00    +0.046 C 
BRANCH  10  13
ATOM     13  S   UNL     1       0.021  -2.940   2.667  0.00  0.00    +0.058 S 
ATOM     14  O   UNL     1      -0.117  -4.332   2.418  0.00  0.00    -0.153 OA
ATOM     15  O   UNL     1       1.154  -2.393   3.328  0.00  0.00    -0.153 OA
BRANCH  13  16
ATOM     16  N   UNL     1      -1.306  -2.482   3.545  0.00  0.00    -0.193 NA
ATOM     17  C   UNL     1      -2.646  -2.879   3.107  0.00  0.00    +0.127 C 
ATOM     18  H   UNL     1      -1.196  -1.951   4.349  0.00  0.00    +0.148 HD
ENDBRANCH  13  16
ENDBRANCH  10  13
ENDBRANCH   1   8
BRANCH   3  19
ATOM     19  N   UNL     1      -0.624  -3.176  -4.895  0.00  0.00    -0.230 N 
ATOM     20  C   UNL     1      -0.706  -2.556  -6.089  0.00  0.00    +0.260 C 
ATOM     21  O   UNL     1      -0.675  -1.343  -6.147  0.00  0.00    -0.269 OA
ATOM     22  H   UNL     1      -0.648  -4.145  -4.848  0.00  0.00    +0.173 HD
BRANCH  20  23
ATOM     23  C   UNL     1      -0.835  -3.352  -7.327  0.00  0.00    +0.038 A 
ATOM     24  C   UNL     1      -0.877  -4.746  -7.263  0.00  0.00    +0.014 A 
ATOM     25  C   UNL     1      -0.997  -5.484  -8.422  0.00  0.00    +0.021 A 
ATOM     26  C   UNL     1      -1.075  -4.844  -9.648  0.00  0.00    +0.041 A 
ATOM     27  C   UNL     1      -1.034  -3.461  -9.718  0.00  0.00    +0.021 A 
ATOM     28  C   UNL     1      -0.921  -2.713  -8.565  0.00  0.00    +0.014 A 
ATOM     29 CL   UNL     1      -1.225  -5.779 -11.103  0.00  0.00    -0.084 Cl
ENDBRANCH  20  23
ENDBRANCH   3  19
TORSDOF 5
