REMARK  Name = ZINC13647969
REMARK  4 active torsions:
REMARK  status: ('A' for Active; 'I' for Inactive)
REMARK    1  A    between atoms: C_4  and  N_7
REMARK    2  A    between atoms: C_8  and  C_28
REMARK    3  A    between atoms: N_17  and  C_20
REMARK    4  A    between atoms: C_31  and  O_34
REMARK                            x       y       z     vdW  Elec       q    Type
REMARK                         _______ _______ _______ _____ _____    ______ ____
ROOT
ATOM      1  N   UNL     1      -0.217  -0.039  -0.107  0.00  0.00    -0.244 N 
ATOM      2  C   UNL     1      -0.656  -0.556   1.227  0.00  0.00    +0.157 C 
ATOM      3  C   UNL     1       0.642  -1.066   1.855  0.00  0.00    +0.145 C 
ATOM      4  C   UNL     1       1.338  -1.537   0.515  0.00  0.00    +0.249 C 
ATOM      5  O   UNL     1       1.219  -0.425  -0.280  0.00  0.00    -0.257 OA
ATOM      6  C   UNL     1       2.368  -2.413   1.047  0.00  0.00    +0.259 C 
ATOM      7  O   UNL     1       3.493  -2.571   0.623  0.00  0.00    -0.272 OA
ATOM      8  N   UNL     1       1.799  -3.023   2.127  0.00  0.00    -0.208 N 
ATOM      9  C   UNL     1       0.646  -2.412   2.527  0.00  0.00    +0.235 C 
ATOM     10  O   UNL     1      -0.200  -2.861   3.270  0.00  0.00    -0.274 OA
ENDROOT
BRANCH   8  11
ATOM     11  C   UNL     1       2.344  -4.146   2.765  0.00  0.00    +0.045 A 
ATOM     12  C   UNL     1       1.709  -4.694   3.872  0.00  0.00    +0.025 A 
ATOM     13  C   UNL     1       2.244  -5.804   4.495  0.00  0.00    +0.023 A 
ATOM     14  C   UNL     1       3.419  -6.364   4.026  0.00  0.00    +0.059 A 
ATOM     15  C   UNL     1       4.058  -5.816   2.926  0.00  0.00    +0.061 A 
ATOM     16  C   UNL     1       3.523  -4.709   2.295  0.00  0.00    +0.045 A 
ATOM     17 CL   UNL     1       5.532  -6.522   2.339  0.00  0.00    -0.082 Cl
ATOM     18 CL   UNL     1       4.093  -7.755   4.816  0.00  0.00    -0.082 Cl
ENDBRANCH   8  11
BRANCH   1  22
ATOM     19  C   UNL     1      -0.692   4.091  -0.338  0.00  0.00    +0.000 A 
ATOM     20  C   UNL     1       0.575   3.547  -0.223  0.00  0.00    +0.002 A 
ATOM     21  C   UNL     1       0.736   2.178  -0.146  0.00  0.00    +0.028 A 
ATOM     22  C   UNL     1      -0.376   1.346  -0.184  0.00  0.00    +0.065 A 
ATOM     23  C   UNL     1      -1.646   1.895  -0.305  0.00  0.00    +0.028 A 
ATOM     24  C   UNL     1      -1.800   3.266  -0.377  0.00  0.00    +0.002 A 
ENDBRANCH   1  22
BRANCH   2  25
ATOM     25  C   UNL     1      -1.248   0.553   2.058  0.00  0.00    -0.022 A 
ATOM     26  C   UNL     1      -0.451   1.603   2.476  0.00  0.00    +0.009 A 
ATOM     27  C   UNL     1      -0.992   2.624   3.233  0.00  0.00    +0.046 A 
ATOM     28  C   UNL     1      -2.334   2.590   3.582  0.00  0.00    +0.117 A 
ATOM     29  C   UNL     1      -3.131   1.533   3.166  0.00  0.00    +0.046 A 
ATOM     30  C   UNL     1      -2.586   0.517   2.405  0.00  0.00    +0.009 A 
BRANCH  28  31
ATOM     31  O   UNL     1      -2.868   3.591   4.331  0.00  0.00    -0.507 OA
ATOM     32  H   UNL     1      -3.932   3.563   4.608  0.00  0.00    +0.292 HD
ENDBRANCH  28  31
ENDBRANCH   2  25
TORSDOF 4
