REMARK  Name = ZINC10392363
REMARK  9 active torsions:
REMARK  status: ('A' for Active; 'I' for Inactive)
REMARK    1  A    between atoms: C_1  and  C_2
REMARK    2  A    between atoms: C_2  and  O_3
REMARK    3  A    between atoms: O_3  and  C_4
REMARK    4  A    between atoms: C_4  and  C_6
REMARK    5  A    between atoms: C_7  and  C_31
REMARK    6  A    between atoms: C_11  and  C_15
REMARK    7  A    between atoms: C_15  and  O_16
REMARK    8  A    between atoms: O_16  and  C_17
REMARK    9  A    between atoms: C_17  and  C_19
REMARK                            x       y       z     vdW  Elec       q    Type
REMARK                         _______ _______ _______ _____ _____    ______ ____
ROOT
ATOM      1  C   UNL     1       5.949   7.433  -3.286  0.00  0.00    +0.102 A 
ATOM      2  C   UNL     1       6.270   7.421  -1.962  0.00  0.00    -0.017 A 
ATOM      3  C   UNL     1       5.435   6.764  -1.049  0.00  0.00    +0.051 A 
ATOM      4  C   UNL     1       5.575   6.627   0.365  0.00  0.00    +0.128 A 
ATOM      5  N   UNL     1       4.654   5.962   1.042  0.00  0.00    -0.214 NA
ATOM      6  C   UNL     1       3.610   5.407   0.454  0.00  0.00    +0.170 A 
ATOM      7  N   UNL     1       3.423   5.497  -0.849  0.00  0.00    -0.221 NA
ATOM      8  C   UNL     1       4.287   6.146  -1.603  0.00  0.00    +0.115 A 
ATOM      9  S   UNL     1       4.426   6.504  -3.335  0.00  0.00    -0.062 S 
ATOM     10  N   UNL     1       6.654   7.187   1.018  0.00  0.00    -0.343 N 
ATOM     11  C   UNL     1       7.520   8.112  -1.481  0.00  0.00    +0.046 C 
ATOM     12  H   UNL     1       7.455   7.416   0.522  0.00  0.00    +0.144 HD
ATOM     13  H   UNL     1       6.611   7.351   1.973  0.00  0.00    +0.144 HD
ENDROOT
BRANCH   1  14
ATOM     14  C   UNL     1       6.676   8.055  -4.397  0.00  0.00    +0.346 C 
ATOM     15  O   UNL     1       7.693   8.685  -4.181  0.00  0.00    -0.244 OA
BRANCH  14  16
ATOM     16  O   UNL     1       6.218   7.927  -5.659  0.00  0.00    -0.461 OA
BRANCH  16  18
ATOM     17  C   UNL     1       6.318   8.317  -8.061  0.00  0.00    +0.048 C 
ATOM     18  C   UNL     1       6.988   8.569  -6.709  0.00  0.00    +0.229 C 
ENDBRANCH  16  18
ENDBRANCH  14  16
ENDBRANCH   1  14
BRANCH   6  19
ATOM     19  C   UNL     1       2.605   4.658   1.291  0.00  0.00    +0.308 C 
BRANCH  19  20
ATOM     20  O   UNL     1       2.992   3.261   1.378  0.00  0.00    -0.451 OA
BRANCH  20  21
ATOM     21  C   UNL     1       2.193   2.449   2.097  0.00  0.00    +0.375 C 
ATOM     22  O   UNL     1       1.198   2.894   2.631  0.00  0.00    -0.241 OA
BRANCH  21  23
ATOM     23  C   UNL     1       2.525   1.012   2.229  0.00  0.00    +0.216 A 
ATOM     24  C   UNL     1       1.704   0.218   2.958  0.00  0.00    +0.105 A 
ATOM     25  C   UNL     1       2.033  -1.210   3.090  0.00  0.00    +0.193 A 
ATOM     26  O   UNL     1       1.330  -1.970   3.733  0.00  0.00    -0.287 OA
ATOM     27  C   UNL     1       3.254  -1.677   2.408  0.00  0.00    +0.064 A 
ATOM     28  C   UNL     1       3.655  -3.011   2.471  0.00  0.00    +0.015 A 
ATOM     29  C   UNL     1       4.793  -3.408   1.825  0.00  0.00    +0.001 A 
ATOM     30  C   UNL     1       5.550  -2.490   1.108  0.00  0.00    +0.004 A 
ATOM     31  C   UNL     1       5.170  -1.168   1.035  0.00  0.00    +0.047 A 
ATOM     32  C   UNL     1       4.015  -0.742   1.684  0.00  0.00    +0.140 A 
ATOM     33  O   UNL     1       3.625   0.545   1.619  0.00  0.00    -0.448 OA
ENDBRANCH  21  23
ENDBRANCH  20  21
ENDBRANCH  19  20
ENDBRANCH   6  19
TORSDOF 7
