REMARK  Name = ZINC10277154
REMARK  10 active torsions:
REMARK  status: ('A' for Active; 'I' for Inactive)
REMARK    1  A    between atoms: C_1  and  C_2
REMARK    2  A    between atoms: C_5  and  S_24
REMARK    3  A    between atoms: C_7  and  C_8
REMARK    4  A    between atoms: N_10  and  C_11
REMARK    5  A    between atoms: C_11  and  C_13
REMARK    6  A    between atoms: C_11  and  C_14
REMARK    7  A    between atoms: C_17  and  S_20
REMARK    8  A    between atoms: S_20  and  N_23
REMARK    9  A    between atoms: S_24  and  N_27
REMARK   10  A    between atoms: N_27  and  C_28
REMARK                            x       y       z     vdW  Elec       q    Type
REMARK                         _______ _______ _______ _____ _____    ______ ____
ROOT
ATOM      1  C   UNL     1      -1.229  -0.874   0.092  0.00  0.00    +0.044 C 
ATOM      2  C   UNL     1       0.032  -0.051   0.041  0.00  0.00    -0.038 A 
ATOM      3  C   UNL     1       1.258  -0.650   0.245  0.00  0.00    +0.006 A 
ATOM      4  C   UNL     1       2.417   0.104   0.198  0.00  0.00    +0.029 A 
ATOM      5  C   UNL     1       2.355   1.463  -0.052  0.00  0.00    +0.106 A 
ATOM      6  C   UNL     1       1.136   2.075  -0.258  0.00  0.00    +0.041 A 
ATOM      7  C   UNL     1      -0.037   1.320  -0.212  0.00  0.00    +0.041 A 
ENDROOT
BRANCH   7   8
ATOM      8  C   UNL     1      -1.347   1.968  -0.437  0.00  0.00    +0.245 C 
ATOM      9  O   UNL     1      -2.355   1.293  -0.510  0.00  0.00    -0.270 OA
ATOM     10  N   UNL     1      -1.423   3.308  -0.561  0.00  0.00    -0.305 N 
ATOM     11  H   UNL     1      -0.619   3.847  -0.503  0.00  0.00    +0.150 HD
BRANCH  10  12
ATOM     12  C   UNL     1      -2.721   3.950  -0.784  0.00  0.00    +0.100 C 
ATOM     13  C   UNL     1      -3.044   3.940  -2.280  0.00  0.00    +0.033 C 
BRANCH  12  14
ATOM     14  C   UNL     1      -2.668   5.373  -0.291  0.00  0.00    -0.027 A 
ATOM     15  C   UNL     1      -1.535   6.136  -0.501  0.00  0.00    +0.007 A 
ATOM     16  C   UNL     1      -1.488   7.443  -0.053  0.00  0.00    +0.029 A 
ATOM     17  C   UNL     1      -2.572   7.984   0.614  0.00  0.00    +0.105 A 
ATOM     18  C   UNL     1      -3.703   7.219   0.829  0.00  0.00    +0.029 A 
ATOM     19  C   UNL     1      -3.752   5.914   0.376  0.00  0.00    +0.007 A 
BRANCH  17  20
ATOM     20  S   UNL     1      -2.510   9.647   1.192  0.00  0.00    +0.056 S 
ATOM     21  O   UNL     1      -1.552  10.321   0.387  0.00  0.00    -0.153 OA
ATOM     22  O   UNL     1      -3.856  10.088   1.305  0.00  0.00    -0.153 OA
BRANCH  20  23
ATOM     23  N   UNL     1      -1.894   9.609   2.729  0.00  0.00    -0.204 NA
ATOM     24  H   UNL     1      -1.648   8.762   3.132  0.00  0.00    +0.144 HD
ATOM     25  H   UNL     1      -1.780  10.434   3.226  0.00  0.00    +0.144 HD
ENDBRANCH  20  23
ENDBRANCH  17  20
ENDBRANCH  12  14
ENDBRANCH  10  12
ENDBRANCH   7   8
BRANCH   5  26
ATOM     26  S   UNL     1       3.837   2.415  -0.110  0.00  0.00    +0.059 S 
ATOM     27  O   UNL     1       3.470   3.756   0.181  0.00  0.00    -0.153 OA
ATOM     28  O   UNL     1       4.804   1.707   0.654  0.00  0.00    -0.153 OA
BRANCH  26  29
ATOM     29  N   UNL     1       4.368   2.399  -1.678  0.00  0.00    -0.187 NA
ATOM     30  H   UNL     1       5.209   1.969  -1.901  0.00  0.00    +0.148 HD
BRANCH  29  31
ATOM     31  C   UNL     1       3.568   3.033  -2.729  0.00  0.00    +0.077 C 
ATOM     32  C   UNL     1       2.684   1.981  -3.402  0.00  0.00    +0.020 C 
ATOM     33  C   UNL     1       1.849   2.644  -4.500  0.00  0.00    +0.002 C 
ATOM     34  C   UNL     1       2.779   3.270  -5.541  0.00  0.00    +0.000 C 
ATOM     35  C   UNL     1       3.664   4.322  -4.868  0.00  0.00    +0.002 C 
ATOM     36  C   UNL     1       4.499   3.659  -3.770  0.00  0.00    +0.020 C 
ENDBRANCH  29  31
ENDBRANCH  26  29
ENDBRANCH   5  26
TORSDOF 8
