REMARK  Name = ZINC24907063
REMARK  9 active torsions:
REMARK  status: ('A' for Active; 'I' for Inactive)
REMARK    1  A    between atoms: C_1  and  C_2
REMARK    2  A    between atoms: C_5  and  C_32
REMARK    3  A    between atoms: N_8  and  C_10
REMARK    4  A    between atoms: C_13  and  C_19
REMARK    5  A    between atoms: C_15  and  N_16
REMARK    6  A    between atoms: C_19  and  O_21
REMARK    7  A    between atoms: O_21  and  C_22
REMARK    8  A    between atoms: C_22  and  C_23
REMARK    9  A    between atoms: C_29  and  C_31
REMARK                            x       y       z     vdW  Elec       q    Type
REMARK                         _______ _______ _______ _____ _____    ______ ____
ROOT
ATOM      1  C   UNL     1       8.254  -3.094  -0.097  0.00  0.00    +0.060 A 
ATOM      2  C   UNL     1       6.868  -3.232  -0.084  0.00  0.00    +0.026 A 
ATOM      3  C   UNL     1       6.068  -2.125  -0.069  0.00  0.00    +0.017 A 
ATOM      4  C   UNL     1       6.639  -0.848  -0.068  0.00  0.00    +0.061 A 
ATOM      5  C   UNL     1       8.030  -0.707  -0.087  0.00  0.00    +0.049 A 
ATOM      6  C   UNL     1       8.831  -1.827  -0.096  0.00  0.00    +0.148 A 
ENDROOT
BRANCH   1  12
ATOM      7  C   UNL     1      11.300  -5.581  -1.382  0.00  0.00    +0.009 C 
ATOM      8  C   UNL     1       9.877  -6.144  -1.397  0.00  0.00    +0.003 C 
ATOM      9  C   UNL     1       9.671  -7.046  -0.178  0.00  0.00    +0.009 C 
ATOM     10  C   UNL     1       9.829  -6.213   1.097  0.00  0.00    +0.003 C 
ATOM     11  C   UNL     1       8.824  -5.059   1.073  0.00  0.00    +0.108 C 
ATOM     12  N   UNL     1       9.063  -4.224  -0.112  0.00  0.00    -0.328 N 
ATOM     13  C   UNL     1       8.871  -4.992  -1.349  0.00  0.00    +0.108 C 
ATOM     14  C   UNL     1       9.565  -7.094   2.320  0.00  0.00    +0.009 C 
ENDBRANCH   1  12
BRANCH   6  15
ATOM     15  N   UNL     1      10.304  -1.684  -0.110  0.00  0.00    +0.058 N 
ATOM     16  O   UNL     1      10.808  -0.575  -0.109  0.00  0.00    -0.126 OA
ATOM     17  O   UNL     1      11.012  -2.675  -0.123  0.00  0.00    -0.126 OA
ENDBRANCH   6  15
BRANCH   4  18
ATOM     18  C   UNL     1       5.776   0.347  -0.053  0.00  0.00    +0.340 C 
ATOM     19  O   UNL     1       6.273   1.456  -0.051  0.00  0.00    -0.245 OA
BRANCH  18  20
ATOM     20  O   UNL     1       4.436   0.210  -0.040  0.00  0.00    -0.455 OA
BRANCH  20  21
ATOM     21  C   UNL     1       3.648   1.430  -0.026  0.00  0.00    +0.288 C 
BRANCH  21  22
ATOM     22  C   UNL     1       2.182   1.081  -0.013  0.00  0.00    +0.088 A 
ATOM     23  C   UNL     1       1.777  -0.212  -0.016  0.00  0.00    +0.075 A 
ATOM     24  S   UNL     1       0.002  -0.004   0.002  0.00  0.00    -0.060 S 
ATOM     25  C   UNL     1      -0.021   1.732   0.012  0.00  0.00    +0.165 A 
ATOM     26  N   UNL     1       1.264   2.027   0.001  0.00  0.00    -0.226 NA
ATOM     27  N   UNL     1      -1.115   2.591   0.022  0.00  0.00    -0.265 N 
ATOM     28  C   UNL     1      -2.365   2.089   0.026  0.00  0.00    +0.216 C 
ATOM     29  O   UNL     1      -2.537   0.888   0.021  0.00  0.00    -0.276 OA
ATOM     30  C   UNL     1      -3.551   3.020   0.037  0.00  0.00    +0.109 C 
ATOM     31  H   UNL     1      -0.959   3.680   0.026  0.00  0.00    +0.157 HD
ENDBRANCH  21  22
ENDBRANCH  20  21
ENDBRANCH  18  20
ENDBRANCH   4  18
TORSDOF 6
