REMARK  Name = ZINC34897861
REMARK  9 active torsions:
REMARK  status: ('A' for Active; 'I' for Inactive)
REMARK    1  A    between atoms: C_1  and  C_2
REMARK    2  A    between atoms: C_2  and  C_4
REMARK    3  A    between atoms: C_2  and  O_16
REMARK    4  A    between atoms: N_6  and  C_7
REMARK    5  A    between atoms: C_11  and  N_13
REMARK    6  A    between atoms: O_16  and  C_17
REMARK    7  A    between atoms: C_17  and  C_19
REMARK    8  A    between atoms: C_19  and  N_20
REMARK    9  A    between atoms: C_21  and  C_23
REMARK                            x       y       z     vdW  Elec       q    Type
REMARK                         _______ _______ _______ _____ _____    ______ ____
ROOT
ATOM      1  C   UNL     1      -0.086  -0.661  -2.264  0.00  0.00    +0.325 C 
ATOM      2  O   UNL     1      -1.274  -0.450  -2.221  0.00  0.00    -0.249 OA
ENDROOT
BRANCH   1   3
ATOM      3  O   UNL     1       0.671  -0.462  -1.174  0.00  0.00    -0.451 OA
BRANCH   3   5
ATOM      4  C   UNL     1      -0.004   1.532   0.014  0.00  0.00    +0.062 C 
ATOM      5  C   UNL     1       0.005   0.002   0.002  0.00  0.00    +0.259 C 
BRANCH   5   6
ATOM      6  C   UNL     1       0.730  -0.505   1.223  0.00  0.00    +0.258 C 
ATOM      7  O   UNL     1       1.769  -1.118   1.100  0.00  0.00    -0.271 OA
ATOM      8  N   UNL     1       0.223  -0.277   2.451  0.00  0.00    -0.282 N 
ATOM      9  H   UNL     1      -0.571   0.271   2.553  0.00  0.00    +0.155 HD
BRANCH   8  10
ATOM     10  C   UNL     1       0.843  -0.829   3.577  0.00  0.00    +0.036 A 
ATOM     11  C   UNL     1       0.077  -1.256   4.654  0.00  0.00    +0.023 A 
ATOM     12  C   UNL     1       0.691  -1.800   5.764  0.00  0.00    +0.004 A 
ATOM     13  C   UNL     1       2.068  -1.921   5.804  0.00  0.00    +0.033 A 
ATOM     14  C   UNL     1       2.834  -1.496   4.734  0.00  0.00    +0.128 A 
ATOM     15  C   UNL     1       2.225  -0.956   3.618  0.00  0.00    +0.056 A 
BRANCH  14  16
ATOM     16  N   UNL     1       4.308  -1.626   4.782  0.00  0.00    +0.056 N 
ATOM     17  O   UNL     1       4.841  -2.103   5.756  0.00  0.00    -0.126 OA
ATOM     18  O   UNL     1       4.978  -1.256   3.847  0.00  0.00    -0.126 OA
ENDBRANCH  14  16
ENDBRANCH   8  10
ENDBRANCH   5   6
ENDBRANCH   3   5
ENDBRANCH   1   3
BRANCH   1  19
ATOM     19  C   UNL     1       0.547  -1.150  -3.542  0.00  0.00    +0.225 C 
BRANCH  19  20
ATOM     20  N   UNL     1      -0.482  -1.287  -4.575  0.00  0.00    -0.304 N 
ATOM     21  C   UNL     1      -0.146  -1.713  -5.809  0.00  0.00    +0.220 C 
ATOM     22  O   UNL     1       1.009  -1.982  -6.064  0.00  0.00    -0.275 OA
ATOM     23  H   UNL     1      -1.405  -1.072  -4.371  0.00  0.00    +0.149 HD
BRANCH  21  24
ATOM     24  C   UNL     1      -1.204  -1.854  -6.872  0.00  0.00    +0.048 C 
ATOM     25  C   UNL     1      -2.261  -2.859  -6.409  0.00  0.00    +0.019 C 
ATOM     26  C   UNL     1      -3.336  -3.003  -7.489  0.00  0.00    -0.009 C 
ATOM     27  C   UNL     1      -2.693  -3.499  -8.786  0.00  0.00    +0.007 C 
ATOM     28  C   UNL     1      -1.637  -2.493  -9.248  0.00  0.00    -0.009 C 
ATOM     29  C   UNL     1      -0.562  -2.350  -8.169  0.00  0.00    +0.019 C 
ATOM     30  C   UNL     1      -2.298  -1.135  -9.493  0.00  0.00    +0.007 C 
ATOM     31  C   UNL     1      -2.940  -0.639  -8.196  0.00  0.00    -0.009 C 
ATOM     32  C   UNL     1      -3.997  -1.645  -7.733  0.00  0.00    +0.007 C 
ATOM     33  C   UNL     1      -1.865  -0.496  -7.117  0.00  0.00    +0.019 C 
ENDBRANCH  21  24
ENDBRANCH  19  20
ENDBRANCH   1  19
TORSDOF 8
