REMARK  Name = ZINC15643187
REMARK  9 active torsions:
REMARK  status: ('A' for Active; 'I' for Inactive)
REMARK    1  A    between atoms: C_1  and  C_2
REMARK    2  A    between atoms: C_6  and  C_34
REMARK    3  A    between atoms: C_7  and  N_8
REMARK    4  A    between atoms: C_9  and  C_11
REMARK    5  A    between atoms: C_11  and  C_13
REMARK    6  A    between atoms: C_11  and  O_14
REMARK    7  A    between atoms: O_14  and  C_15
REMARK    8  A    between atoms: C_15  and  C_17
REMARK    9  A    between atoms: C_22  and  N_23
REMARK                            x       y       z     vdW  Elec       q    Type
REMARK                         _______ _______ _______ _____ _____    ______ ____
ROOT
ATOM      1  C   UNL     1       5.441   3.379  -1.245  0.00  0.00    +0.080 A 
ATOM      2  C   UNL     1       4.971   2.155  -1.717  0.00  0.00    +0.017 A 
ATOM      3  C   UNL     1       3.652   2.015  -2.107  0.00  0.00    +0.013 A 
ATOM      4  C   UNL     1       2.777   3.095  -2.032  0.00  0.00    +0.035 A 
ATOM      5  C   UNL     1       3.233   4.338  -1.558  0.00  0.00    +0.054 A 
ATOM      6  C   UNL     1       4.570   4.482  -1.163  0.00  0.00    +0.050 A 
ATOM      7  C   UNL     1       2.310   5.483  -1.478  0.00  0.00    +0.196 C 
ATOM      8  O   UNL     1       2.708   6.556  -1.068  0.00  0.00    -0.287 OA
ATOM      9  C   UNL     1       0.901   5.326  -1.895  0.00  0.00    +0.033 A 
ATOM     10  C   UNL     1       0.022   6.402  -1.816  0.00  0.00    +0.012 A 
ATOM     11  C   UNL     1      -1.295   6.248  -2.213  0.00  0.00    +0.001 A 
ATOM     12  C   UNL     1      -1.748   5.027  -2.680  0.00  0.00    +0.001 A 
ATOM     13  C   UNL     1      -0.888   3.946  -2.760  0.00  0.00    +0.012 A 
ATOM     14  C   UNL     1       0.441   4.085  -2.370  0.00  0.00    +0.033 A 
ATOM     15  C   UNL     1       1.366   2.936  -2.451  0.00  0.00    +0.195 C 
ATOM     16  O   UNL     1       0.969   1.863  -2.861  0.00  0.00    -0.287 OA
ENDROOT
BRANCH   6  17
ATOM     17  N   UNL     1       5.030   5.697  -0.697  0.00  0.00    -0.357 N 
ATOM     18  H   UNL     1       5.958   5.946  -0.827  0.00  0.00    +0.142 HD
ATOM     19  H   UNL     1       4.425   6.301  -0.239  0.00  0.00    +0.142 HD
ENDBRANCH   6  17
BRANCH   1  20
ATOM     20  C   UNL     1       6.850   3.519  -0.831  0.00  0.00    +0.342 C 
ATOM     21  O   UNL     1       7.234   4.553  -0.322  0.00  0.00    -0.245 OA
BRANCH  20  22
ATOM     22  O   UNL     1       7.711   2.500  -1.017  0.00  0.00    -0.449 OA
BRANCH  22  23
ATOM     23  C   UNL     1       9.082   2.708  -0.586  0.00  0.00    +0.259 C 
ATOM     24  C   UNL     1       9.231   2.262   0.870  0.00  0.00    +0.062 C 
BRANCH  23  26
ATOM     25  N   UNL     1      11.340   1.938  -1.239  0.00  0.00    -0.282 N 
ATOM     26  C   UNL     1      10.010   1.900  -1.456  0.00  0.00    +0.258 C 
ATOM     27  O   UNL     1       9.561   1.217  -2.352  0.00  0.00    -0.271 OA
ATOM     28  H   UNL     1      11.693   2.420  -0.475  0.00  0.00    +0.155 HD
BRANCH  25  35
ATOM     29  C   UNL     1      13.383   3.466  -2.498  0.00  0.00    +0.045 C 
ATOM     30  C   UNL     1      13.222   1.990  -2.752  0.00  0.00    -0.029 A 
ATOM     31  C   UNL     1      14.083   1.338  -3.613  0.00  0.00    +0.005 A 
ATOM     32  C   UNL     1      13.932  -0.016  -3.850  0.00  0.00    +0.001 A 
ATOM     33  C   UNL     1      12.923  -0.723  -3.224  0.00  0.00    +0.005 A 
ATOM     34  C   UNL     1      12.062  -0.078  -2.357  0.00  0.00    -0.029 A 
ATOM     35  C   UNL     1      12.210   1.282  -2.116  0.00  0.00    +0.039 A 
ATOM     36  C   UNL     1      10.962  -0.849  -1.674  0.00  0.00    +0.045 C 
ENDBRANCH  25  35
ENDBRANCH  23  26
ENDBRANCH  22  23
ENDBRANCH  20  22
ENDBRANCH   1  20
TORSDOF 6
