REMARK  Name = ZINC10042399
REMARK  11 active torsions:
REMARK  status: ('A' for Active; 'I' for Inactive)
REMARK    1  A    between atoms: C_4  and  C_7
REMARK    2  A    between atoms: C_7  and  C_9
REMARK    3  A    between atoms: C_9  and  C_11
REMARK    4  A    between atoms: C_9  and  O_20
REMARK    5  A    between atoms: C_14  and  N_17
REMARK    6  A    between atoms: O_20  and  C_21
REMARK    7  A    between atoms: C_21  and  C_23
REMARK    8  A    between atoms: C_23  and  N_24
REMARK    9  A    between atoms: C_25  and  C_27
REMARK   10  A    between atoms: C_27  and  N_28
REMARK   11  A    between atoms: C_29  and  C_31
REMARK                            x       y       z     vdW  Elec       q    Type
REMARK                         _______ _______ _______ _____ _____    ______ ____
ROOT
ATOM      1  C   UNL     1      -2.498   0.993   0.012  0.00  0.00    +0.277 C 
ENDROOT
BRANCH   1   2
ATOM      2  C   UNL     1      -1.160   1.685  -0.027  0.00  0.00    +0.001 A 
ATOM      3  C   UNL     1       0.004   0.939  -0.027  0.00  0.00    +0.010 A 
ATOM      4  C   UNL     1       1.232   1.573  -0.069  0.00  0.00    +0.033 A 
ATOM      5  C   UNL     1       1.295   2.954  -0.104  0.00  0.00    +0.126 A 
ATOM      6  C   UNL     1       0.131   3.700  -0.099  0.00  0.00    +0.033 A 
ATOM      7  C   UNL     1      -1.096   3.065  -0.058  0.00  0.00    +0.010 A 
BRANCH   5   8
ATOM      8  N   UNL     1       2.610   3.633  -0.148  0.00  0.00    +0.056 N 
ATOM      9  O   UNL     1       3.635   2.976  -0.153  0.00  0.00    -0.126 OA
ATOM     10  O   UNL     1       2.666   4.849  -0.180  0.00  0.00    -0.126 OA
ENDBRANCH   5   8
ENDBRANCH   1   2
BRANCH   1  11
ATOM     11  C   UNL     1      -3.078   0.942  -1.377  0.00  0.00    +0.208 C 
ATOM     12  O   UNL     1      -3.916   1.752  -1.715  0.00  0.00    -0.288 OA
BRANCH  11  16
ATOM     13  C   UNL     1      -1.781  -2.032  -4.110  0.00  0.00    +0.000 A 
ATOM     14  C   UNL     1      -2.644  -1.036  -4.534  0.00  0.00    +0.001 A 
ATOM     15  C   UNL     1      -3.070  -0.066  -3.652  0.00  0.00    +0.011 A 
ATOM     16  C   UNL     1      -2.628  -0.090  -2.325  0.00  0.00    +0.022 A 
ATOM     17  C   UNL     1      -1.753  -1.097  -1.905  0.00  0.00    +0.011 A 
ATOM     18  C   UNL     1      -1.340  -2.062  -2.799  0.00  0.00    +0.001 A 
ENDBRANCH  11  16
ENDBRANCH   1  11
BRANCH   1  19
ATOM     19  O   UNL     1      -3.397   1.726   0.886  0.00  0.00    -0.447 OA
BRANCH  19  20
ATOM     20  C   UNL     1      -4.339   1.016   1.525  0.00  0.00    +0.325 C 
ATOM     21  O   UNL     1      -4.411  -0.179   1.361  0.00  0.00    -0.249 OA
BRANCH  20  22
ATOM     22  C   UNL     1      -5.308   1.709   2.448  0.00  0.00    +0.225 C 
BRANCH  22  23
ATOM     23  N   UNL     1      -6.229   0.724   3.019  0.00  0.00    -0.304 N 
ATOM     24  C   UNL     1      -7.189   1.117   3.879  0.00  0.00    +0.231 C 
ATOM     25  O   UNL     1      -7.291   2.288   4.181  0.00  0.00    -0.274 OA
ATOM     26  H   UNL     1      -6.148  -0.212   2.778  0.00  0.00    +0.149 HD
BRANCH  24  27
ATOM     27  C   UNL     1      -8.137   0.103   4.466  0.00  0.00    +0.200 C 
BRANCH  27  28
ATOM     28  N   UNL     1      -9.079   0.777   5.363  0.00  0.00    -0.302 N 
ATOM     29  C   UNL     1     -10.025   0.064   6.005  0.00  0.00    +0.251 C 
ATOM     30  O   UNL     1     -10.098  -1.139   5.840  0.00  0.00    -0.270 OA
ATOM     31  H   UNL     1      -9.021   1.736   5.495  0.00  0.00    +0.150 HD
BRANCH  29  32
ATOM     32  C   UNL     1     -10.968   0.738   6.903  0.00  0.00    +0.074 A 
ATOM     33  C   UNL     1     -12.006   0.198   7.646  0.00  0.00    +0.021 A 
ATOM     34  C   UNL     1     -12.741   1.065   8.416  0.00  0.00    +0.008 A 
ATOM     35  C   UNL     1     -12.430   2.387   8.407  0.00  0.00    +0.046 A 
ATOM     36  S   UNL     1     -11.082   2.469   7.319  0.00  0.00    -0.092 S 
ENDBRANCH  29  32
ENDBRANCH  27  28
ENDBRANCH  24  27
ENDBRANCH  22  23
ENDBRANCH  20  22
ENDBRANCH  19  20
ENDBRANCH   1  19
TORSDOF 11
