REMARK  Name = ZINC03978069
REMARK  15 active torsions:
REMARK  status: ('A' for Active; 'I' for Inactive)
REMARK    1  A    between atoms: C_1  and  C_2
REMARK    2  A    between atoms: C_2  and  C_3
REMARK    3  A    between atoms: C_3  and  O_46
REMARK    4  A    between atoms: C_5  and  O_31
REMARK    5  A    between atoms: C_12  and  O_13
REMARK    6  A    between atoms: C_21  and  O_22
REMARK    7  A    between atoms: C_25  and  C_27
REMARK    8  A    between atoms: C_27  and  O_29
REMARK    9  A    between atoms: O_29  and  C_30
REMARK   10  A    between atoms: O_31  and  C_32
REMARK   11  A    between atoms: C_35  and  N_76
REMARK   12  A    between atoms: C_37  and  O_43
REMARK   13  A    between atoms: C_39  and  C_42
REMARK   14  A    between atoms: C_44  and  N_76
REMARK   15  A    between atoms: C_45  and  N_76
REMARK                            x       y       z     vdW  Elec       q    Type
REMARK                         _______ _______ _______ _____ _____    ______ ____
ROOT
ATOM      1  C   UNL     1      -4.157   0.054   4.569  0.00  0.00    +0.085 C 
ATOM      2  C   UNL     1      -3.537  -0.209   3.192  0.00  0.00    +0.072 C 
ATOM      3  C   UNL     1      -2.846   1.070   2.724  0.00  0.00    +0.158 C 
ATOM      4  C   UNL     1      -3.782   2.247   2.826  0.00  0.00    +0.028 A 
ATOM      5  C   UNL     1      -4.923   2.220   3.595  0.00  0.00    -0.021 A 
ATOM      6  C   UNL     1      -5.749   3.340   3.659  0.00  0.00    +0.017 A 
ATOM      7  C   UNL     1      -5.438   4.489   2.948  0.00  0.00    +0.037 A 
ATOM      8  C   UNL     1      -4.274   4.521   2.155  0.00  0.00    +0.075 A 
ATOM      9  C   UNL     1      -3.452   3.397   2.102  0.00  0.00    +0.134 A 
ATOM     10  C   UNL     1      -3.940   5.741   1.395  0.00  0.00    +0.202 C 
ATOM     11  O   UNL     1      -2.832   5.882   0.914  0.00  0.00    -0.286 OA
ATOM     12  C   UNL     1      -4.966   6.788   1.224  0.00  0.00    +0.075 A 
ATOM     13  C   UNL     1      -6.131   6.760   2.016  0.00  0.00    +0.037 A 
ATOM     14  C   UNL     1      -7.098   7.745   1.856  0.00  0.00    +0.012 A 
ATOM     15  C   UNL     1      -6.914   8.749   0.918  0.00  0.00    +0.004 A 
ATOM     16  C   UNL     1      -5.776   8.783   0.139  0.00  0.00    +0.046 A 
ATOM     17  C   UNL     1      -4.794   7.806   0.284  0.00  0.00    +0.128 A 
ATOM     18  C   UNL     1      -6.313   5.680   3.010  0.00  0.00    +0.195 C 
ATOM     19  O   UNL     1      -7.170   5.770   3.866  0.00  0.00    -0.287 OA
ATOM     20  C   UNL     1      -5.335   1.009   4.391  0.00  0.00    +0.160 C 
ENDROOT
BRANCH   1  22
ATOM     21  C   UNL     1      -3.462  -2.212   5.358  0.00  0.00    +0.007 C 
ATOM     22  C   UNL     1      -4.648  -1.263   5.173  0.00  0.00    +0.032 C 
ENDBRANCH   1  22
BRANCH   9  23
ATOM     23  O   UNL     1      -2.328   3.419   1.344  0.00  0.00    -0.506 OA
ATOM     24  H   UNL     1      -2.476   3.201   0.414  0.00  0.00    +0.292 HD
ENDBRANCH   9  23
BRANCH  17  25
ATOM     25  O   UNL     1      -3.677   7.844  -0.483  0.00  0.00    -0.506 OA
ATOM     26  H   UNL     1      -3.755   7.359  -1.317  0.00  0.00    +0.292 HD
ENDBRANCH  17  25
BRANCH  20  27
ATOM     27  C   UNL     1      -6.448   0.295   3.668  0.00  0.00    +0.317 C 
ATOM     28  O   UNL     1      -6.462   0.265   2.461  0.00  0.00    -0.250 OA
BRANCH  27  29
ATOM     29  O   UNL     1      -7.424  -0.307   4.366  0.00  0.00    -0.467 OA
ATOM     30  C   UNL     1      -8.464  -0.975   3.604  0.00  0.00    +0.280 C 
ENDBRANCH  27  29
ENDBRANCH  20  27
BRANCH   1  31
ATOM     31  O   UNL     1      -3.183   0.646   5.430  0.00  0.00    -0.387 OA
ATOM     32  H   UNL     1      -2.399   0.099   5.572  0.00  0.00    +0.210 HD
ENDBRANCH   1  31
BRANCH   3  33
ATOM     33  O   UNL     1      -2.434   0.913   1.364  0.00  0.00    -0.343 OA
BRANCH  33  34
ATOM     34  C   UNL     1      -3.210  -0.035   0.628  0.00  0.00    +0.250 C 
ATOM     35  C   UNL     1      -3.000   0.189  -0.872  0.00  0.00    +0.049 C 
ATOM     36  C   UNL     1      -1.527  -0.050  -1.216  0.00  0.00    -0.033 C 
ATOM     37  C   UNL     1      -1.135  -1.465  -0.779  0.00  0.00    +0.130 C 
ATOM     38  C   UNL     1      -1.415  -1.625   0.717  0.00  0.00    +0.145 C 
ATOM     39  O   UNL     1      -2.796  -1.358   0.973  0.00  0.00    -0.346 OA
ATOM     40  C   UNL     1      -0.551  -0.639   1.506  0.00  0.00    +0.040 C 
BRANCH  36  43
ATOM     41  C   UNL     1      -1.709   1.433  -3.121  0.00  0.00    -0.096 C 
ATOM     42  C   UNL     1       0.052  -0.227  -3.043  0.00  0.00    -0.096 C 
ATOM     43  N   UNL     1      -1.349   0.069  -2.679  0.00  0.00    +0.380 N 
ATOM     44  H   UNL     1      -1.965  -0.606  -3.146  0.00  0.00    -0.082 HD
ENDBRANCH  36  43
BRANCH  37  45
ATOM     45  O   UNL     1      -1.902  -2.421  -1.513  0.00  0.00    -0.391 OA
ATOM     46  H   UNL     1      -1.706  -3.341  -1.287  0.00  0.00    +0.210 HD
ENDBRANCH  37  45
ENDBRANCH  33  34
ENDBRANCH   3  33
TORSDOF 10
