REMARK  Name = ZINC09815472
REMARK  9 active torsions:
REMARK  status: ('A' for Active; 'I' for Inactive)
REMARK    1  A    between atoms: C_1  and  C_2
REMARK    2  A    between atoms: C_6  and  N_8
REMARK    3  A    between atoms: C_9  and  C_30
REMARK    4  A    between atoms: C_12  and  S_13
REMARK    5  A    between atoms: S_13  and  C_14
REMARK    6  A    between atoms: C_14  and  C_16
REMARK    7  A    between atoms: C_14  and  C_17
REMARK    8  A    between atoms: N_19  and  C_20
REMARK    9  A    between atoms: C_22  and  N_27
REMARK                            x       y       z     vdW  Elec       q    Type
REMARK                         _______ _______ _______ _____ _____    ______ ____
ROOT
ATOM      1  C   UNL     1       1.371   7.230  -3.227  0.00  0.00    +0.137 C 
ATOM      2  C   UNL     1       2.412   7.965  -2.380  0.00  0.00    +0.029 C 
ENDROOT
BRANCH   1   3
ATOM      3  C   UNL     1       1.889   7.071  -4.633  0.00  0.00    +0.230 C 
ATOM      4  O   UNL     1       2.373   6.016  -4.986  0.00  0.00    -0.274 OA
ATOM      5  N   UNL     1       1.815   8.102  -5.499  0.00  0.00    -0.283 N 
ATOM      6  H   UNL     1       1.371   8.923  -5.237  0.00  0.00    +0.155 HD
BRANCH   5   7
ATOM      7  C   UNL     1       2.380   7.986  -6.774  0.00  0.00    +0.054 A 
ATOM      8  C   UNL     1       2.362   6.766  -7.435  0.00  0.00    +0.057 A 
ATOM      9  C   UNL     1       2.920   6.655  -8.694  0.00  0.00    +0.128 A 
ATOM     10  C   UNL     1       3.497   7.758  -9.296  0.00  0.00    +0.034 A 
ATOM     11  C   UNL     1       3.517   8.975  -8.641  0.00  0.00    +0.024 A 
ATOM     12  C   UNL     1       2.955   9.095  -7.384  0.00  0.00    +0.062 A 
ATOM     13 CL   UNL     1       2.975  10.625  -6.565  0.00  0.00    -0.082 Cl
BRANCH   9  14
ATOM     14  N   UNL     1       2.900   5.354  -9.399  0.00  0.00    +0.056 N 
ATOM     15  O   UNL     1       2.392   4.382  -8.870  0.00  0.00    -0.126 OA
ATOM     16  O   UNL     1       3.392   5.255 -10.509  0.00  0.00    -0.126 OA
ENDBRANCH   9  14
ENDBRANCH   5   7
ENDBRANCH   1   3
BRANCH   1  17
ATOM     17  S   UNL     1       1.058   5.597  -2.512  0.00  0.00    -0.073 S 
BRANCH  17  22
ATOM     18  N   UNL     1      -0.108   5.228   0.008  0.00  0.00    -0.274 N 
ATOM     19  C   UNL     1      -0.584   6.041   1.002  0.00  0.00    +0.135 A 
ATOM     20  N   UNL     1      -0.410   7.272   0.613  0.00  0.00    -0.133 NA
ATOM     21  N   UNL     1       0.131   7.295  -0.553  0.00  0.00    -0.122 NA
ATOM     22  C   UNL     1       0.339   6.069  -0.974  0.00  0.00    +0.197 A 
ATOM     23  C   UNL     1      -1.193   5.594   2.306  0.00  0.00    +0.088 C 
BRANCH  18  29
ATOM     24  C   UNL     1       2.455   1.030  -0.031  0.00  0.00    +0.044 C 
ATOM     25  C   UNL     1       1.140   1.766  -0.022  0.00  0.00    -0.048 A 
ATOM     26  C   UNL     1      -0.048   1.059  -0.025  0.00  0.00    +0.003 A 
ATOM     27  C   UNL     1      -1.256   1.732  -0.023  0.00  0.00    +0.002 A 
ATOM     28  C   UNL     1      -1.279   3.113  -0.007  0.00  0.00    +0.026 A 
ATOM     29  C   UNL     1      -0.088   3.825  -0.004  0.00  0.00    +0.050 A 
ATOM     30  C   UNL     1       1.124   3.147  -0.011  0.00  0.00    +0.029 A 
ENDBRANCH  18  29
ENDBRANCH  17  22
ENDBRANCH   1  17
TORSDOF 6
