REMARK  Name = ZINC04699077
REMARK  6 active torsions:
REMARK  status: ('A' for Active; 'I' for Inactive)
REMARK    1  A    between atoms: C_1  and  C_2
REMARK    2  A    between atoms: C_5  and  N_8
REMARK    3  A    between atoms: C_9  and  C_11
REMARK    4  A    between atoms: C_11  and  N_12
REMARK    5  A    between atoms: C_16  and  C_17
REMARK    6  A    between atoms: C_22  and  O_23
REMARK                            x       y       z     vdW  Elec       q    Type
REMARK                         _______ _______ _______ _____ _____    ______ ____
ROOT
ATOM      1  N   UNL     1       0.383  -6.551   2.628  0.00  0.00    -0.212 N 
ATOM      2  C   UNL     1       1.538  -6.702   3.308  0.00  0.00    +0.269 C 
ATOM      3  O   UNL     1       2.639  -6.304   2.977  0.00  0.00    -0.268 OA
ATOM      4  C   UNL     1       1.198  -7.445   4.531  0.00  0.00    +0.098 C 
ATOM      5  C   UNL     1       2.041  -7.830   5.523  0.00  0.00    +0.040 C 
ATOM      6  N   UNL     1      -0.183  -7.671   4.453  0.00  0.00    -0.265 N 
ATOM      7  C   UNL     1      -0.624  -7.117   3.309  0.00  0.00    +0.314 C 
ATOM      8  O   UNL     1      -1.783  -7.131   2.940  0.00  0.00    -0.252 OA
ATOM      9  H   UNL     1      -0.724  -8.139   5.107  0.00  0.00    +0.157 HD
ENDROOT
BRANCH   5  10
ATOM     10  C   UNL     1       1.506  -8.438   6.747  0.00  0.00    +0.020 A 
ATOM     11  C   UNL     1       0.239  -8.074   7.218  0.00  0.00    +0.031 A 
ATOM     12  C   UNL     1      -0.257  -8.650   8.368  0.00  0.00    +0.042 A 
ATOM     13  C   UNL     1       0.493  -9.589   9.060  0.00  0.00    +0.023 A 
ATOM     14  C   UNL     1       1.744  -9.958   8.605  0.00  0.00    +0.047 A 
ATOM     15  C   UNL     1       2.258  -9.395   7.448  0.00  0.00    +0.124 A 
ATOM     16 CL   UNL     1      -1.827  -8.197   8.954  0.00  0.00    -0.084 Cl
BRANCH  15  17
ATOM     17  O   UNL     1       3.485  -9.761   6.998  0.00  0.00    -0.506 OA
ATOM     18  H   UNL     1       4.209  -9.224   7.348  0.00  0.00    +0.292 HD
ENDBRANCH  15  17
ENDBRANCH   5  10
BRANCH   1  19
ATOM     19  C   UNL     1       0.248  -5.864   1.341  0.00  0.00    +0.214 C 
BRANCH  19  21
ATOM     20  N   UNL     1      -0.192  -3.569   0.531  0.00  0.00    -0.284 N 
ATOM     21  C   UNL     1      -0.030  -4.402   1.578  0.00  0.00    +0.235 C 
ATOM     22  O   UNL     1      -0.107  -3.975   2.711  0.00  0.00    -0.274 OA
ATOM     23  H   UNL     1      -0.201  -3.921  -0.372  0.00  0.00    +0.155 HD
BRANCH  20  28
ATOM     24  C   UNL     1      -0.819   2.001   1.410  0.00  0.00    +0.044 C 
ATOM     25  C   UNL     1      -0.652   0.521   1.176  0.00  0.00    -0.050 A 
ATOM     26  C   UNL     1       0.227  -0.206   1.958  0.00  0.00    +0.005 A 
ATOM     27  C   UNL     1       0.382  -1.562   1.746  0.00  0.00    +0.023 A 
ATOM     28  C   UNL     1      -0.347  -2.195   0.748  0.00  0.00    +0.033 A 
ATOM     29  C   UNL     1      -1.230  -1.462  -0.034  0.00  0.00    +0.023 A 
ATOM     30  C   UNL     1      -1.383  -0.107   0.185  0.00  0.00    +0.005 A 
ENDBRANCH  20  28
ENDBRANCH  19  21
ENDBRANCH   1  19
TORSDOF 5
