REMARK  Name = ZINC21741062
REMARK  13 active torsions:
REMARK  status: ('A' for Active; 'I' for Inactive)
REMARK    1  A    between atoms: C_1  and  C_2
REMARK    2  A    between atoms: C_5  and  C_8
REMARK    3  A    between atoms: C_8  and  C_10
REMARK    4  A    between atoms: C_10  and  O_11
REMARK    5  A    between atoms: O_11  and  C_12
REMARK    6  A    between atoms: C_12  and  C_14
REMARK    7  A    between atoms: C_14  and  N_15
REMARK    8  A    between atoms: N_15  and  S_16
REMARK    9  A    between atoms: S_16  and  C_19
REMARK   10  A    between atoms: C_22  and  N_28
REMARK   11  A    between atoms: C_23  and  N_25
REMARK   12  A    between atoms: N_28  and  C_29
REMARK   13  A    between atoms: C_29  and  C_30
REMARK                            x       y       z     vdW  Elec       q    Type
REMARK                         _______ _______ _______ _____ _____    ______ ____
ROOT
ATOM      1  S   UNL     1       7.000   0.898  -0.005  0.00  0.00    +0.059 S 
ATOM      2  O   UNL     1       7.781   2.068  -0.202  0.00  0.00    -0.153 OA
ATOM      3  O   UNL     1       6.870   0.273   1.264  0.00  0.00    -0.153 OA
ENDROOT
BRANCH   1   4
ATOM      4  C   UNL     1       7.635  -0.323  -1.105  0.00  0.00    +0.108 A 
ATOM      5  C   UNL     1       7.450  -1.665  -0.827  0.00  0.00    +0.030 A 
ATOM      6  C   UNL     1       7.941  -2.625  -1.690  0.00  0.00    +0.027 A 
ATOM      7  C   UNL     1       8.632  -2.241  -2.833  0.00  0.00    +0.058 A 
ATOM      8  C   UNL     1       8.821  -0.892  -3.106  0.00  0.00    +0.149 A 
ATOM      9  C   UNL     1       8.322   0.062  -2.241  0.00  0.00    +0.063 A 
BRANCH   8  10
ATOM     10  N   UNL     1       9.557  -0.479  -4.321  0.00  0.00    +0.058 N 
ATOM     11  O   UNL     1      10.301   0.485  -4.285  0.00  0.00    -0.126 OA
ATOM     12  O   UNL     1       9.418  -1.102  -5.359  0.00  0.00    -0.126 OA
ENDBRANCH   8  10
BRANCH   7  13
ATOM     13  N   UNL     1       9.135  -3.209  -3.705  0.00  0.00    -0.335 N 
ATOM     14  H   UNL     1       9.764  -2.909  -4.556  0.00  0.00    +0.147 HD
BRANCH  13  15
ATOM     15  C   UNL     1       8.826  -4.624  -3.486  0.00  0.00    +0.176 C 
BRANCH  15  16
ATOM     16  C   UNL     1       9.484  -5.454  -4.558  0.00  0.00    +0.122 A 
ATOM     17  C   UNL     1      10.718  -5.986  -4.494  0.00  0.00    +0.046 A 
ATOM     18  C   UNL     1      10.927  -6.681  -5.708  0.00  0.00    +0.041 A 
ATOM     19  C   UNL     1       9.809  -6.532  -6.440  0.00  0.00    +0.195 A 
ATOM     20  O   UNL     1       8.936  -5.793  -5.736  0.00  0.00    -0.466 OA
ENDBRANCH  15  16
ENDBRANCH  13  15
ENDBRANCH   7  13
ENDBRANCH   1   4
BRANCH   1  21
ATOM     21  N   UNL     1       5.466   1.263  -0.512  0.00  0.00    -0.179 NA
ATOM     22  H   UNL     1       5.284   2.213  -1.035  0.00  0.00    +0.149 HD
BRANCH  21  23
ATOM     23  C   UNL     1       4.415   0.243  -0.460  0.00  0.00    +0.226 C 
BRANCH  23  24
ATOM     24  C   UNL     1       3.068   0.901  -0.614  0.00  0.00    +0.323 C 
ATOM     25  O   UNL     1       2.994   2.099  -0.753  0.00  0.00    -0.249 OA
BRANCH  24  26
ATOM     26  O   UNL     1       1.952   0.156  -0.597  0.00  0.00    -0.456 OA
BRANCH  26  27
ATOM     27  C   UNL     1       0.689   0.857  -0.751  0.00  0.00    +0.311 C 
BRANCH  27  28
ATOM     28  C   UNL     1      -0.445  -0.134  -0.707  0.00  0.00    +0.200 C 
ATOM     29  O   UNL     1      -0.212  -1.315  -0.560  0.00  0.00    -0.288 OA
BRANCH  28  34
ATOM     30  C   UNL     1      -5.872   1.679  -1.256  0.00  0.00    +0.044 C 
ATOM     31  C   UNL     1      -4.449   1.204  -1.112  0.00  0.00    -0.050 A 
ATOM     32  C   UNL     1      -4.188  -0.145  -0.946  0.00  0.00    +0.004 A 
ATOM     33  C   UNL     1      -2.889  -0.588  -0.814  0.00  0.00    +0.012 A 
ATOM     34  C   UNL     1      -1.834   0.330  -0.848  0.00  0.00    +0.021 A 
ATOM     35  C   UNL     1      -2.107   1.692  -1.011  0.00  0.00    +0.012 A 
ATOM     36  C   UNL     1      -3.411   2.119  -1.147  0.00  0.00    +0.004 A 
ENDBRANCH  28  34
ENDBRANCH  27  28
ENDBRANCH  26  27
ENDBRANCH  24  26
ENDBRANCH  23  24
ENDBRANCH  21  23
ENDBRANCH   1  21
TORSDOF 12
