REMARK  Name = ZINC00854556
REMARK  7 active torsions:
REMARK  status: ('A' for Active; 'I' for Inactive)
REMARK    1  A    between atoms: C_4  and  S_7
REMARK    2  A    between atoms: S_7  and  N_10
REMARK    3  A    between atoms: N_10  and  C_11
REMARK    4  A    between atoms: N_10  and  C_25
REMARK    5  A    between atoms: C_11  and  C_12
REMARK    6  A    between atoms: N_14  and  C_15
REMARK    7  A    between atoms: C_29  and  N_31
REMARK                            x       y       z     vdW  Elec       q    Type
REMARK                         _______ _______ _______ _____ _____    ______ ____
ROOT
ATOM      1  N   UNL     1       2.007   6.044   2.088  0.00  0.00    -0.194 N 
ENDROOT
BRANCH   1   2
ATOM      2  C   UNL     1       0.713   6.563   2.162  0.00  0.00    +0.054 A 
ATOM      3  C   UNL     1       0.353   7.652   1.379  0.00  0.00    +0.025 A 
ATOM      4  C   UNL     1      -0.929   8.159   1.451  0.00  0.00    +0.004 A 
ATOM      5  C   UNL     1      -1.852   7.590   2.310  0.00  0.00    +0.033 A 
ATOM      6  C   UNL     1      -1.496   6.510   3.095  0.00  0.00    +0.128 A 
ATOM      7  C   UNL     1      -0.217   5.994   3.024  0.00  0.00    +0.057 A 
BRANCH   6   8
ATOM      8  N   UNL     1      -2.487   5.905   4.013  0.00  0.00    +0.056 N 
ATOM      9  O   UNL     1      -2.174   4.953   4.705  0.00  0.00    -0.126 OA
ATOM     10  O   UNL     1      -3.615   6.359   4.076  0.00  0.00    -0.126 OA
ENDBRANCH   6   8
ENDBRANCH   1   2
BRANCH   1  11
ATOM     11  S   UNL     1       3.265   7.021   1.634  0.00  0.00    +0.075 S 
ATOM     12  O   UNL     1       2.846   8.358   1.867  0.00  0.00    -0.150 OA
ATOM     13  O   UNL     1       4.437   6.475   2.226  0.00  0.00    -0.150 OA
BRANCH  11  17
ATOM     14  C   UNL     1       3.753   6.580  -2.845  0.00  0.00    +0.000 A 
ATOM     15  C   UNL     1       3.005   7.622  -2.330  0.00  0.00    +0.002 A 
ATOM     16  C   UNL     1       2.856   7.756  -0.962  0.00  0.00    +0.029 A 
ATOM     17  C   UNL     1       3.455   6.849  -0.109  0.00  0.00    +0.109 A 
ATOM     18  C   UNL     1       4.208   5.810  -0.624  0.00  0.00    +0.029 A 
ATOM     19  C   UNL     1       4.353   5.673  -1.992  0.00  0.00    +0.002 A 
ENDBRANCH  11  17
ENDBRANCH   1  11
BRANCH   1  20
ATOM     20  C   UNL     1       2.252   4.637   2.413  0.00  0.00    +0.227 C 
BRANCH  20  21
ATOM     21  C   UNL     1       1.998   3.789   1.193  0.00  0.00    +0.232 C 
ATOM     22  O   UNL     1       1.647   4.309   0.155  0.00  0.00    -0.274 OA
ATOM     23  N   UNL     1       2.161   2.452   1.256  0.00  0.00    -0.311 N 
ATOM     24  H   UNL     1       2.442   2.036   2.086  0.00  0.00    +0.149 HD
BRANCH  23  25
ATOM     25  C   UNL     1       1.914   1.628   0.070  0.00  0.00    +0.076 C 
ATOM     26  C   UNL     1       1.661   0.159   0.478  0.00  0.00    +0.026 C 
ATOM     27  C   UNL     1       2.805  -0.645  -0.212  0.00  0.00    -0.009 C 
ATOM     28  C   UNL     1       4.090  -0.253   0.578  0.00  0.00    +0.004 C 
ATOM     29  C   UNL     1       4.356   1.219   0.187  0.00  0.00    +0.005 C 
ATOM     30  C   UNL     1       3.206   1.577  -0.803  0.00  0.00    +0.010 C 
ATOM     31  C   UNL     1       2.987   0.185  -1.532  0.00  0.00    +0.009 C 
ENDBRANCH  23  25
ENDBRANCH  20  21
ENDBRANCH   1  20
TORSDOF 7
