REMARK  Name = ZINC39665118
REMARK  8 active torsions:
REMARK  status: ('A' for Active; 'I' for Inactive)
REMARK    1  A    between atoms: C_1  and  C_2
REMARK    2  A    between atoms: C_2  and  C_4
REMARK    3  A    between atoms: C_2  and  O_32
REMARK    4  A    between atoms: C_4  and  N_5
REMARK    5  A    between atoms: C_6  and  C_8
REMARK    6  A    between atoms: C_19  and  C_21
REMARK    7  A    between atoms: C_24  and  C_28
REMARK    8  A    between atoms: O_32  and  C_33
REMARK                            x       y       z     vdW  Elec       q    Type
REMARK                         _______ _______ _______ _____ _____    ______ ____
ROOT
ATOM      1  C   UNL     1       1.886  -4.383   3.231  0.00  0.00    +0.100 C 
ATOM      2  C   UNL     1       2.485  -5.000   1.948  0.00  0.00    +0.121 C 
ATOM      3  N   UNL     1       3.932  -5.138   2.239  0.00  0.00    -0.296 N 
ATOM      4  C   UNL     1       3.983  -5.574   3.655  0.00  0.00    +0.115 C 
ATOM      5  C   UNL     1       2.869  -4.765   4.350  0.00  0.00    -0.004 C 
ATOM      6  C   UNL     1       3.453  -3.510   4.992  0.00  0.00    -0.010 C 
ATOM      7  C   UNL     1       4.384  -3.914   6.138  0.00  0.00    -0.082 C 
ATOM      8  N   UNL     1       3.632  -4.692   7.130  0.00  0.00    +0.379 N 
ATOM      9  C   UNL     1       3.153  -5.942   6.529  0.00  0.00    -0.082 C 
ATOM     10  C   UNL     1       2.170  -5.623   5.399  0.00  0.00    -0.010 C 
ATOM     11  C   UNL     1       4.967  -4.916   1.405  0.00  0.00    +0.249 C 
ATOM     12  O   UNL     1       6.102  -5.157   1.768  0.00  0.00    -0.270 OA
ATOM     13  H   UNL     1       4.232  -4.905   7.913  0.00  0.00    -0.086 HD
ATOM     14  H   UNL     1       2.844  -4.151   7.452  0.00  0.00    -0.086 HD
ENDROOT
BRANCH  11  15
ATOM     15  C   UNL     1       4.723  -4.381   0.050  0.00  0.00    +0.072 A 
ATOM     16  C   UNL     1       3.641  -4.843  -0.702  0.00  0.00    +0.016 A 
ATOM     17  C   UNL     1       3.418  -4.338  -1.966  0.00  0.00    +0.013 A 
ATOM     18  C   UNL     1       4.264  -3.376  -2.491  0.00  0.00    +0.058 A 
ATOM     19  C   UNL     1       5.337  -2.912  -1.754  0.00  0.00    +0.051 A 
ATOM     20  C   UNL     1       5.570  -3.404  -0.482  0.00  0.00    +0.136 A 
ATOM     21  F   UNL     1       6.616  -2.947   0.240  0.00  0.00    -0.205 F 
BRANCH  18  22
ATOM     22  C   UNL     1       4.012  -2.831  -3.873  0.00  0.00    +0.418 C 
ATOM     23  F   UNL     1       3.174  -1.714  -3.789  0.00  0.00    -0.166 F 
ATOM     24  F   UNL     1       5.229  -2.457  -4.456  0.00  0.00    -0.166 F 
ATOM     25  F   UNL     1       3.402  -3.814  -4.659  0.00  0.00    -0.166 F 
ENDBRANCH  18  22
ENDBRANCH  11  15
BRANCH   1  27
ATOM     26  N   UNL     1       0.913  -2.195   3.851  0.00  0.00    -0.312 N 
ATOM     27  C   UNL     1       1.795  -2.885   3.101  0.00  0.00    +0.218 C 
ATOM     28  O   UNL     1       2.516  -2.299   2.321  0.00  0.00    -0.275 OA
ATOM     29  H   UNL     1       0.337  -2.663   4.475  0.00  0.00    +0.149 HD
BRANCH  26  30
ATOM     30  C   UNL     1       0.826  -0.738   3.724  0.00  0.00    +0.148 C 
BRANCH  30  32
ATOM     31  C   UNL     1      -0.424   1.297   4.458  0.00  0.00    +0.053 C 
ATOM     32  C   UNL     1      -0.245  -0.206   4.679  0.00  0.00    +0.187 C 
BRANCH  32  33
ATOM     33  O   UNL     1       0.160  -0.445   6.029  0.00  0.00    -0.488 OA
BRANCH  33  34
ATOM     34  C   UNL     1      -0.823  -0.515   6.964  0.00  0.00    +0.121 A 
ATOM     35  C   UNL     1      -2.152  -0.399   6.586  0.00  0.00    +0.045 A 
ATOM     36  C   UNL     1      -3.150  -0.471   7.539  0.00  0.00    +0.004 A 
ATOM     37  C   UNL     1      -2.824  -0.659   8.869  0.00  0.00    +0.000 A 
ATOM     38  C   UNL     1      -1.499  -0.774   9.249  0.00  0.00    +0.004 A 
ATOM     39  C   UNL     1      -0.499  -0.708   8.299  0.00  0.00    +0.045 A 
ENDBRANCH  33  34
ENDBRANCH  32  33
ENDBRANCH  30  32
ENDBRANCH  26  30
ENDBRANCH   1  27
TORSDOF 7
