REMARK  Name = ZINC19503840
REMARK  7 active torsions:
REMARK  status: ('A' for Active; 'I' for Inactive)
REMARK    1  A    between atoms: C_1  and  C_2
REMARK    2  A    between atoms: C_2  and  C_3
REMARK    3  A    between atoms: C_3  and  O_4
REMARK    4  A    between atoms: O_4  and  C_5
REMARK    5  A    between atoms: C_10  and  C_11
REMARK    6  A    between atoms: C_11  and  N_12
REMARK    7  A    between atoms: C_20  and  C_25
REMARK                            x       y       z     vdW  Elec       q    Type
REMARK                         _______ _______ _______ _____ _____    ______ ____
ROOT
ATOM      1  N   UNL     1       1.794  -4.755   0.144  0.00  0.00    -0.297 NA
ATOM      2  C   UNL     1       2.135  -3.395  -0.242  0.00  0.00    +0.089 C 
ATOM      3  C   UNL     1       3.437  -3.369  -1.049  0.00  0.00    +0.058 C 
ATOM      4  C   UNL     1       3.105  -3.647  -2.500  0.00  0.00    +0.039 A 
ATOM      5  C   UNL     1       2.699  -4.872  -2.873  0.00  0.00    +0.027 A 
ATOM      6  N   UNL     1       2.401  -5.128  -4.178  0.00  0.00    -0.343 N 
ATOM      7  C   UNL     1       2.533  -4.125  -5.122  0.00  0.00    +0.138 A 
ATOM      8  C   UNL     1       2.328  -4.100  -6.469  0.00  0.00    +0.071 A 
ATOM      9  C   UNL     1       2.619  -2.812  -6.923  0.00  0.00    +0.063 A 
ATOM     10  N   UNL     1       2.987  -2.082  -5.900  0.00  0.00    -0.167 NA
ATOM     11  N   UNL     1       2.945  -2.878  -4.749  0.00  0.00    -0.180 N 
ATOM     12  C   UNL     1       3.227  -2.618  -3.456  0.00  0.00    +0.278 A 
ATOM     13  O   UNL     1       3.584  -1.504  -3.117  0.00  0.00    -0.265 OA
ATOM     14  C   UNL     1       2.526  -2.342  -8.351  0.00  0.00    +0.067 C 
ATOM     15  C   UNL     1       2.574  -5.974  -1.843  0.00  0.00    +0.069 C 
ATOM     16  C   UNL     1       1.388  -5.650  -0.929  0.00  0.00    +0.091 C 
ATOM     17  H   UNL     1       2.097  -6.010  -4.444  0.00  0.00    +0.167 HD
ENDROOT
BRANCH   1  18
ATOM     18  C   UNL     1       0.809  -4.761   1.235  0.00  0.00    +0.123 C 
BRANCH  18  24
ATOM     19  C   UNL     1       2.024  -6.175   2.910  0.00  0.00    +0.129 A 
ATOM     20  C   UNL     1       2.158  -7.338   3.653  0.00  0.00    +0.095 A 
ATOM     21  C   UNL     1       1.228  -8.356   3.520  0.00  0.00    +0.170 A 
ATOM     22  C   UNL     1       0.160  -8.208   2.638  0.00  0.00    +0.167 A 
ATOM     23  C   UNL     1       0.030  -7.045   1.898  0.00  0.00    +0.058 A 
ATOM     24  C   UNL     1       0.957  -6.028   2.037  0.00  0.00    +0.012 A 
ATOM     25  O   UNL     1      -0.607  -9.338   2.689  0.00  0.00    -0.453 OA
ATOM     26  C   UNL     1       0.226 -10.339   3.303  0.00  0.00    +0.466 C 
ATOM     27  O   UNL     1       1.131  -9.577   4.122  0.00  0.00    -0.452 OA
BRANCH  19  28
ATOM     28  O   UNL     1       2.937  -5.176   3.041  0.00  0.00    -0.492 OA
BRANCH  28  29
ATOM     29  C   UNL     1       4.011  -5.395   3.958  0.00  0.00    +0.229 C 
BRANCH  29  31
ATOM     30  C   UNL     1       6.079  -4.405   4.951  0.00  0.00    +0.007 C 
ATOM     31  C   UNL     1       4.929  -4.171   3.969  0.00  0.00    +0.038 C 
ENDBRANCH  29  31
ENDBRANCH  28  29
ENDBRANCH  19  28
ENDBRANCH  18  24
ENDBRANCH   1  18
TORSDOF 5
