REMARK  Name = ZINC08726426
REMARK  9 active torsions:
REMARK  status: ('A' for Active; 'I' for Inactive)
REMARK    1  A    between atoms: C_1  and  C_2
REMARK    2  A    between atoms: C_9  and  O_12
REMARK    3  A    between atoms: O_12  and  C_13
REMARK    4  A    between atoms: C_13  and  C_14
REMARK    5  A    between atoms: C_14  and  O_16
REMARK    6  A    between atoms: O_16  and  C_17
REMARK    7  A    between atoms: C_17  and  C_18
REMARK    8  A    between atoms: N_24  and  C_25
REMARK    9  A    between atoms: N_24  and  C_26
REMARK                            x       y       z     vdW  Elec       q    Type
REMARK                         _______ _______ _______ _____ _____    ______ ____
ROOT
ATOM      1  C   UNL     1      -5.686   2.817  -1.030  0.00  0.00    +0.346 C 
ATOM      2  O   UNL     1      -6.089   1.680  -1.101  0.00  0.00    -0.247 OA
ENDROOT
BRANCH   1   3
ATOM      3  C   UNL     1      -4.899   3.263   0.176  0.00  0.00    +0.349 C 
BRANCH   3   4
ATOM      4  O   UNL     1      -4.765   2.171   1.087  0.00  0.00    -0.477 OA
BRANCH   4  13
ATOM      5  C   UNL     1      -0.013   1.086   0.008  0.00  0.00    +0.065 C 
ATOM      6  C   UNL     1      -0.718   1.572   1.248  0.00  0.00    +0.039 A 
ATOM      7  C   UNL     1       0.024   1.802   2.404  0.00  0.00    +0.024 A 
ATOM      8  C   UNL     1      -0.599   2.243   3.537  0.00  0.00    +0.013 A 
ATOM      9  C   UNL     1      -1.990   2.452   3.493  0.00  0.00    +0.022 A 
ATOM     10  C   UNL     1      -2.697   2.905   4.619  0.00  0.00    +0.052 A 
ATOM     11  C   UNL     1      -4.043   3.098   4.543  0.00  0.00    +0.044 A 
ATOM     12  C   UNL     1      -4.736   2.852   3.359  0.00  0.00    +0.086 A 
ATOM     13  C   UNL     1      -4.077   2.407   2.235  0.00  0.00    +0.165 A 
ATOM     14  C   UNL     1      -2.683   2.198   2.283  0.00  0.00    +0.116 A 
ATOM     15  N   UNL     1      -2.013   1.772   1.208  0.00  0.00    -0.248 NA
ATOM     16 CL   UNL     1      -6.452   3.109   3.300  0.00  0.00    -0.080 Cl
ATOM     17 CL   UNL     1      -1.856   3.219   6.105  0.00  0.00    -0.083 Cl
ENDBRANCH   4  13
ENDBRANCH   3   4
ENDBRANCH   1   3
BRANCH   1  18
ATOM     18  O   UNL     1      -5.938   3.682  -2.025  0.00  0.00    -0.454 OA
BRANCH  18  19
ATOM     19  C   UNL     1      -6.701   3.183  -3.155  0.00  0.00    +0.308 C 
BRANCH  19  20
ATOM     20  C   UNL     1      -6.884   4.287  -4.164  0.00  0.00    +0.173 A 
ATOM     21  N   UNL     1      -5.991   4.457  -5.124  0.00  0.00    -0.196 NA
ATOM     22  C   UNL     1      -6.150   5.430  -6.018  0.00  0.00    +0.217 A 
ATOM     23  N   UNL     1      -7.207   6.232  -5.944  0.00  0.00    -0.181 NA
ATOM     24  C   UNL     1      -8.102   6.058  -4.978  0.00  0.00    +0.222 A 
ATOM     25  N   UNL     1      -7.939   5.079  -4.091  0.00  0.00    -0.196 NA
ATOM     26  N   UNL     1      -9.201   6.888  -4.897  0.00  0.00    -0.306 N 
ATOM     27  C   UNL     1      -9.382   7.962  -5.877  0.00  0.00    +0.132 C 
ATOM     28  C   UNL     1     -10.187   6.695  -3.831  0.00  0.00    +0.132 C 
ATOM     29  N   UNL     1      -5.217   5.607  -7.019  0.00  0.00    -0.327 N 
ATOM     30  H   UNL     1      -4.445   5.022  -7.072  0.00  0.00    +0.145 HD
ATOM     31  H   UNL     1      -5.333   6.317  -7.670  0.00  0.00    +0.145 HD
ENDBRANCH  19  20
ENDBRANCH  18  19
ENDBRANCH   1  18
TORSDOF 6
