REMARK  Name = ZINC52358402
REMARK  7 active torsions:
REMARK  status: ('A' for Active; 'I' for Inactive)
REMARK    1  A    between atoms: C_1  and  N_2
REMARK    2  A    between atoms: N_2  and  C_3
REMARK    3  A    between atoms: C_4  and  C_6
REMARK    4  A    between atoms: C_6  and  C_7
REMARK    5  A    between atoms: C_10  and  N_13
REMARK    6  A    between atoms: N_13  and  C_14
REMARK    7  A    between atoms: C_17  and  N_21
REMARK                            x       y       z     vdW  Elec       q    Type
REMARK                         _______ _______ _______ _____ _____    ______ ____
ROOT
ATOM      1  C   UNL     1       0.145  -2.583  -2.636  0.00  0.00    -0.039 A 
ATOM      2  C   UNL     1      -1.056  -2.597  -3.321  0.00  0.00    +0.006 A 
ATOM      3  C   UNL     1      -1.109  -3.080  -4.614  0.00  0.00    +0.023 A 
ATOM      4  C   UNL     1       0.046  -3.551  -5.226  0.00  0.00    +0.031 A 
ATOM      5  C   UNL     1       1.251  -3.534  -4.535  0.00  0.00    +0.023 A 
ATOM      6  C   UNL     1       1.298  -3.046  -3.244  0.00  0.00    +0.006 A 
ENDROOT
BRANCH   4   7
ATOM      7  N   UNL     1      -0.005  -4.040  -6.534  0.00  0.00    -0.313 N 
ATOM      8  H   UNL     1      -0.528  -3.575  -7.206  0.00  0.00    +0.152 HD
BRANCH   7   9
ATOM      9  C   UNL     1       0.698  -5.199  -6.874  0.00  0.00    +0.050 A 
ATOM     10  C   UNL     1       1.317  -5.954  -5.885  0.00  0.00    +0.027 A 
ATOM     11  C   UNL     1       2.010  -7.099  -6.224  0.00  0.00    +0.034 A 
ATOM     12  C   UNL     1       2.090  -7.495  -7.547  0.00  0.00    +0.128 A 
ATOM     13  C   UNL     1       1.476  -6.747  -8.535  0.00  0.00    +0.054 A 
ATOM     14  C   UNL     1       0.774  -5.604  -8.202  0.00  0.00    +0.064 A 
ATOM     15 CL   UNL     1      -0.003  -4.669  -9.441  0.00  0.00    -0.082 Cl
BRANCH  12  16
ATOM     16  N   UNL     1       2.835  -8.723  -7.906  0.00  0.00    +0.056 N 
ATOM     17  O   UNL     1       3.373  -9.378  -7.044  0.00  0.00    -0.126 OA
ATOM     18  O   UNL     1       2.905  -9.070  -9.062  0.00  0.00    -0.126 OA
ENDBRANCH  12  16
ENDBRANCH   7   9
ENDBRANCH   4   7
BRANCH   1  19
ATOM     19  C   UNL     1       0.200  -2.055  -1.225  0.00  0.00    +0.131 C 
BRANCH  19  23
ATOM     20  C   UNL     1       0.844   1.555  -0.126  0.00  0.00    +0.131 C 
ATOM     21  N   UNL     1       0.572   0.115  -0.099  0.00  0.00    -0.307 N 
ATOM     22  C   UNL     1       0.402  -0.574   1.182  0.00  0.00    +0.131 C 
ATOM     23  C   UNL     1       0.479  -0.575  -1.253  0.00  0.00    +0.219 C 
ATOM     24  O   UNL     1       0.620  -0.004  -2.314  0.00  0.00    -0.275 OA
ENDBRANCH  19  23
ENDBRANCH   1  19
TORSDOF 5
