REMARK  Name = ZINC09813338
REMARK  8 active torsions:
REMARK  status: ('A' for Active; 'I' for Inactive)
REMARK    1  A    between atoms: C_1  and  C_2
REMARK    2  A    between atoms: C_2  and  C_4
REMARK    3  A    between atoms: C_2  and  O_17
REMARK    4  A    between atoms: N_6  and  C_7
REMARK    5  A    between atoms: C_10  and  S_13
REMARK    6  A    between atoms: S_13  and  N_16
REMARK    7  A    between atoms: O_17  and  C_18
REMARK    8  A    between atoms: C_18  and  C_20
REMARK                            x       y       z     vdW  Elec       q    Type
REMARK                         _______ _______ _______ _____ _____    ______ ____
ROOT
ATOM      1  C   UNL     1       1.751  -4.648  -1.570  0.00  0.00    +0.062 C 
ATOM      2  C   UNL     1       2.425  -4.236  -0.260  0.00  0.00    +0.259 C 
ENDROOT
BRANCH   2   3
ATOM      3  C   UNL     1       2.410  -2.734  -0.138  0.00  0.00    +0.258 C 
ATOM      4  O   UNL     1       3.452  -2.114  -0.144  0.00  0.00    -0.271 OA
ATOM      5  N   UNL     1       1.237  -2.079  -0.021  0.00  0.00    -0.282 N 
ATOM      6  H   UNL     1       0.409  -2.578   0.061  0.00  0.00    +0.155 HD
BRANCH   5   7
ATOM      7  C   UNL     1       1.214  -0.680  -0.019  0.00  0.00    +0.034 A 
ATOM      8  C   UNL     1       2.137   0.032  -0.773  0.00  0.00    +0.025 A 
ATOM      9  C   UNL     1       2.112   1.413  -0.768  0.00  0.00    +0.030 A 
ATOM     10  C   UNL     1       1.169   2.086  -0.014  0.00  0.00    +0.105 A 
ATOM     11  C   UNL     1       0.249   1.380   0.739  0.00  0.00    +0.030 A 
ATOM     12  C   UNL     1       0.269  -0.001   0.738  0.00  0.00    +0.025 A 
BRANCH  10  13
ATOM     13  S   UNL     1       1.141   3.848  -0.010  0.00  0.00    +0.056 S 
ATOM     14  O   UNL     1       0.513   4.241   1.202  0.00  0.00    -0.153 OA
ATOM     15  O   UNL     1       2.449   4.276  -0.363  0.00  0.00    -0.153 OA
BRANCH  13  16
ATOM     16  N   UNL     1       0.139   4.324  -1.239  0.00  0.00    -0.204 NA
ATOM     17  H   UNL     1      -0.357   5.155  -1.166  0.00  0.00    +0.144 HD
ATOM     18  H   UNL     1       0.048   3.773  -2.032  0.00  0.00    +0.144 HD
ENDBRANCH  13  16
ENDBRANCH  10  13
ENDBRANCH   5   7
ENDBRANCH   2   3
BRANCH   2  19
ATOM     19  O   UNL     1       3.798  -4.708  -0.253  0.00  0.00    -0.448 OA
BRANCH  19  20
ATOM     20  C   UNL     1       4.021  -5.937   0.258  0.00  0.00    +0.347 C 
ATOM     21  O   UNL     1       3.092  -6.595   0.685  0.00  0.00    -0.244 OA
BRANCH  20  22
ATOM     22  C   UNL     1       5.381  -6.478   0.297  0.00  0.00    +0.097 A 
ATOM     23  C   UNL     1       5.822  -7.692   0.776  0.00  0.00    +0.026 A 
ATOM     24  C   UNL     1       7.186  -7.988   0.679  0.00  0.00    -0.036 A 
ATOM     25  C   UNL     1       7.983  -7.028   0.179  0.00  0.00    -0.006 A 
ATOM     26  S   UNL     1       6.905  -5.737  -0.253  0.00  0.00    -0.086 S 
ATOM     27  C   UNL     1       9.481  -6.911   0.037  0.00  0.00    +0.043 C 
ATOM     28  C   UNL     1      10.210  -8.130   0.603  0.00  0.00    +0.005 C 
ATOM     29  C   UNL     1      10.167  -9.302  -0.365  0.00  0.00    +0.000 C 
ATOM     30  C   UNL     1       8.844  -9.424  -1.091  0.00  0.00    +0.000 C 
ATOM     31  C   UNL     1       7.896 -10.197  -0.165  0.00  0.00    +0.005 C 
ATOM     32  C   UNL     1       7.658  -9.372   1.099  0.00  0.00    +0.036 C 
ENDBRANCH  20  22
ENDBRANCH  19  20
ENDBRANCH   2  19
TORSDOF 7
