REMARK  Name = ZINC21011567
REMARK  12 active torsions:
REMARK  status: ('A' for Active; 'I' for Inactive)
REMARK    1  A    between atoms: C_1  and  C_2
REMARK    2  A    between atoms: C_2  and  N_3
REMARK    3  A    between atoms: C_5  and  C_11
REMARK    4  A    between atoms: C_6  and  O_8
REMARK    5  A    between atoms: O_8  and  C_9
REMARK    6  A    between atoms: C_9  and  C_10
REMARK    7  A    between atoms: C_17  and  S_19
REMARK    8  A    between atoms: S_19  and  C_20
REMARK    9  A    between atoms: C_20  and  C_21
REMARK   10  A    between atoms: N_23  and  C_24
REMARK   11  A    between atoms: C_26  and  C_31
REMARK   12  A    between atoms: C_29  and  C_30
REMARK                            x       y       z     vdW  Elec       q    Type
REMARK                         _______ _______ _______ _____ _____    ______ ____
ROOT
ATOM      1  C   UNL     1      -1.014   3.838   4.326  0.00  0.00    +0.256 C 
ATOM      2  O   UNL     1      -1.937   3.916   5.114  0.00  0.00    -0.270 OA
ATOM      3  N   UNL     1       0.115   4.543   4.538  0.00  0.00    -0.259 N 
ATOM      4  C   UNL     1       0.224   5.361   5.659  0.00  0.00    +0.189 A 
ATOM      5  N   UNL     1      -0.650   5.581   6.621  0.00  0.00    -0.125 NA
ATOM      6  N   UNL     1      -0.335   6.438   7.651  0.00  0.00    -0.133 NA
ATOM      7  C   UNL     1       0.842   7.035   7.670  0.00  0.00    +0.160 A 
ATOM      8  S   UNL     1       1.590   6.386   6.183  0.00  0.00    -0.024 S 
ATOM      9  H   UNL     1       0.950   4.473   3.825  0.00  0.00    +0.157 HD
ENDROOT
BRANCH   1  12
ATOM     10  N   UNL     1      -0.671   1.925   1.265  0.00  0.00    -0.267 N 
ATOM     11  C   UNL     1      -0.168   2.781   2.167  0.00  0.00    +0.125 A 
ATOM     12  C   UNL     1      -1.130   2.974   3.140  0.00  0.00    +0.117 A 
ATOM     13  C   UNL     1      -2.247   2.177   2.785  0.00  0.00    +0.246 A 
ATOM     14  N   UNL     1      -1.960   1.559   1.668  0.00  0.00    -0.133 NA
BRANCH  10  16
ATOM     15  C   UNL     1       0.044  -0.082   0.064  0.00  0.00    +0.029 C 
ATOM     16  C   UNL     1       0.016   1.448   0.063  0.00  0.00    +0.140 C 
ENDBRANCH  10  16
BRANCH  13  17
ATOM     17  O   UNL     1      -3.409   2.073   3.481  0.00  0.00    -0.475 OA
BRANCH  17  18
ATOM     18  C   UNL     1      -4.412   1.210   2.943  0.00  0.00    +0.227 C 
ATOM     19  C   UNL     1      -5.639   1.222   3.857  0.00  0.00    +0.048 C 
ENDBRANCH  17  18
ENDBRANCH  13  17
ENDBRANCH   1  12
BRANCH   7  20
ATOM     20  S   UNL     1       1.501   8.165   8.850  0.00  0.00    -0.088 S 
BRANCH  20  21
ATOM     21  C   UNL     1       0.177   8.341  10.077  0.00  0.00    +0.172 C 
BRANCH  21  22
ATOM     22  C   UNL     1       0.617   9.294  11.158  0.00  0.00    +0.227 C 
ATOM     23  O   UNL     1       1.716   9.805  11.107  0.00  0.00    -0.275 OA
ATOM     24  N   UNL     1      -0.211   9.579  12.183  0.00  0.00    -0.285 N 
ATOM     25  H   UNL     1      -1.240   9.190  12.184  0.00  0.00    +0.155 HD
BRANCH  24  26
ATOM     26  C   UNL     1       0.238  10.372  13.245  0.00  0.00    +0.037 A 
ATOM     27  C   UNL     1       1.594  10.442  13.537  0.00  0.00    +0.027 A 
ATOM     28  C   UNL     1       2.034  11.229  14.582  0.00  0.00    -0.049 A 
ATOM     29  C   UNL     1       1.125  11.938  15.346  0.00  0.00    +0.004 A 
ATOM     30  C   UNL     1      -0.226  11.867  15.062  0.00  0.00    +0.005 A 
ATOM     31  C   UNL     1      -0.672  11.085  14.014  0.00  0.00    -0.029 A 
ATOM     32  C   UNL     1      -2.145  11.008  13.705  0.00  0.00    +0.045 C 
ATOM     33  C   UNL     1       3.506  11.309  14.896  0.00  0.00    +0.044 C 
ENDBRANCH  24  26
ENDBRANCH  21  22
ENDBRANCH  20  21
ENDBRANCH   7  20
TORSDOF 8
