REMARK  Name = ZINC18085726
REMARK  8 active torsions:
REMARK  status: ('A' for Active; 'I' for Inactive)
REMARK    1  A    between atoms: C_4  and  N_15
REMARK    2  A    between atoms: C_5  and  C_7
REMARK    3  A    between atoms: N_9  and  C_10
REMARK    4  A    between atoms: C_16  and  C_18
REMARK    5  A    between atoms: C_18  and  C_19
REMARK    6  A    between atoms: C_19  and  C_20
REMARK    7  A    between atoms: C_20  and  N_21
REMARK    8  A    between atoms: C_25  and  N_31
REMARK                            x       y       z     vdW  Elec       q    Type
REMARK                         _______ _______ _______ _____ _____    ______ ____
ROOT
ATOM      1  N   UNL     1      -4.436   8.560  -3.019  0.00  0.00    -0.285 N 
ATOM      2  C   UNL     1      -3.982   7.313  -2.784  0.00  0.00    +0.217 C 
ATOM      3  O   UNL     1      -3.733   6.573  -3.712  0.00  0.00    -0.275 OA
ATOM      4  H   UNL     1      -4.711   9.123  -2.279  0.00  0.00    +0.155 HD
ENDROOT
BRANCH   1   8
ATOM      5  C   UNL     1      -4.659   9.992  -6.929  0.00  0.00    +0.001 A 
ATOM      6  C   UNL     1      -3.759   8.991  -6.602  0.00  0.00    +0.002 A 
ATOM      7  C   UNL     1      -3.683   8.515  -5.309  0.00  0.00    +0.024 A 
ATOM      8  C   UNL     1      -4.511   9.039  -4.325  0.00  0.00    +0.046 A 
ATOM      9  C   UNL     1      -5.428  10.048  -4.654  0.00  0.00    +0.058 A 
ATOM     10  C   UNL     1      -5.489  10.524  -5.966  0.00  0.00    +0.015 A 
BRANCH   9  11
ATOM     11  C   UNL     1      -6.318  10.607  -3.619  0.00  0.00    +0.246 C 
ATOM     12  O   UNL     1      -6.198  10.259  -2.461  0.00  0.00    -0.270 OA
ATOM     13  N   UNL     1      -7.265  11.505  -3.959  0.00  0.00    -0.308 N 
ATOM     14  H   UNL     1      -7.361  11.782  -4.883  0.00  0.00    +0.149 HD
BRANCH  13  15
ATOM     15  C   UNL     1      -8.149  12.060  -2.932  0.00  0.00    +0.073 C 
ATOM     16  C   UNL     1      -9.383  11.153  -2.749  0.00  0.00    +0.022 C 
ATOM     17  C   UNL     1     -10.548  12.142  -2.497  0.00  0.00    +0.002 C 
ATOM     18  C   UNL     1     -10.213  13.315  -3.451  0.00  0.00    +0.002 C 
ATOM     19  C   UNL     1      -8.677  13.435  -3.378  0.00  0.00    +0.022 C 
ENDBRANCH  13  15
ENDBRANCH   9  11
ENDBRANCH   1   8
BRANCH   2  20
ATOM     20  C   UNL     1      -3.782   6.838  -1.367  0.00  0.00    +0.098 C 
BRANCH  20  21
ATOM     21  C   UNL     1      -3.263   5.399  -1.380  0.00  0.00    +0.031 C 
BRANCH  21  22
ATOM     22  C   UNL     1      -3.061   4.918   0.059  0.00  0.00    +0.129 C 
BRANCH  22  23
ATOM     23  N   UNL     1      -2.564   3.540   0.047  0.00  0.00    -0.274 N 
ATOM     24  C   UNL     1      -1.226   3.145   0.019  0.00  0.00    +0.090 A 
ATOM     25  C   UNL     1      -0.029   3.843  -0.004  0.00  0.00    +0.032 A 
ATOM     26  C   UNL     1       1.168   3.153  -0.029  0.00  0.00    +0.035 A 
ATOM     27  C   UNL     1       1.173   1.769  -0.031  0.00  0.00    +0.130 A 
ATOM     28  C   UNL     1      -0.016   1.067  -0.009  0.00  0.00    +0.081 A 
ATOM     29  C   UNL     1      -1.222   1.751   0.011  0.00  0.00    +0.159 A 
ATOM     30  O   UNL     1      -2.515   1.344   0.042  0.00  0.00    -0.407 OA
ATOM     31  C   UNL     1      -3.316   2.421   0.060  0.00  0.00    +0.421 A 
ATOM     32  O   UNL     1      -4.531   2.392   0.085  0.00  0.00    -0.223 OA
BRANCH  27  33
ATOM     33  N   UNL     1       2.460   1.038  -0.058  0.00  0.00    +0.057 N 
ATOM     34  O   UNL     1       2.468  -0.180  -0.061  0.00  0.00    -0.126 OA
ATOM     35  O   UNL     1       3.510   1.654  -0.078  0.00  0.00    -0.126 OA
ENDBRANCH  27  33
ENDBRANCH  22  23
ENDBRANCH  21  22
ENDBRANCH  20  21
ENDBRANCH   2  20
TORSDOF 8
