REMARK  Name = ZINC18970048
REMARK  11 active torsions:
REMARK  status: ('A' for Active; 'I' for Inactive)
REMARK    1  A    between atoms: C_1  and  C_2
REMARK    2  A    between atoms: N_11  and  C_15
REMARK    3  A    between atoms: C_15  and  C_16
REMARK    4  A    between atoms: C_16  and  O_18
REMARK    5  A    between atoms: O_18  and  C_19
REMARK    6  A    between atoms: C_19  and  C_20
REMARK    7  A    between atoms: N_22  and  C_23
REMARK    8  A    between atoms: C_23  and  C_24
REMARK    9  A    between atoms: C_24  and  C_25
REMARK   10  A    between atoms: C_28  and  O_31
REMARK   11  A    between atoms: O_31  and  C_32
REMARK                            x       y       z     vdW  Elec       q    Type
REMARK                         _______ _______ _______ _____ _____    ______ ____
ROOT
ATOM      1  O   UNL     1       1.241  -6.806  -4.023  0.00  0.00    -0.454 OA
ENDROOT
BRANCH   1   2
ATOM      2  C   UNL     1       1.254  -8.136  -4.206  0.00  0.00    +0.326 C 
ATOM      3  O   UNL     1       1.272  -8.877  -3.252  0.00  0.00    -0.249 OA
BRANCH   2   4
ATOM      4  C   UNL     1       1.248  -8.705  -5.601  0.00  0.00    +0.238 C 
BRANCH   4  14
ATOM      5  C   UNL     1       0.628 -12.438  -7.916  0.00  0.00    +0.010 C 
ATOM      6  C   UNL     1       0.180 -13.150  -6.638  0.00  0.00    +0.018 C 
ATOM      7  C   UNL     1      -1.348 -13.242  -6.614  0.00  0.00    +0.006 C 
ATOM      8  C   UNL     1      -1.796 -13.936  -5.326  0.00  0.00    +0.000 C 
ATOM      9  C   UNL     1      -1.325 -13.125  -4.117  0.00  0.00    +0.003 C 
ATOM     10  C   UNL     1       0.203 -13.032  -4.131  0.00  0.00    +0.035 C 
ATOM     11  C   UNL     1       0.661 -12.363  -5.423  0.00  0.00    +0.115 C 
ATOM     12  C   UNL     1       0.159 -10.939  -5.486  0.00  0.00    +0.247 C 
ATOM     13  O   UNL     1      -0.995 -10.567  -5.493  0.00  0.00    -0.273 OA
ATOM     14  N   UNL     1       1.265 -10.168  -5.532  0.00  0.00    -0.213 N 
ATOM     15  C   UNL     1       2.381 -10.907  -5.513  0.00  0.00    +0.310 C 
ATOM     16  O   UNL     1       3.503 -10.439  -5.551  0.00  0.00    -0.252 OA
ATOM     17  N   UNL     1       2.123 -12.227  -5.443  0.00  0.00    -0.285 N 
ATOM     18  H   UNL     1       2.773 -12.946  -5.415  0.00  0.00    +0.151 HD
ENDBRANCH   4  14
ENDBRANCH   2   4
ENDBRANCH   1   2
BRANCH   1  19
ATOM     19  C   UNL     1       1.248  -6.330  -2.652  0.00  0.00    +0.327 C 
BRANCH  19  20
ATOM     20  C   UNL     1       1.231  -4.823  -2.644  0.00  0.00    +0.251 C 
ATOM     21  O   UNL     1       1.214  -4.211  -3.691  0.00  0.00    -0.272 OA
ATOM     22  N   UNL     1       1.234  -4.155  -1.474  0.00  0.00    -0.312 N 
ATOM     23  H   UNL     1       1.248  -4.644  -0.636  0.00  0.00    +0.149 HD
BRANCH  22  24
ATOM     24  C   UNL     1       1.217  -2.690  -1.466  0.00  0.00    +0.109 C 
BRANCH  24  25
ATOM     25  C   UNL     1       1.226  -2.187  -0.021  0.00  0.00    +0.054 C 
BRANCH  25  26
ATOM     26  C   UNL     1       1.208  -0.680  -0.013  0.00  0.00    -0.046 A 
ATOM     27  C   UNL     1       0.002  -0.004   0.002  0.00  0.00    +0.007 A 
ATOM     28  C   UNL     1      -0.017   1.377   0.010  0.00  0.00    +0.046 A 
ATOM     29  C   UNL     1       1.176   2.086   0.002  0.00  0.00    +0.127 A 
ATOM     30  C   UNL     1       2.385   1.405  -0.013  0.00  0.00    +0.046 A 
ATOM     31  C   UNL     1       2.398   0.024  -0.021  0.00  0.00    +0.007 A 
BRANCH  29  32
ATOM     32  O   UNL     1       1.160   3.445   0.009  0.00  0.00    -0.434 OA
BRANCH  32  33
ATOM     33  C   UNL     1       2.426   4.108   0.001  0.00  0.00    +0.541 C 
ATOM     34  F   UNL     1       3.156   3.735   1.134  0.00  0.00    -0.166 F 
ATOM     35  F   UNL     1       3.134   3.747  -1.150  0.00  0.00    -0.166 F 
ENDBRANCH  32  33
ENDBRANCH  29  32
ENDBRANCH  25  26
ENDBRANCH  24  25
ENDBRANCH  22  24
ENDBRANCH  19  20
ENDBRANCH   1  19
TORSDOF 10
