REMARK  Name = ZINC12382061
REMARK  6 active torsions:
REMARK  status: ('A' for Active; 'I' for Inactive)
REMARK    1  A    between atoms: C_1  and  C_2
REMARK    2  A    between atoms: C_2  and  C_3
REMARK    3  A    between atoms: C_2  and  C_4
REMARK    4  A    between atoms: C_15  and  O_23
REMARK    5  A    between atoms: C_17  and  N_20
REMARK    6  A    between atoms: O_23  and  C_24
REMARK                            x       y       z     vdW  Elec       q    Type
REMARK                         _______ _______ _______ _____ _____    ______ ____
ROOT
ATOM      1  C   UNL     1      -0.794   3.202  -2.029  0.00  0.00    +0.077 C 
ATOM      2  C   UNL     1      -0.146   3.819  -0.788  0.00  0.00    +0.024 C 
ATOM      3  C   UNL     1       0.063   2.681   0.248  0.00  0.00    +0.033 C 
ATOM      4  C   UNL     1       1.361   2.032  -0.190  0.00  0.00    -0.030 C 
ATOM      5  C   UNL     1       2.056   2.853  -0.937  0.00  0.00    -0.023 C 
ATOM      6  C   UNL     1       1.324   4.163  -1.107  0.00  0.00    +0.048 C 
ATOM      7  C   UNL     1       1.478   4.676  -2.509  0.00  0.00    -0.014 A 
ATOM      8  C   UNL     1       2.720   5.168  -2.888  0.00  0.00    +0.051 A 
ATOM      9  C   UNL     1       2.926   5.650  -4.169  0.00  0.00    +0.123 A 
ATOM     10  C   UNL     1       1.885   5.643  -5.086  0.00  0.00    +0.080 A 
ATOM     11  C   UNL     1       0.650   5.157  -4.715  0.00  0.00    +0.151 A 
ATOM     12  C   UNL     1       0.441   4.673  -3.424  0.00  0.00    +0.062 A 
ATOM     13  N   UNL     1      -0.833   4.196  -3.103  0.00  0.00    -0.338 N 
ATOM     14  H   UNL     1      -1.456   4.955  -2.869  0.00  0.00    +0.146 HD
ENDROOT
BRANCH   1  16
ATOM     15  C   UNL     1      -0.511   0.729  -1.806  0.00  0.00    +0.009 C 
ATOM     16  C   UNL     1       0.025   1.992  -2.484  0.00  0.00    +0.003 C 
ATOM     17  C   UNL     1      -0.087   1.842  -4.002  0.00  0.00    +0.009 C 
ENDBRANCH   1  16
BRANCH  11  18
ATOM     18  N   UNL     1      -0.462   5.150  -5.692  0.00  0.00    +0.058 N 
ATOM     19  O   UNL     1      -0.283   5.572  -6.820  0.00  0.00    -0.126 OA
ATOM     20  O   UNL     1      -1.555   4.722  -5.368  0.00  0.00    -0.126 OA
ENDBRANCH  11  18
BRANCH   9  21
ATOM     21  O   UNL     1       4.147   6.131  -4.528  0.00  0.00    -0.495 OA
ATOM     22  C   UNL     1       4.287   6.612  -5.866  0.00  0.00    +0.277 C 
ENDBRANCH   9  21
TORSDOF 3
