REMARK  Name = ZINC09208014
REMARK  8 active torsions:
REMARK  status: ('A' for Active; 'I' for Inactive)
REMARK    1  A    between atoms: C_1  and  C_2
REMARK    2  A    between atoms: C_2  and  C_3
REMARK    3  A    between atoms: N_5  and  C_28
REMARK    4  A    between atoms: C_9  and  S_11
REMARK    5  A    between atoms: S_11  and  C_12
REMARK    6  A    between atoms: C_12  and  C_13
REMARK    7  A    between atoms: N_19  and  C_20
REMARK    8  A    between atoms: C_23  and  C_26
REMARK                            x       y       z     vdW  Elec       q    Type
REMARK                         _______ _______ _______ _____ _____    ______ ____
ROOT
ATOM      1  C   UNL     1       2.034   6.300   0.292  0.00  0.00    +0.146 A 
ATOM      2  N   UNL     1       3.067   5.489   0.438  0.00  0.00    -0.199 NA
ATOM      3  C   UNL     1       2.902   4.173   0.334  0.00  0.00    +0.217 A 
ATOM      4  N   UNL     1       1.696   3.674   0.083  0.00  0.00    -0.181 NA
ATOM      5  C   UNL     1       0.660   4.492  -0.063  0.00  0.00    +0.224 A 
ATOM      6  N   UNL     1       0.835   5.808   0.037  0.00  0.00    -0.198 NA
ATOM      7  N   UNL     1      -0.595   3.979  -0.324  0.00  0.00    -0.284 N 
ATOM      8  N   UNL     1       3.982   3.326   0.487  0.00  0.00    -0.327 N 
ATOM      9  H   UNL     1      -1.336   4.578  -0.504  0.00  0.00    +0.155 HD
ATOM     10  H   UNL     1       3.860   2.367   0.411  0.00  0.00    +0.145 HD
ATOM     11  H   UNL     1       4.862   3.691   0.670  0.00  0.00    +0.145 HD
ENDROOT
BRANCH   7  12
ATOM     12  C   UNL     1      -0.798   2.595  -0.328  0.00  0.00    +0.034 A 
ATOM     13  C   UNL     1      -0.148   1.794   0.602  0.00  0.00    +0.023 A 
ATOM     14  C   UNL     1      -0.351   0.428   0.596  0.00  0.00    +0.005 A 
ATOM     15  C   UNL     1      -1.199  -0.142  -0.336  0.00  0.00    -0.050 A 
ATOM     16  C   UNL     1      -1.847   0.652  -1.263  0.00  0.00    +0.005 A 
ATOM     17  C   UNL     1      -1.649   2.019  -1.263  0.00  0.00    +0.023 A 
ATOM     18  C   UNL     1      -1.417  -1.634  -0.340  0.00  0.00    +0.044 C 
ENDBRANCH   7  12
BRANCH   1  19
ATOM     19  C   UNL     1       2.226   7.790   0.411  0.00  0.00    +0.152 C 
BRANCH  19  20
ATOM     20  S   UNL     1       2.614   8.482  -1.220  0.00  0.00    -0.089 S 
BRANCH  20  27
ATOM     21  C   UNL     1       3.546  14.743  -2.195  0.00  0.00    +0.221 C 
ATOM     22  O   UNL     1       3.499  14.031  -3.175  0.00  0.00    -0.275 OA
ATOM     23  N   UNL     1       3.386  14.212  -0.967  0.00  0.00    -0.246 N 
ATOM     24  C   UNL     1       3.166  12.844  -0.823  0.00  0.00    +0.191 A 
ATOM     25  N   UNL     1       2.874  12.139   0.258  0.00  0.00    -0.125 NA
ATOM     26  N   UNL     1       2.703  10.890   0.215  0.00  0.00    -0.133 NA
ATOM     27  C   UNL     1       2.806  10.207  -0.916  0.00  0.00    +0.160 A 
ATOM     28  S   UNL     1       3.204  11.538  -2.047  0.00  0.00    -0.024 S 
BRANCH  23  29
ATOM     29  C   UNL     1       3.443  15.073   0.217  0.00  0.00    +0.084 C 
ATOM     30  C   UNL     1       3.606  14.393   1.578  0.00  0.00    +0.025 C 
ATOM     31  C   UNL     1       2.263  15.017   1.190  0.00  0.00    +0.025 C 
ENDBRANCH  23  29
BRANCH  21  33
ATOM     32  C   UNL     1       3.931  16.563  -3.834  0.00  0.00    +0.013 C 
ATOM     33  C   UNL     1       3.784  16.223  -2.350  0.00  0.00    +0.093 C 
ENDBRANCH  21  33
ENDBRANCH  20  27
ENDBRANCH  19  20
ENDBRANCH   1  19
TORSDOF 6
