REMARK  Name = ZINC39016108
REMARK  6 active torsions:
REMARK  status: ('A' for Active; 'I' for Inactive)
REMARK    1  A    between atoms: C_1  and  O_2
REMARK    2  A    between atoms: O_2  and  C_3
REMARK    3  A    between atoms: C_3  and  C_5
REMARK    4  A    between atoms: C_7  and  N_15
REMARK    5  A    between atoms: C_16  and  C_18
REMARK    6  A    between atoms: C_19  and  C_20
REMARK                            x       y       z     vdW  Elec       q    Type
REMARK                         _______ _______ _______ _____ _____    ______ ____
ROOT
ATOM      1  N   UNL     1       0.012  -2.481   2.396  0.00  0.00    -0.283 N 
ATOM      2  C   UNL     1       0.003  -3.130   3.577  0.00  0.00    +0.241 C 
ATOM      3  O   UNL     1      -0.876  -3.934   3.823  0.00  0.00    -0.271 OA
ATOM      4  H   UNL     1       0.756  -1.903   2.165  0.00  0.00    +0.155 HD
ENDROOT
BRANCH   1   6
ATOM      5  C   UNL     1      -2.188  -3.592   1.656  0.00  0.00    +0.234 C 
ATOM      6  C   UNL     1      -1.024  -2.635   1.528  0.00  0.00    +0.053 C 
ATOM      7  C   UNL     1      -1.230  -1.949   0.342  0.00  0.00    +0.018 A 
ATOM      8  C   UNL     1      -0.494  -0.935  -0.315  0.00  0.00    +0.011 A 
ATOM      9  C   UNL     1      -0.944  -0.434  -1.493  0.00  0.00    +0.001 A 
ATOM     10  C   UNL     1      -2.124  -0.894  -2.082  0.00  0.00    +0.002 A 
ATOM     11  C   UNL     1      -2.880  -1.862  -1.509  0.00  0.00    +0.026 A 
ATOM     12  C   UNL     1      -2.475  -2.436  -0.276  0.00  0.00    +0.045 A 
ATOM     13  N   UNL     1      -3.025  -3.374   0.472  0.00  0.00    -0.367 N 
ATOM     14  H   UNL     1      -3.850  -3.844   0.272  0.00  0.00    +0.161 HD
BRANCH   5  15
ATOM     15  C   UNL     1      -1.690  -5.014   1.685  0.00  0.00    +0.335 C 
ATOM     16  O   UNL     1      -1.308  -5.541   0.667  0.00  0.00    -0.248 OA
BRANCH  15  18
ATOM     17  C   UNL     1      -1.187  -7.039   2.795  0.00  0.00    +0.280 C 
ATOM     18  O   UNL     1      -1.672  -5.696   2.841  0.00  0.00    -0.466 OA
ENDBRANCH  15  18
ENDBRANCH   5  15
ENDBRANCH   1   6
BRANCH   2  19
ATOM     19  C   UNL     1       1.019  -2.876   4.533  0.00  0.00    +0.068 C 
ATOM     20  C   UNL     1       1.011  -3.526   5.717  0.00  0.00    +0.013 C 
BRANCH  20  21
ATOM     21  C   UNL     1       2.064  -3.263   6.707  0.00  0.00    -0.021 A 
ATOM     22  C   UNL     1       3.073  -2.334   6.429  0.00  0.00    +0.012 A 
ATOM     23  C   UNL     1       4.058  -2.088   7.360  0.00  0.00    +0.050 A 
ATOM     24  C   UNL     1       4.055  -2.760   8.576  0.00  0.00    +0.166 A 
ATOM     25  C   UNL     1       3.052  -3.688   8.860  0.00  0.00    +0.167 A 
ATOM     26  C   UNL     1       2.057  -3.936   7.935  0.00  0.00    +0.057 A 
ATOM     27  O   UNL     1       3.275  -4.202  10.105  0.00  0.00    -0.453 OA
ATOM     28  C   UNL     1       4.645  -3.885  10.412  0.00  0.00    +0.466 C 
ATOM     29  O   UNL     1       4.902  -2.695   9.643  0.00  0.00    -0.453 OA
ENDBRANCH  20  21
ENDBRANCH   2  19
TORSDOF 5
