REMARK  Name = ZINC36430666
REMARK  9 active torsions:
REMARK  status: ('A' for Active; 'I' for Inactive)
REMARK    1  A    between atoms: C_1  and  C_2
REMARK    2  A    between atoms: C_2  and  C_3
REMARK    3  A    between atoms: C_2  and  N_10
REMARK    4  A    between atoms: C_11  and  C_13
REMARK    5  A    between atoms: C_13  and  S_14
REMARK    6  A    between atoms: S_14  and  C_15
REMARK    7  A    between atoms: C_19  and  S_25
REMARK    8  A    between atoms: N_23  and  C_24
REMARK    9  A    between atoms: S_25  and  N_28
REMARK                            x       y       z     vdW  Elec       q    Type
REMARK                         _______ _______ _______ _____ _____    ______ ____
ROOT
ATOM      1  C   UNL     1       1.214  -1.129   6.379  0.00  0.00    +0.170 A 
ATOM      2  N   UNL     1       2.513  -1.231   6.239  0.00  0.00    -0.222 NA
ATOM      3  C   UNL     1       3.083  -1.479   7.448  0.00  0.00    +0.092 A 
ATOM      4  C   UNL     1       4.402  -1.672   7.864  0.00  0.00    +0.058 A 
ATOM      5  C   UNL     1       4.672  -1.911   9.193  0.00  0.00    +0.107 A 
ATOM      6  C   UNL     1       3.643  -1.962  10.122  0.00  0.00    +0.030 A 
ATOM      7  C   UNL     1       2.335  -1.774   9.726  0.00  0.00    +0.030 A 
ATOM      8  C   UNL     1       2.045  -1.531   8.392  0.00  0.00    +0.069 A 
ATOM      9  N   UNL     1       0.873  -1.301   7.691  0.00  0.00    -0.322 N 
ATOM     10  C   UNL     1      -0.480  -1.255   8.250  0.00  0.00    +0.151 C 
ENDROOT
BRANCH   5  11
ATOM     11  S   UNL     1       6.336  -2.154   9.718  0.00  0.00    +0.056 S 
ATOM     12  O   UNL     1       6.276  -2.902  10.925  0.00  0.00    -0.153 OA
ATOM     13  O   UNL     1       7.060  -2.601   8.580  0.00  0.00    -0.153 OA
BRANCH  11  14
ATOM     14  N   UNL     1       6.947  -0.667  10.113  0.00  0.00    -0.204 NA
ATOM     15  H   UNL     1       6.392   0.124  10.029  0.00  0.00    +0.144 HD
ATOM     16  H   UNL     1       7.861  -0.586  10.429  0.00  0.00    +0.144 HD
ENDBRANCH  11  14
ENDBRANCH   5  11
BRANCH   1  17
ATOM     17  S   UNL     1       0.077  -0.809   5.071  0.00  0.00    -0.078 S 
BRANCH  17  18
ATOM     18  C   UNL     1       1.128  -0.682   3.598  0.00  0.00    +0.173 C 
BRANCH  18  20
ATOM     19  N   UNL     1       0.837  -0.272   1.176  0.00  0.00    -0.312 N 
ATOM     20  C   UNL     1       0.269  -0.407   2.390  0.00  0.00    +0.224 C 
ATOM     21  O   UNL     1      -0.934  -0.306   2.512  0.00  0.00    -0.275 OA
ATOM     22  H   UNL     1       1.799  -0.353   1.078  0.00  0.00    +0.149 HD
BRANCH  19  24
ATOM     23  C   UNL     1      -0.250   1.501  -0.111  0.00  0.00    +0.028 C 
ATOM     24  C   UNL     1       0.002  -0.004   0.002  0.00  0.00    +0.073 C 
BRANCH  24  25
ATOM     25  C   UNL     1       0.718  -0.497  -1.257  0.00  0.00    +0.012 C 
ATOM     26  C   UNL     1       0.756  -2.043  -1.284  0.00  0.00    +0.009 C 
ATOM     27  C   UNL     1      -0.030  -2.433  -2.573  0.00  0.00    -0.010 C 
ATOM     28  C   UNL     1      -1.513  -2.082  -2.247  0.00  0.00    +0.004 C 
ATOM     29  C   UNL     1      -1.552  -0.536  -2.220  0.00  0.00    +0.004 C 
ATOM     30  C   UNL     1      -0.087  -0.100  -2.531  0.00  0.00    -0.006 C 
ATOM     31  C   UNL     1       0.351  -1.239  -3.518  0.00  0.00    +0.007 C 
ENDBRANCH  24  25
ENDBRANCH  19  24
ENDBRANCH  18  20
ENDBRANCH  17  18
ENDBRANCH   1  17
TORSDOF 7
