REMARK  Name = ZINC31652450
REMARK  8 active torsions:
REMARK  status: ('A' for Active; 'I' for Inactive)
REMARK    1  A    between atoms: C_1  and  C_2
REMARK    2  A    between atoms: C_2  and  C_4
REMARK    3  A    between atoms: C_2  and  N_15
REMARK    4  A    between atoms: N_6  and  C_7
REMARK    5  A    between atoms: N_11  and  C_12
REMARK    6  A    between atoms: C_12  and  C_13
REMARK    7  A    between atoms: C_12  and  C_14
REMARK    8  A    between atoms: C_17  and  C_20
REMARK                            x       y       z     vdW  Elec       q    Type
REMARK                         _______ _______ _______ _____ _____    ______ ____
ROOT
ATOM      1  C   UNL     1      -0.019   1.526   0.010  0.00  0.00    +0.044 C 
ATOM      2  C   UNL     1       0.002  -0.004   0.002  0.00  0.00    +0.213 C 
ENDROOT
BRANCH   2   3
ATOM      3  N   UNL     1      -1.372  -0.511   0.012  0.00  0.00    -0.151 N 
ATOM      4  N   UNL     1      -1.883  -1.263   0.926  0.00  0.00    -0.130 NA
ATOM      5  C   UNL     1      -3.133  -1.511   0.592  0.00  0.00    +0.205 A 
ATOM      6  N   UNL     1      -3.355  -0.874  -0.566  0.00  0.00    -0.108 NA
ATOM      7  N   UNL     1      -2.261  -0.271  -0.887  0.00  0.00    -0.045 NA
BRANCH   5   8
ATOM      8  C   UNL     1      -4.107  -2.336   1.351  0.00  0.00    +0.023 A 
ATOM      9  C   UNL     1      -3.729  -2.935   2.551  0.00  0.00    +0.013 A 
ATOM     10  C   UNL     1      -4.638  -3.701   3.253  0.00  0.00    +0.021 A 
ATOM     11  C   UNL     1      -5.922  -3.874   2.767  0.00  0.00    +0.041 A 
ATOM     12  C   UNL     1      -6.302  -3.281   1.576  0.00  0.00    +0.021 A 
ATOM     13  C   UNL     1      -5.402  -2.509   0.869  0.00  0.00    +0.013 A 
ATOM     14 CL   UNL     1      -7.060  -4.839   3.655  0.00  0.00    -0.084 Cl
ENDBRANCH   5   8
ENDBRANCH   2   3
BRANCH   2  15
ATOM     15  C   UNL     1       0.707  -0.490  -1.238  0.00  0.00    +0.244 C 
ATOM     16  O   UNL     1       0.120  -1.191  -2.034  0.00  0.00    -0.273 OA
ATOM     17  N   UNL     1       1.991  -0.146  -1.462  0.00  0.00    -0.269 N 
ATOM     18  H   UNL     1       2.461   0.415  -0.825  0.00  0.00    +0.156 HD
BRANCH  17  19
ATOM     19  C   UNL     1       2.644  -0.596  -2.609  0.00  0.00    +0.123 A 
ATOM     20  C   UNL     1       2.108  -1.378  -3.585  0.00  0.00    +0.065 A 
ATOM     21  C   UNL     1       3.095  -1.595  -4.550  0.00  0.00    +0.136 A 
ATOM     22  N   UNL     1       4.181  -0.971  -4.175  0.00  0.00    -0.178 NA
ATOM     23  N   UNL     1       3.923  -0.328  -2.957  0.00  0.00    -0.248 N 
BRANCH  23  24
ATOM     24  C   UNL     1       4.872   0.486  -2.194  0.00  0.00    +0.103 C 
ATOM     25  C   UNL     1       6.087  -0.364  -1.817  0.00  0.00    +0.032 C 
ATOM     26  C   UNL     1       5.326   1.673  -3.047  0.00  0.00    +0.032 C 
ENDBRANCH  23  24
ENDBRANCH  17  19
ENDBRANCH   2  15
TORSDOF 5
