REMARK  Name = ZINC13262621
REMARK  9 active torsions:
REMARK  status: ('A' for Active; 'I' for Inactive)
REMARK    1  A    between atoms: C_4  and  C_7
REMARK    2  A    between atoms: C_7  and  N_8
REMARK    3  A    between atoms: N_8  and  S_9
REMARK    4  A    between atoms: S_9  and  C_12
REMARK    5  A    between atoms: C_15  and  O_20
REMARK    6  A    between atoms: C_16  and  C_18
REMARK    7  A    between atoms: O_20  and  S_21
REMARK    8  A    between atoms: S_21  and  C_24
REMARK    9  A    between atoms: C_25  and  C_26
REMARK                            x       y       z     vdW  Elec       q    Type
REMARK                         _______ _______ _______ _____ _____    ______ ____
ROOT
ATOM      1  C   UNL     1      -5.819  -2.532   1.538  0.00  0.00    +0.106 A 
ATOM      2  C   UNL     1      -5.249  -3.699   1.056  0.00  0.00    +0.032 A 
ATOM      3  C   UNL     1      -3.876  -3.827   0.982  0.00  0.00    +0.051 A 
ATOM      4  C   UNL     1      -3.057  -2.785   1.392  0.00  0.00    +0.171 A 
ATOM      5  C   UNL     1      -3.631  -1.605   1.885  0.00  0.00    +0.109 A 
ATOM      6  C   UNL     1      -5.022  -1.487   1.949  0.00  0.00    +0.047 A 
ENDROOT
BRANCH   1   7
ATOM      7  S   UNL     1      -7.573  -2.384   1.625  0.00  0.00    +0.059 S 
ATOM      8  O   UNL     1      -7.865  -0.994   1.599  0.00  0.00    -0.153 OA
ATOM      9  O   UNL     1      -8.105  -3.293   0.671  0.00  0.00    -0.153 OA
BRANCH   7  10
ATOM     10  N   UNL     1      -8.037  -2.937   3.115  0.00  0.00    -0.186 NA
ATOM     11  H   UNL     1      -8.585  -3.734   3.188  0.00  0.00    +0.148 HD
BRANCH  10  12
ATOM     12  C   UNL     1      -7.620  -2.223   4.324  0.00  0.00    +0.141 C 
BRANCH  12  16
ATOM     13  C   UNL     1      -9.973  -3.536   7.639  0.00  0.00    +0.000 A 
ATOM     14  C   UNL     1      -8.789  -4.182   7.332  0.00  0.00    +0.000 A 
ATOM     15  C   UNL     1      -8.028  -3.757   6.260  0.00  0.00    +0.005 A 
ATOM     16  C   UNL     1      -8.450  -2.686   5.494  0.00  0.00    -0.032 A 
ATOM     17  C   UNL     1      -9.630  -2.037   5.803  0.00  0.00    +0.005 A 
ATOM     18  C   UNL     1     -10.394  -2.466   6.873  0.00  0.00    +0.000 A 
ENDBRANCH  12  16
ENDBRANCH  10  12
ENDBRANCH   7  10
ENDBRANCH   1   7
BRANCH   5  19
ATOM     19  C   UNL     1      -2.771  -0.493   2.330  0.00  0.00    +0.390 C 
ATOM     20  O   UNL     1      -1.562  -0.598   2.269  0.00  0.00    -0.240 OA
ATOM     21  O   UNL     1      -3.326   0.640   2.804  0.00  0.00    -0.240 OA
ENDBRANCH   5  19
BRANCH   4  22
ATOM     22  O   UNL     1      -1.709  -2.910   1.321  0.00  0.00    -0.342 OA
BRANCH  22  23
ATOM     23  S   UNL     1      -1.113  -2.444  -0.000  0.00  0.00    +0.144 S 
ATOM     24  O   UNL     1      -2.013  -2.857  -1.020  0.00  0.00    -0.132 OA
ATOM     25  O   UNL     1       0.254  -2.832   0.011  0.00  0.00    -0.132 OA
BRANCH  23  26
ATOM     26  C   UNL     1      -1.137  -0.682   0.009  0.00  0.00    +0.178 C 
ATOM     27  C   UNL     1       0.002  -0.004   0.002  0.00  0.00    +0.030 C 
BRANCH  27  28
ATOM     28  C   UNL     1      -0.018   1.474   0.010  0.00  0.00    -0.024 A 
ATOM     29  C   UNL     1      -1.234   2.158   0.020  0.00  0.00    +0.008 A 
ATOM     30  C   UNL     1      -1.246   3.538   0.032  0.00  0.00    +0.001 A 
ATOM     31  C   UNL     1      -0.056   4.243   0.024  0.00  0.00    +0.000 A 
ATOM     32  C   UNL     1       1.153   3.570   0.010  0.00  0.00    +0.001 A 
ATOM     33  C   UNL     1       1.179   2.191   0.003  0.00  0.00    +0.008 A 
ENDBRANCH  27  28
ENDBRANCH  23  26
ENDBRANCH  22  23
ENDBRANCH   4  22
TORSDOF 9
