REMARK  Name = ZINC08791643
REMARK  8 active torsions:
REMARK  status: ('A' for Active; 'I' for Inactive)
REMARK    1  A    between atoms: C_1  and  C_2
REMARK    2  A    between atoms: C_2  and  C_3
REMARK    3  A    between atoms: C_2  and  C_4
REMARK    4  A    between atoms: C_4  and  C_6
REMARK    5  A    between atoms: C_4  and  N_16
REMARK    6  A    between atoms: N_8  and  C_9
REMARK    7  A    between atoms: C_9  and  C_10
REMARK    8  A    between atoms: C_17  and  C_19
REMARK                            x       y       z     vdW  Elec       q    Type
REMARK                         _______ _______ _______ _____ _____    ______ ____
ROOT
ATOM      1  C   UNL     1      -2.274  -3.877   1.546  0.00  0.00    +0.167 C 
ATOM      2  C   UNL     1      -1.315  -4.834   0.825  0.00  0.00    +0.069 C 
ATOM      3  C   UNL     1      -1.974  -6.173   0.614  0.00  0.00    -0.015 A 
ATOM      4  C   UNL     1      -1.327  -7.427   0.274  0.00  0.00    +0.003 A 
ATOM      5  C   UNL     1       0.011  -7.771   0.062  0.00  0.00    +0.010 A 
ATOM      6  C   UNL     1       0.273  -9.082  -0.252  0.00  0.00    +0.001 A 
ATOM      7  C   UNL     1      -0.734 -10.028  -0.358  0.00  0.00    +0.002 A 
ATOM      8  C   UNL     1      -2.067  -9.715  -0.152  0.00  0.00    +0.026 A 
ATOM      9  C   UNL     1      -2.361  -8.391   0.170  0.00  0.00    +0.047 A 
ATOM     10  N   UNL     1      -3.538  -7.754   0.435  0.00  0.00    -0.356 N 
ATOM     11  H   UNL     1      -4.413  -8.172   0.430  0.00  0.00    +0.166 HD
ATOM     12  C   UNL     1      -3.298  -6.435   0.709  0.00  0.00    +0.046 A 
ATOM     13  C   UNL     1      -4.317  -5.389   1.091  0.00  0.00    +0.155 C 
ATOM     14  N   UNL     1      -3.618  -4.086   0.997  0.00  0.00    -0.273 N 
ATOM     15  C   UNL     1      -4.401  -3.232   0.325  0.00  0.00    +0.248 C 
ATOM     16  O   UNL     1      -4.235  -2.030   0.261  0.00  0.00    -0.270 OA
ATOM     17  C   UNL     1      -5.489  -3.971  -0.324  0.00  0.00    +0.042 A 
ATOM     18  C   UNL     1      -5.459  -5.325   0.136  0.00  0.00    -0.009 A 
ATOM     19  C   UNL     1      -6.357  -6.275  -0.296  0.00  0.00    +0.006 A 
ATOM     20  C   UNL     1      -7.330  -5.862  -1.202  0.00  0.00    +0.000 A 
ATOM     21  C   UNL     1      -7.400  -4.558  -1.649  0.00  0.00    +0.001 A 
ATOM     22  C   UNL     1      -6.466  -3.550  -1.229  0.00  0.00    +0.013 A 
ENDROOT
BRANCH   1  24
ATOM     23  N   UNL     1      -1.903  -1.924   0.073  0.00  0.00    -0.302 N 
ATOM     24  C   UNL     1      -1.844  -2.451   1.312  0.00  0.00    +0.235 C 
ATOM     25  O   UNL     1      -1.445  -1.778   2.239  0.00  0.00    -0.274 OA
ATOM     26  H   UNL     1      -2.223  -2.462  -0.668  0.00  0.00    +0.150 HD
BRANCH  23  27
ATOM     27  C   UNL     1      -1.486  -0.539  -0.154  0.00  0.00    +0.161 C 
BRANCH  27  28
ATOM     28  C   UNL     1      -2.180   0.001  -1.378  0.00  0.00    +0.234 C 
ATOM     29  O   UNL     1      -2.672  -0.762  -2.182  0.00  0.00    -0.274 OA
ATOM     30  N   UNL     1      -2.255   1.332  -1.578  0.00  0.00    -0.311 N 
ATOM     31  H   UNL     1      -1.923   1.943  -0.902  0.00  0.00    +0.149 HD
BRANCH  30  32
ATOM     32  C   UNL     1      -2.837   1.855  -2.817  0.00  0.00    +0.135 C 
BRANCH  32  33
ATOM     33  C   UNL     1      -2.801   3.384  -2.791  0.00  0.00    +0.135 C 
ATOM     34  C   UNL     1      -3.445   3.958  -4.079  0.00  0.00    +0.035 C 
ATOM     35  C   UNL     1      -3.886   5.363  -3.586  0.00  0.00    +0.031 C 
ATOM     36  C   UNL     1      -4.269   5.089  -2.116  0.00  0.00    +0.160 C 
ATOM     37  O   UNL     1      -3.606   3.884  -1.712  0.00  0.00    -0.375 OA
ENDBRANCH  32  33
ENDBRANCH  30  32
ENDBRANCH  27  28
BRANCH  27  39
ATOM     38  C   UNL     1       0.737  -0.934   0.917  0.00  0.00    +0.009 C 
ATOM     39  C   UNL     1       0.029  -0.491  -0.365  0.00  0.00    +0.012 C 
ATOM     40  C   UNL     1       0.414  -1.430  -1.510  0.00  0.00    +0.009 C 
ENDBRANCH  27  39
ENDBRANCH  23  27
ENDBRANCH   1  24
TORSDOF 6
