REMARK  Name = ZINC20910571
REMARK  13 active torsions:
REMARK  status: ('A' for Active; 'I' for Inactive)
REMARK    1  A    between atoms: C_1  and  C_2
REMARK    2  A    between atoms: C_2  and  O_3
REMARK    3  A    between atoms: O_3  and  C_4
REMARK    4  A    between atoms: C_4  and  C_6
REMARK    5  A    between atoms: C_10  and  N_11
REMARK    6  A    between atoms: C_12  and  C_14
REMARK    7  A    between atoms: C_14  and  S_15
REMARK    8  A    between atoms: S_15  and  C_16
REMARK    9  A    between atoms: N_21  and  N_22
REMARK   10  A    between atoms: C_23  and  C_24
REMARK   11  A    between atoms: N_27  and  C_29
REMARK   12  A    between atoms: C_29  and  C_30
REMARK   13  A    between atoms: C_29  and  C_31
REMARK                            x       y       z     vdW  Elec       q    Type
REMARK                         _______ _______ _______ _____ _____    ______ ____
ROOT
ATOM      1  S   UNL     1      -3.226  -8.120  -0.011  0.00  0.00    -0.075 S 
ENDROOT
BRANCH   1   2
ATOM      2  C   UNL     1      -2.375  -6.577  -0.011  0.00  0.00    +0.211 A 
ATOM      3  N   UNL     1      -2.956  -5.340   0.001  0.00  0.00    -0.186 NA
ATOM      4  C   UNL     1      -1.958  -4.405  -0.004  0.00  0.00    +0.232 A 
ATOM      5  N   UNL     1      -0.810  -5.038  -0.023  0.00  0.00    -0.245 N 
ATOM      6  N   UNL     1      -1.074  -6.414  -0.022  0.00  0.00    -0.144 NA
ATOM      7  N   UNL     1      -2.130  -3.029   0.005  0.00  0.00    -0.205 N 
ATOM      8  H   UNL     1      -3.144  -2.601   0.017  0.00  0.00    +0.177 HD
ATOM      9  H   UNL     1       0.131  -4.469  -0.037  0.00  0.00    +0.192 HD
BRANCH   7  10
ATOM     10  N   UNL     1      -1.014  -2.183  -0.000  0.00  0.00    -0.187 NA
ATOM     11  C   UNL     1      -1.175  -0.895   0.008  0.00  0.00    +0.141 C 
BRANCH  11  12
ATOM     12  C   UNL     1       0.002  -0.004   0.002  0.00  0.00    +0.032 A 
ATOM     13  C   UNL     1       1.355  -0.405  -0.013  0.00  0.00    +0.143 A 
ATOM     14  N   UNL     1       2.098   0.669  -0.014  0.00  0.00    -0.179 NA
ATOM     15  N   UNL     1       1.265   1.794  -0.000  0.00  0.00    -0.268 N 
ATOM     16  C   UNL     1      -0.017   1.374   0.010  0.00  0.00    +0.118 A 
BRANCH  15  17
ATOM     17  C   UNL     1       1.709   3.190   0.003  0.00  0.00    +0.101 C 
ATOM     18  C   UNL     1       1.730   3.722  -1.432  0.00  0.00    +0.032 C 
ATOM     19  C   UNL     1       0.746   4.030   0.844  0.00  0.00    +0.032 C 
ENDBRANCH  15  17
ENDBRANCH  11  12
ENDBRANCH   7  10
ENDBRANCH   1   2
BRANCH   1  20
ATOM     20  C   UNL     1      -1.896  -9.354  -0.030  0.00  0.00    +0.173 C 
BRANCH  20  22
ATOM     21  N   UNL     1      -1.691 -11.819  -0.045  0.00  0.00    -0.279 N 
ATOM     22  C   UNL     1      -2.495 -10.737  -0.032  0.00  0.00    +0.228 C 
ATOM     23  O   UNL     1      -3.699 -10.877  -0.021  0.00  0.00    -0.275 OA
ATOM     24  H   UNL     1      -0.598 -11.692  -0.055  0.00  0.00    +0.155 HD
BRANCH  21  29
ATOM     25  C   UNL     1      -1.587 -14.312  -0.065  0.00  0.00    +0.091 A 
ATOM     26  C   UNL     1      -2.411 -15.521  -0.058  0.00  0.00    -0.021 A 
ATOM     27  C   UNL     1      -3.739 -15.307  -0.044  0.00  0.00    -0.004 A 
ATOM     28  S   UNL     1      -3.913 -13.540  -0.034  0.00  0.00    -0.077 S 
ATOM     29  C   UNL     1      -2.241 -13.091  -0.047  0.00  0.00    +0.086 A 
ATOM     30  C   UNL     1      -4.517 -16.595  -0.040  0.00  0.00    +0.043 C 
ATOM     31  C   UNL     1      -3.491 -17.669   0.383  0.00  0.00    +0.010 C 
ATOM     32  C   UNL     1      -2.163 -17.030  -0.070  0.00  0.00    +0.037 C 
BRANCH  25  33
ATOM     33  C   UNL     1      -0.125 -14.390  -0.086  0.00  0.00    +0.342 C 
ATOM     34  O   UNL     1       0.497 -14.430   0.959  0.00  0.00    -0.245 OA
BRANCH  33  35
ATOM     35  O   UNL     1       0.532 -14.416  -1.263  0.00  0.00    -0.461 OA
BRANCH  35  37
ATOM     36  C   UNL     1       2.545 -14.514  -2.630  0.00  0.00    +0.048 C 
ATOM     37  C   UNL     1       1.981 -14.494  -1.208  0.00  0.00    +0.229 C 
ENDBRANCH  35  37
ENDBRANCH  33  35
ENDBRANCH  25  33
ENDBRANCH  21  29
ENDBRANCH  20  22
ENDBRANCH   1  20
TORSDOF 10
