REMARK  Name = ZINC09071783
REMARK  6 active torsions:
REMARK  status: ('A' for Active; 'I' for Inactive)
REMARK    1  A    between atoms: C_1  and  C_2
REMARK    2  A    between atoms: C_3  and  C_11
REMARK    3  A    between atoms: C_7  and  N_8
REMARK    4  A    between atoms: N_13  and  C_14
REMARK    5  A    between atoms: C_14  and  C_15
REMARK    6  A    between atoms: N_18  and  C_22
REMARK                            x       y       z     vdW  Elec       q    Type
REMARK                         _______ _______ _______ _____ _____    ______ ____
ROOT
ATOM      1  C   UNL     1      -0.188   1.561  -0.103  0.00  0.00    +0.245 C 
ATOM      2  O   UNL     1      -0.338   0.354  -0.093  0.00  0.00    -0.270 OA
ATOM      3  N   UNL     1      -1.262   2.373  -0.164  0.00  0.00    -0.308 N 
ATOM      4  H   UNL     1      -1.143   3.335  -0.171  0.00  0.00    +0.149 HD
ENDROOT
BRANCH   1   7
ATOM      5  C   UNL     1       2.091  -0.180   0.285  0.00  0.00    +0.047 C 
ATOM      6  C   UNL     1       2.279   1.307   0.133  0.00  0.00    -0.008 A 
ATOM      7  C   UNL     1       1.172   2.137  -0.053  0.00  0.00    +0.042 A 
ATOM      8  C   UNL     1       1.356   3.513  -0.199  0.00  0.00    +0.013 A 
ATOM      9  C   UNL     1       2.628   4.045  -0.146  0.00  0.00    +0.003 A 
ATOM     10  C   UNL     1       3.720   3.217   0.039  0.00  0.00    +0.033 A 
ATOM     11  C   UNL     1       3.546   1.852   0.178  0.00  0.00    +0.130 A 
BRANCH  11  12
ATOM     12  N   UNL     1       4.720   0.973   0.376  0.00  0.00    +0.057 N 
ATOM     13  O   UNL     1       5.824   1.460   0.541  0.00  0.00    -0.126 OA
ATOM     14  O   UNL     1       4.583  -0.237   0.373  0.00  0.00    -0.126 OA
ENDBRANCH  11  12
ENDBRANCH   1   7
BRANCH   3  15
ATOM     15  C   UNL     1      -2.610   1.801  -0.218  0.00  0.00    +0.150 C 
BRANCH  15  16
ATOM     16  C   UNL     1      -3.641   2.930  -0.281  0.00  0.00    +0.213 C 
ATOM     17  C   UNL     1      -5.071   2.357  -0.291  0.00  0.00    +0.163 C 
ATOM     18  N   UNL     1      -5.677   2.906   0.931  0.00  0.00    -0.234 N 
ATOM     19  C   UNL     1      -4.773   3.671   1.558  0.00  0.00    +0.408 C 
ATOM     20  O   UNL     1      -5.004   4.253   2.599  0.00  0.00    -0.226 OA
ATOM     21  O   UNL     1      -3.589   3.737   0.931  0.00  0.00    -0.444 OA
BRANCH  18  22
ATOM     22  C   UNL     1      -6.986   2.670   1.368  0.00  0.00    +0.040 A 
ATOM     23  C   UNL     1      -7.832   1.859   0.622  0.00  0.00    +0.025 A 
ATOM     24  C   UNL     1      -9.121   1.623   1.059  0.00  0.00    +0.022 A 
ATOM     25  C   UNL     1      -9.573   2.202   2.231  0.00  0.00    +0.041 A 
ATOM     26  C   UNL     1      -8.734   3.015   2.973  0.00  0.00    +0.022 A 
ATOM     27  C   UNL     1      -7.442   3.250   2.544  0.00  0.00    +0.025 A 
ATOM     28 CL   UNL     1     -11.196   1.907   2.774  0.00  0.00    -0.084 Cl
ENDBRANCH  18  22
ENDBRANCH  15  16
ENDBRANCH   3  15
TORSDOF 5
