REMARK  Name = ZINC09819989
REMARK  8 active torsions:
REMARK  status: ('A' for Active; 'I' for Inactive)
REMARK    1  A    between atoms: C_1  and  C_2
REMARK    2  A    between atoms: C_2  and  C_4
REMARK    3  A    between atoms: C_2  and  O_17
REMARK    4  A    between atoms: N_6  and  C_7
REMARK    5  A    between atoms: C_11  and  N_13
REMARK    6  A    between atoms: O_17  and  C_18
REMARK    7  A    between atoms: C_18  and  C_20
REMARK    8  A    between atoms: C_21  and  C_22
REMARK                            x       y       z     vdW  Elec       q    Type
REMARK                         _______ _______ _______ _____ _____    ______ ____
ROOT
ATOM      1  C   UNL     1      -8.873  -1.218  -1.406  0.00  0.00    +0.062 C 
ATOM      2  C   UNL     1      -8.437  -0.957   0.037  0.00  0.00    +0.259 C 
ENDROOT
BRANCH   2   3
ATOM      3  C   UNL     1      -9.529  -0.217   0.766  0.00  0.00    +0.258 C 
ATOM      4  O   UNL     1      -9.336   0.913   1.162  0.00  0.00    -0.271 OA
ATOM      5  N   UNL     1     -10.719  -0.812   0.979  0.00  0.00    -0.282 N 
ATOM      6  H   UNL     1     -10.897  -1.690   0.605  0.00  0.00    +0.155 HD
BRANCH   5   7
ATOM      7  C   UNL     1     -11.700  -0.164   1.740  0.00  0.00    +0.036 A 
ATOM      8  C   UNL     1     -12.546  -0.901   2.557  0.00  0.00    +0.026 A 
ATOM      9  C   UNL     1     -13.508  -0.260   3.311  0.00  0.00    +0.042 A 
ATOM     10  C   UNL     1     -13.638   1.118   3.244  0.00  0.00    +0.154 A 
ATOM     11  C   UNL     1     -12.799   1.854   2.425  0.00  0.00    +0.163 A 
ATOM     12  C   UNL     1     -11.831   1.217   1.674  0.00  0.00    +0.059 A 
ATOM     13  F   UNL     1     -14.584   1.743   3.978  0.00  0.00    -0.203 F 
BRANCH  11  14
ATOM     14  N   UNL     1     -12.938   3.326   2.356  0.00  0.00    +0.059 N 
ATOM     15  O   UNL     1     -12.200   3.975   1.636  0.00  0.00    -0.126 OA
ATOM     16  O   UNL     1     -13.792   3.889   3.018  0.00  0.00    -0.126 OA
ENDBRANCH  11  14
ENDBRANCH   5   7
ENDBRANCH   2   3
BRANCH   2  17
ATOM     17  O   UNL     1      -7.245  -0.169   0.038  0.00  0.00    -0.449 OA
BRANCH  17  18
ATOM     18  C   UNL     1      -6.071  -0.834   0.020  0.00  0.00    +0.333 C 
ATOM     19  O   UNL     1      -6.061  -2.050   0.003  0.00  0.00    -0.246 OA
BRANCH  18  20
ATOM     20  C   UNL     1      -4.849  -0.115   0.021  0.00  0.00    +0.092 C 
ATOM     21  C   UNL     1      -3.673  -0.780   0.002  0.00  0.00    +0.015 C 
BRANCH  21  22
ATOM     22  C   UNL     1      -2.407  -0.035   0.003  0.00  0.00    -0.021 A 
ATOM     23  C   UNL     1      -2.415   1.364   0.022  0.00  0.00    +0.012 A 
ATOM     24  C   UNL     1      -1.226   2.058   0.018  0.00  0.00    +0.050 A 
ATOM     25  C   UNL     1      -0.015   1.376   0.001  0.00  0.00    +0.162 A 
ATOM     26  C   UNL     1       0.001  -0.017  -0.017  0.00  0.00    +0.163 A 
ATOM     27  C   UNL     1      -1.188  -0.722  -0.017  0.00  0.00    +0.057 A 
ATOM     28  O   UNL     1       1.179  -0.700  -0.033  0.00  0.00    -0.485 OA
ATOM     29  C   UNL     1       2.346   0.040  -0.410  0.00  0.00    +0.270 C 
ATOM     30  C   UNL     1       2.336   1.372   0.351  0.00  0.00    +0.270 C 
ATOM     31  O   UNL     1       1.146   2.084  -0.004  0.00  0.00    -0.485 OA
ENDBRANCH  21  22
ENDBRANCH  18  20
ENDBRANCH  17  18
ENDBRANCH   2  17
TORSDOF 7
