REMARK  Name = ZINC46757808
REMARK  10 active torsions:
REMARK  status: ('A' for Active; 'I' for Inactive)
REMARK    1  A    between atoms: C_1  and  C_2
REMARK    2  A    between atoms: C_5  and  N_8
REMARK    3  A    between atoms: C_9  and  C_33
REMARK    4  A    between atoms: C_11  and  C_16
REMARK    5  A    between atoms: N_18  and  C_19
REMARK    6  A    between atoms: C_19  and  C_20
REMARK    7  A    between atoms: C_23  and  N_26
REMARK    8  A    between atoms: N_29  and  C_30
REMARK    9  A    between atoms: C_30  and  C_31
REMARK   10  A    between atoms: C_30  and  C_32
REMARK                            x       y       z     vdW  Elec       q    Type
REMARK                         _______ _______ _______ _____ _____    ______ ____
ROOT
ATOM      1  C   UNL     1      -1.798  -6.582   1.002  0.00  0.00    +0.219 C 
ATOM      2  O   UNL     1      -2.458  -5.687   1.487  0.00  0.00    -0.275 OA
ATOM      3  N   UNL     1      -2.380  -7.758   0.695  0.00  0.00    -0.311 N 
ATOM      4  H   UNL     1      -1.852  -8.474   0.307  0.00  0.00    +0.149 HD
ENDROOT
BRANCH   1   7
ATOM      5  N   UNL     1      -0.002  -4.133  -0.036  0.00  0.00    -0.263 N 
ATOM      6  C   UNL     1       0.118  -4.962   1.170  0.00  0.00    +0.130 C 
ATOM      7  C   UNL     1      -0.328  -6.378   0.742  0.00  0.00    +0.109 C 
ATOM      8  C   UNL     1      -0.031  -6.357  -0.775  0.00  0.00    +0.111 C 
ATOM      9  C   UNL     1      -0.087  -4.891  -1.143  0.00  0.00    +0.221 C 
ATOM     10  O   UNL     1      -0.191  -4.461  -2.272  0.00  0.00    -0.275 OA
BRANCH   5  15
ATOM     11  C   UNL     1      -0.116   1.539  -0.022  0.00  0.00    +0.044 C 
ATOM     12  C   UNL     1      -0.085   0.032  -0.026  0.00  0.00    -0.050 A 
ATOM     13  C   UNL     1      -0.065  -0.655  -1.226  0.00  0.00    +0.005 A 
ATOM     14  C   UNL     1      -0.037  -2.035  -1.233  0.00  0.00    +0.024 A 
ATOM     15  C   UNL     1      -0.029  -2.734  -0.033  0.00  0.00    +0.037 A 
ATOM     16  C   UNL     1      -0.049  -2.041   1.171  0.00  0.00    +0.024 A 
ATOM     17  C   UNL     1      -0.072  -0.660   1.171  0.00  0.00    +0.005 A 
ENDBRANCH   5  15
BRANCH   6  18
ATOM     18  C   UNL     1       1.547  -4.985   1.647  0.00  0.00    +0.011 A 
ATOM     19  C   UNL     1       2.024  -4.968   2.916  0.00  0.00    +0.013 A 
ATOM     20  C   UNL     1       3.391  -4.996   3.119  0.00  0.00    +0.008 A 
ATOM     21  C   UNL     1       4.214  -5.040   2.043  0.00  0.00    +0.045 A 
ATOM     22  S   UNL     1       3.052  -5.050   0.688  0.00  0.00    -0.100 S 
ENDBRANCH   6  18
ENDBRANCH   1   7
BRANCH   3  23
ATOM     23  C   UNL     1      -3.809  -7.957   0.947  0.00  0.00    +0.139 C 
BRANCH  23  24
ATOM     24  C   UNL     1      -4.207  -9.346   0.519  0.00  0.00    -0.030 A 
ATOM     25  C   UNL     1      -4.635  -9.572  -0.776  0.00  0.00    +0.007 A 
ATOM     26  C   UNL     1      -5.000 -10.844  -1.172  0.00  0.00    +0.023 A 
ATOM     27  C   UNL     1      -4.937 -11.896  -0.267  0.00  0.00    +0.035 A 
ATOM     28  C   UNL     1      -4.508 -11.665   1.033  0.00  0.00    +0.023 A 
ATOM     29  C   UNL     1      -4.138 -10.392   1.421  0.00  0.00    +0.007 A 
BRANCH  27  30
ATOM     30  N   UNL     1      -5.307 -13.186  -0.665  0.00  0.00    -0.269 N 
ATOM     31  C   UNL     1      -5.056 -13.601  -1.922  0.00  0.00    +0.304 C 
ATOM     32  O   UNL     1      -4.420 -12.895  -2.681  0.00  0.00    -0.253 OA
ATOM     33  N   UNL     1      -5.510 -14.800  -2.339  0.00  0.00    -0.297 N 
ATOM     34  H   UNL     1      -5.744 -13.780  -0.036  0.00  0.00    +0.156 HD
ATOM     35  H   UNL     1      -6.017 -15.364  -1.734  0.00  0.00    +0.151 HD
BRANCH  33  36
ATOM     36  C   UNL     1      -5.237 -15.251  -3.706  0.00  0.00    +0.068 C 
ATOM     37  C   UNL     1      -3.861 -15.918  -3.757  0.00  0.00    +0.027 C 
ATOM     38  C   UNL     1      -6.308 -16.257  -4.134  0.00  0.00    +0.027 C 
ENDBRANCH  33  36
ENDBRANCH  27  30
ENDBRANCH  23  24
ENDBRANCH   3  23
TORSDOF 7
