REMARK  Name = ZINC36144936
REMARK  5 active torsions:
REMARK  status: ('A' for Active; 'I' for Inactive)
REMARK    1  A    between atoms: C_1  and  C_2
REMARK    2  A    between atoms: C_2  and  C_4
REMARK    3  A    between atoms: C_2  and  N_14
REMARK    4  A    between atoms: C_15  and  C_16
REMARK    5  A    between atoms: C_18  and  N_23
REMARK                            x       y       z     vdW  Elec       q    Type
REMARK                         _______ _______ _______ _____ _____    ______ ____
ROOT
ATOM      1  N   UNL     1      -1.650  -0.066  -0.346  0.00  0.00    -0.387 N 
ATOM      2  C   UNL     1      -1.842  -1.198  -1.039  0.00  0.00    +0.090 C 
ATOM      3  H   UNL     1      -2.116   0.073   0.493  0.00  0.00    +0.159 HD
ENDROOT
BRANCH   2   4
ATOM      4  C   UNL     1      -0.990  -1.520  -2.099  0.00  0.00    +0.039 A 
ATOM      5  C   UNL     1       0.389  -1.224  -2.034  0.00  0.00    +0.045 A 
ATOM      6  C   UNL     1       1.201  -1.545  -3.075  0.00  0.00    +0.127 A 
ATOM      7  C   UNL     1       0.706  -2.166  -4.219  0.00  0.00    +0.036 A 
ATOM      8  C   UNL     1      -0.613  -2.478  -4.346  0.00  0.00    +0.054 A 
ATOM      9  C   UNL     1      -1.508  -2.181  -3.304  0.00  0.00    +0.188 A 
ATOM     10  O   UNL     1      -2.695  -2.461  -3.402  0.00  0.00    -0.287 OA
BRANCH   6  11
ATOM     11  N   UNL     1       2.644  -1.228  -2.991  0.00  0.00    +0.056 N 
ATOM     12  O   UNL     1       3.089  -0.689  -2.005  0.00  0.00    -0.126 OA
ATOM     13  O   UNL     1       3.379  -1.508  -3.910  0.00  0.00    -0.126 OA
ENDBRANCH   6  11
ENDBRANCH   2   4
BRANCH   1  15
ATOM     14  C   UNL     1      -1.467   1.825  -1.886  0.00  0.00    +0.031 C 
ATOM     15  C   UNL     1      -0.737   0.960  -0.856  0.00  0.00    +0.082 C 
BRANCH  15  16
ATOM     16  C   UNL     1      -0.259   1.838   0.302  0.00  0.00    -0.009 C 
ATOM     17  C   UNL     1       0.470   0.973   1.331  0.00  0.00    +0.012 C 
ATOM     18  C   UNL     1       0.948   1.852   2.489  0.00  0.00    -0.010 C 
ATOM     19  C   UNL     1       1.901   2.923   1.956  0.00  0.00    +0.007 C 
ATOM     20  C   UNL     1       1.172   3.789   0.926  0.00  0.00    -0.010 C 
ATOM     21  C   UNL     1       0.694   2.910  -0.231  0.00  0.00    +0.012 C 
ATOM     22  C   UNL     1      -0.033   4.461   1.588  0.00  0.00    +0.007 C 
ATOM     23  C   UNL     1      -0.986   3.389   2.120  0.00  0.00    -0.010 C 
ATOM     24  C   UNL     1      -0.257   2.524   3.150  0.00  0.00    +0.007 C 
ATOM     25  C   UNL     1      -1.464   2.511   0.963  0.00  0.00    +0.012 C 
ENDBRANCH  15  16
ENDBRANCH   1  15
TORSDOF 4
