REMARK  Name = ZINC23939889
REMARK  10 active torsions:
REMARK  status: ('A' for Active; 'I' for Inactive)
REMARK    1  A    between atoms: C_1  and  C_2
REMARK    2  A    between atoms: C_2  and  O_4
REMARK    3  A    between atoms: O_4  and  C_5
REMARK    4  A    between atoms: C_8  and  C_11
REMARK    5  A    between atoms: C_14  and  C_17
REMARK    6  A    between atoms: C_17  and  O_19
REMARK    7  A    between atoms: O_19  and  C_20
REMARK    8  A    between atoms: C_20  and  C_22
REMARK    9  A    between atoms: C_20  and  C_28
REMARK   10  A    between atoms: N_33  and  C_34
REMARK                            x       y       z     vdW  Elec       q    Type
REMARK                         _______ _______ _______ _____ _____    ______ ____
ROOT
ATOM      1  C   UNL     1      -1.566   0.829   1.741  0.00  0.00    +0.340 C 
ATOM      2  O   UNL     1      -1.875  -0.184   1.145  0.00  0.00    -0.245 OA
ENDROOT
BRANCH   1   6
ATOM      3  C   UNL     1      -3.717   1.985   5.217  0.00  0.00    -0.018 A 
ATOM      4  C   UNL     1      -4.072   0.821   4.533  0.00  0.00    +0.009 A 
ATOM      5  C   UNL     1      -3.376   0.446   3.407  0.00  0.00    +0.015 A 
ATOM      6  C   UNL     1      -2.314   1.230   2.948  0.00  0.00    +0.059 A 
ATOM      7  C   UNL     1      -1.956   2.392   3.638  0.00  0.00    +0.015 A 
ATOM      8  C   UNL     1      -2.657   2.768   4.761  0.00  0.00    +0.009 A 
BRANCH   3  12
ATOM      9  C   UNL     1      -5.870   3.142   8.697  0.00  0.00    +0.132 A 
ATOM     10  C   UNL     1      -4.816   3.922   8.243  0.00  0.00    +0.047 A 
ATOM     11  C   UNL     1      -4.115   3.550   7.116  0.00  0.00    +0.012 A 
ATOM     12  C   UNL     1      -4.468   2.388   6.430  0.00  0.00    -0.018 A 
ATOM     13  C   UNL     1      -5.532   1.609   6.885  0.00  0.00    +0.012 A 
ATOM     14  C   UNL     1      -6.224   1.984   8.017  0.00  0.00    +0.047 A 
BRANCH   9  15
ATOM     15  O   UNL     1      -6.558   3.511   9.809  0.00  0.00    -0.426 OA
BRANCH  15  17
ATOM     16  C   UNL     1      -8.012   5.156  10.940  0.00  0.00    +0.136 C 
ATOM     17  C   UNL     1      -7.323   4.610   9.716  0.00  0.00    +0.309 C 
ATOM     18  O   UNL     1      -7.460   5.162   8.649  0.00  0.00    -0.251 OA
ENDBRANCH  15  17
ENDBRANCH   9  15
ENDBRANCH   3  12
ENDBRANCH   1   6
BRANCH   1  19
ATOM     19  O   UNL     1      -0.542   1.585   1.300  0.00  0.00    -0.444 OA
BRANCH  19  20
ATOM     20  C   UNL     1       0.147   1.129   0.106  0.00  0.00    +0.292 C 
BRANCH  20  21
ATOM     21  C   UNL     1       1.588   1.570   0.159  0.00  0.00    +0.266 C 
ATOM     22  O   UNL     1       1.993   2.205   1.109  0.00  0.00    -0.271 OA
ATOM     23  N   UNL     1       2.425   1.257  -0.849  0.00  0.00    -0.237 N 
ATOM     24  C   UNL     1       3.713   1.651  -0.802  0.00  0.00    +0.306 C 
ATOM     25  O   UNL     1       4.120   2.288   0.150  0.00  0.00    -0.252 OA
ATOM     26  N   UNL     1       4.551   1.339  -1.810  0.00  0.00    -0.302 N 
ATOM     27  C   UNL     1       5.951   1.767  -1.759  0.00  0.00    +0.129 C 
ATOM     28  H   UNL     1       2.058   0.681  -1.711  0.00  0.00    +0.159 HD
ATOM     29  H   UNL     1       4.184   0.763  -2.672  0.00  0.00    +0.150 HD
ENDBRANCH  20  21
BRANCH  20  30
ATOM     30  C   UNL     1      -0.514   1.720  -1.113  0.00  0.00    +0.002 A 
ATOM     31  C   UNL     1      -0.957   3.029  -1.093  0.00  0.00    +0.008 A 
ATOM     32  C   UNL     1      -1.559   3.572  -2.212  0.00  0.00    +0.000 A 
ATOM     33  C   UNL     1      -1.728   2.803  -3.348  0.00  0.00    +0.000 A 
ATOM     34  C   UNL     1      -1.289   1.492  -3.366  0.00  0.00    +0.000 A 
ATOM     35  C   UNL     1      -0.683   0.950  -2.248  0.00  0.00    +0.008 A 
ENDBRANCH  20  30
ENDBRANCH  19  20
ENDBRANCH   1  19
TORSDOF 8
