REMARK  Name = ZINC55843199
REMARK  6 active torsions:
REMARK  status: ('A' for Active; 'I' for Inactive)
REMARK    1  A    between atoms: C_8  and  C_12
REMARK    2  A    between atoms: C_12  and  N_13
REMARK    3  A    between atoms: N_13  and  C_14
REMARK    4  A    between atoms: C_16  and  N_24
REMARK    5  A    between atoms: C_19  and  O_20
REMARK    6  A    between atoms: O_20  and  C_21
REMARK                            x       y       z     vdW  Elec       q    Type
REMARK                         _______ _______ _______ _____ _____    ______ ____
ROOT
ATOM      1  N   UNL     1       1.808  -4.678   1.213  0.00  0.00    -0.335 N 
ATOM      2  H   UNL     1       1.508  -4.049   1.888  0.00  0.00    +0.147 HD
ENDROOT
BRANCH   1   3
ATOM      3  C   UNL     1       1.690  -6.055   1.439  0.00  0.00    +0.072 A 
ATOM      4  C   UNL     1       2.122  -6.957   0.479  0.00  0.00    +0.059 A 
ATOM      5  C   UNL     1       2.005  -8.316   0.704  0.00  0.00    +0.128 A 
ATOM      6  C   UNL     1       1.456  -8.779   1.886  0.00  0.00    +0.036 A 
ATOM      7  C   UNL     1       1.022  -7.885   2.848  0.00  0.00    +0.050 A 
ATOM      8  C   UNL     1       1.142  -6.522   2.632  0.00  0.00    +0.148 A 
BRANCH   5   9
ATOM      9  N   UNL     1       2.466  -9.277  -0.322  0.00  0.00    +0.056 N 
ATOM     10  O   UNL     1       2.946  -8.874  -1.356  0.00  0.00    -0.126 OA
ATOM     11  O   UNL     1       2.364 -10.466  -0.126  0.00  0.00    -0.126 OA
ENDBRANCH   5   9
BRANCH   8  12
ATOM     12  O   UNL     1       0.722  -5.642   3.580  0.00  0.00    -0.432 OA
BRANCH  12  13
ATOM     13  C   UNL     1       0.171  -6.193   4.778  0.00  0.00    +0.541 C 
ATOM     14  F   UNL     1      -0.950  -6.970   4.462  0.00  0.00    -0.166 F 
ATOM     15  F   UNL     1       1.130  -6.994   5.407  0.00  0.00    -0.166 F 
ENDBRANCH  12  13
ENDBRANCH   8  12
ENDBRANCH   1   3
BRANCH   1  16
ATOM     16  C   UNL     1       2.384  -4.189  -0.042  0.00  0.00    +0.157 C 
BRANCH  16  24
ATOM     17  C   UNL     1      -0.016   1.359   0.009  0.00  0.00    +0.005 A 
ATOM     18  C   UNL     1       1.194   2.067   0.002  0.00  0.00    +0.018 A 
ATOM     19  C   UNL     1       2.370   1.401  -0.013  0.00  0.00    +0.096 A 
ATOM     20  N   UNL     1       2.400   0.039  -0.021  0.00  0.00    -0.268 N 
ATOM     21  C   UNL     1       1.236  -0.679  -0.013  0.00  0.00    +0.141 A 
ATOM     22  C   UNL     1       0.002  -0.004   0.002  0.00  0.00    +0.047 A 
ATOM     23  N   UNL     1       1.256  -2.011  -0.020  0.00  0.00    -0.232 NA
ATOM     24  C   UNL     1       2.397  -2.682  -0.034  0.00  0.00    +0.066 A 
ATOM     25  C   UNL     1       3.600  -2.003  -0.042  0.00  0.00    +0.095 A 
ATOM     26  C   UNL     1       3.587  -0.603  -0.035  0.00  0.00    +0.259 A 
ATOM     27  O   UNL     1       4.633   0.026  -0.043  0.00  0.00    -0.267 OA
ENDBRANCH  16  24
ENDBRANCH   1  16
TORSDOF 6
