REMARK  Name = ZINC36838969
REMARK  10 active torsions:
REMARK  status: ('A' for Active; 'I' for Inactive)
REMARK    1  A    between atoms: C_1  and  C_2
REMARK    2  A    between atoms: C_7  and  C_9
REMARK    3  A    between atoms: C_7  and  C_10
REMARK    4  A    between atoms: N_13  and  C_17
REMARK    5  A    between atoms: C_17  and  C_18
REMARK    6  A    between atoms: N_20  and  C_21
REMARK    7  A    between atoms: C_26  and  C_27
REMARK    8  A    between atoms: N_29  and  C_30
REMARK    9  A    between atoms: C_30  and  C_31
REMARK   10  A    between atoms: C_31  and  C_32
REMARK                            x       y       z     vdW  Elec       q    Type
REMARK                         _______ _______ _______ _____ _____    ______ ____
ROOT
ATOM      1  C   UNL     1       0.956  -4.762  -4.461  0.00  0.00    +0.235 C 
ATOM      2  O   UNL     1       0.736  -5.395  -3.450  0.00  0.00    -0.274 OA
ATOM      3  N   UNL     1       1.636  -5.330  -5.476  0.00  0.00    -0.284 N 
ATOM      4  H   UNL     1       1.877  -4.803  -6.254  0.00  0.00    +0.155 HD
ENDROOT
BRANCH   3   5
ATOM      5  C   UNL     1       1.993  -6.675  -5.409  0.00  0.00    +0.046 A 
ATOM      6  C   UNL     1       2.487  -7.208  -4.226  0.00  0.00    +0.024 A 
ATOM      7  C   UNL     1       2.841  -8.540  -4.162  0.00  0.00    +0.002 A 
ATOM      8  C   UNL     1       2.705  -9.356  -5.274  0.00  0.00    +0.001 A 
ATOM      9  C   UNL     1       2.216  -8.845  -6.457  0.00  0.00    +0.015 A 
ATOM     10  C   UNL     1       1.849  -7.499  -6.535  0.00  0.00    +0.058 A 
BRANCH  10  11
ATOM     11  C   UNL     1       1.319  -6.947  -7.796  0.00  0.00    +0.246 C 
ATOM     12  O   UNL     1       0.965  -5.785  -7.850  0.00  0.00    -0.270 OA
ATOM     13  N   UNL     1       1.226  -7.731  -8.889  0.00  0.00    -0.311 N 
ATOM     14  H   UNL     1       1.508  -8.658  -8.846  0.00  0.00    +0.149 HD
BRANCH  13  15
ATOM     15  C   UNL     1       0.699  -7.183 -10.141  0.00  0.00    +0.109 C 
BRANCH  15  16
ATOM     16  C   UNL     1       0.701  -8.272 -11.215  0.00  0.00    +0.054 C 
BRANCH  16  17
ATOM     17  C   UNL     1       0.159  -7.708 -12.503  0.00  0.00    -0.046 A 
ATOM     18  C   UNL     1      -1.197  -7.766 -12.767  0.00  0.00    +0.004 A 
ATOM     19  C   UNL     1      -1.694  -7.248 -13.949  0.00  0.00    +0.000 A 
ATOM     20  C   UNL     1      -0.835  -6.673 -14.866  0.00  0.00    +0.000 A 
ATOM     21  C   UNL     1       0.520  -6.614 -14.602  0.00  0.00    +0.000 A 
ATOM     22  C   UNL     1       1.017  -7.128 -13.419  0.00  0.00    +0.004 A 
ENDBRANCH  16  17
ENDBRANCH  15  16
ENDBRANCH  13  15
ENDBRANCH  10  11
ENDBRANCH   3   5
BRANCH   1  23
ATOM     23  C   UNL     1       0.469  -3.341  -4.582  0.00  0.00    +0.214 C 
BRANCH  23  35
ATOM     24  C   UNL     1      -2.191   0.982   0.365  0.00  0.00    +0.007 C 
ATOM     25  C   UNL     1      -2.050  -0.505   0.035  0.00  0.00    -0.011 C 
ATOM     26  C   UNL     1      -0.903  -0.700  -0.961  0.00  0.00    +0.038 C 
ATOM     27  C   UNL     1      -0.748  -2.184  -1.275  0.00  0.00    +0.113 C 
ATOM     28  C   UNL     1      -0.470  -2.979  -0.004  0.00  0.00    +0.041 C 
ATOM     29  C   UNL     1      -1.618  -2.776   0.988  0.00  0.00    -0.032 C 
ATOM     30  C   UNL     1      -1.750  -1.287   1.315  0.00  0.00    +0.009 C 
ATOM     31  C   UNL     1      -2.923  -3.279   0.367  0.00  0.00    +0.011 C 
ATOM     32  C   UNL     1      -1.329  -3.556   2.271  0.00  0.00    +0.011 C 
ATOM     33  C   UNL     1       0.358  -2.397  -2.283  0.00  0.00    +0.247 C 
ATOM     34  O   UNL     1       1.531  -2.121  -2.155  0.00  0.00    -0.273 OA
ATOM     35  N   UNL     1      -0.236  -2.961  -3.355  0.00  0.00    -0.215 N 
ATOM     36  C   UNL     1      -1.550  -3.128  -3.160  0.00  0.00    +0.310 C 
ATOM     37  O   UNL     1      -2.299  -3.617  -3.983  0.00  0.00    -0.252 OA
ATOM     38  N   UNL     1      -1.948  -2.695  -1.949  0.00  0.00    -0.285 N 
ATOM     39  H   UNL     1      -2.850  -2.716  -1.592  0.00  0.00    +0.151 HD
ENDBRANCH  23  35
ENDBRANCH   1  23
TORSDOF 7
