REMARK  Name = ZINC13619108
REMARK  7 active torsions:
REMARK  status: ('A' for Active; 'I' for Inactive)
REMARK    1  A    between atoms: C_1  and  C_2
REMARK    2  A    between atoms: C_2  and  C_22
REMARK    3  A    between atoms: N_3  and  N_4
REMARK    4  A    between atoms: C_5  and  C_7
REMARK    5  A    between atoms: C_7  and  C_8
REMARK    6  A    between atoms: C_8  and  N_9
REMARK    7  A    between atoms: C_25  and  N_28
REMARK                            x       y       z     vdW  Elec       q    Type
REMARK                         _______ _______ _______ _____ _____    ______ ____
ROOT
ATOM      1  N   UNL     1       0.270   0.983  -1.030  0.00  0.00    -0.207 N 
ATOM      2  C   UNL     1      -0.664   1.625  -1.760  0.00  0.00    +0.234 C 
ATOM      3  O   UNL     1      -0.556   2.814  -1.973  0.00  0.00    -0.274 OA
ATOM      4  H   UNL     1       0.183   0.032  -0.860  0.00  0.00    +0.177 HD
ENDROOT
BRANCH   1   7
ATOM      5  C   UNL     1       3.409   1.821   0.793  0.00  0.00    +0.068 C 
ATOM      6  C   UNL     1       2.324   1.052   0.084  0.00  0.00    +0.063 C 
ATOM      7  N   UNL     1       1.368   1.688  -0.521  0.00  0.00    -0.185 NA
BRANCH   6   8
ATOM      8  C   UNL     1       2.349  -0.422   0.075  0.00  0.00    -0.002 A 
ATOM      9  C   UNL     1       2.790  -1.123   1.201  0.00  0.00    +0.012 A 
ATOM     10  C   UNL     1       2.806  -2.502   1.188  0.00  0.00    +0.033 A 
ATOM     11  C   UNL     1       2.396  -3.191   0.060  0.00  0.00    +0.126 A 
ATOM     12  C   UNL     1       1.963  -2.504  -1.060  0.00  0.00    +0.033 A 
ATOM     13  C   UNL     1       1.936  -1.125  -1.059  0.00  0.00    +0.012 A 
BRANCH  11  14
ATOM     14  N   UNL     1       2.421  -4.671   0.052  0.00  0.00    +0.056 N 
ATOM     15  O   UNL     1       2.061  -5.281  -0.939  0.00  0.00    -0.126 OA
ATOM     16  O   UNL     1       2.801  -5.279   1.037  0.00  0.00    -0.126 OA
ENDBRANCH  11  14
ENDBRANCH   6   8
ENDBRANCH   1   7
BRANCH   2  17
ATOM     17  C   UNL     1      -1.842   0.865  -2.314  0.00  0.00    +0.119 C 
BRANCH  17  18
ATOM     18  C   UNL     1      -2.743   1.821  -3.098  0.00  0.00    +0.131 C 
BRANCH  18  19
ATOM     19  N   UNL     1      -3.888   1.082  -3.636  0.00  0.00    -0.339 N 
ATOM     20  C   UNL     1      -3.921   0.466  -4.874  0.00  0.00    +0.050 A 
ATOM     21  C   UNL     1      -2.980   0.362  -5.894  0.00  0.00    +0.026 A 
ATOM     22  C   UNL     1      -3.287  -0.325  -7.048  0.00  0.00    +0.002 A 
ATOM     23  C   UNL     1      -4.529  -0.920  -7.206  0.00  0.00    +0.001 A 
ATOM     24  C   UNL     1      -5.471  -0.835  -6.204  0.00  0.00    +0.010 A 
ATOM     25  C   UNL     1      -5.176  -0.138  -5.034  0.00  0.00    +0.008 A 
ATOM     26  C   UNL     1      -5.939   0.150  -3.806  0.00  0.00    +0.008 A 
ATOM     27  C   UNL     1      -5.093   0.905  -2.980  0.00  0.00    +0.050 A 
ATOM     28  C   UNL     1      -5.554   1.326  -1.736  0.00  0.00    +0.026 A 
ATOM     29  C   UNL     1      -6.829   1.000  -1.326  0.00  0.00    +0.002 A 
ATOM     30  C   UNL     1      -7.664   0.254  -2.144  0.00  0.00    +0.001 A 
ATOM     31  C   UNL     1      -7.225  -0.172  -3.379  0.00  0.00    +0.010 A 
ENDBRANCH  18  19
ENDBRANCH  17  18
ENDBRANCH   2  17
TORSDOF 6
