REMARK  Name = ZINC09550554
REMARK  13 active torsions:
REMARK  status: ('A' for Active; 'I' for Inactive)
REMARK    1  A    between atoms: C_1  and  C_2
REMARK    2  A    between atoms: C_2  and  C_3
REMARK    3  A    between atoms: C_12  and  C_13
REMARK    4  A    between atoms: C_13  and  C_15
REMARK    5  A    between atoms: C_15  and  O_16
REMARK    6  A    between atoms: O_16  and  C_17
REMARK    7  A    between atoms: C_17  and  C_19
REMARK    8  A    between atoms: C_19  and  N_20
REMARK    9  A    between atoms: N_20  and  S_21
REMARK   10  A    between atoms: S_21  and  C_24
REMARK   11  A    between atoms: C_27  and  S_33
REMARK   12  A    between atoms: C_28  and  N_30
REMARK   13  A    between atoms: S_33  and  C_34
REMARK                            x       y       z     vdW  Elec       q    Type
REMARK                         _______ _______ _______ _____ _____    ______ ____
ROOT
ATOM      1  C   UNL     1      -0.211   1.220  -2.363  0.00  0.00    +0.323 C 
ATOM      2  O   UNL     1       0.783   0.536  -2.424  0.00  0.00    -0.249 OA
ENDROOT
BRANCH   1   3
ATOM      3  O   UNL     1      -0.715   1.567  -1.168  0.00  0.00    -0.456 OA
BRANCH   3   4
ATOM      4  C   UNL     1      -0.013   1.086   0.008  0.00  0.00    +0.311 C 
BRANCH   4   5
ATOM      5  C   UNL     1      -0.718   1.572   1.248  0.00  0.00    +0.202 C 
ATOM      6  O   UNL     1      -1.716   2.257   1.150  0.00  0.00    -0.288 OA
BRANCH   5  16
ATOM      7  C   UNL     1      -0.224   1.241   6.151  0.00  0.00    -0.024 A 
ATOM      8  C   UNL     1      -1.317   1.992   6.524  0.00  0.00    +0.005 A 
ATOM      9  C   UNL     1      -2.145   2.559   5.566  0.00  0.00    +0.001 A 
ATOM     10  C   UNL     1      -1.883   2.376   4.225  0.00  0.00    +0.011 A 
ATOM     11  C   UNL     1      -0.779   1.624   3.835  0.00  0.00    +0.011 A 
ATOM     12  C   UNL     1       0.057   1.045   4.803  0.00  0.00    +0.050 A 
ATOM     13  N   UNL     1       1.054   0.359   4.138  0.00  0.00    -0.360 N 
ATOM     14  H   UNL     1       1.769  -0.132   4.572  0.00  0.00    +0.165 HD
ATOM     15  C   UNL     1       0.897   0.465   2.805  0.00  0.00    +0.095 A 
ATOM     16  C   UNL     1      -0.217   1.229   2.529  0.00  0.00    +0.046 A 
BRANCH   7  18
ATOM     17  C   UNL     1       1.853   1.560   7.466  0.00  0.00    +0.009 C 
ATOM     18  C   UNL     1       0.667   0.632   7.203  0.00  0.00    +0.034 C 
ENDBRANCH   7  18
ENDBRANCH   5  16
ENDBRANCH   4   5
ENDBRANCH   3   4
ENDBRANCH   1   3
BRANCH   1  19
ATOM     19  C   UNL     1      -0.887   1.682  -3.629  0.00  0.00    +0.226 C 
BRANCH  19  20
ATOM     20  N   UNL     1      -0.150   1.174  -4.789  0.00  0.00    -0.179 NA
ATOM     21  H   UNL     1       0.747   0.822  -4.677  0.00  0.00    +0.149 HD
BRANCH  20  22
ATOM     22  S   UNL     1      -0.848   1.202  -6.290  0.00  0.00    +0.059 S 
ATOM     23  O   UNL     1       0.113   0.676  -7.195  0.00  0.00    -0.153 OA
ATOM     24  O   UNL     1      -2.146   0.640  -6.145  0.00  0.00    -0.153 OA
BRANCH  22  25
ATOM     25  C   UNL     1      -1.078   2.893  -6.727  0.00  0.00    +0.107 A 
ATOM     26  C   UNL     1      -2.257   3.537  -6.397  0.00  0.00    +0.030 A 
ATOM     27  C   UNL     1      -2.438   4.864  -6.733  0.00  0.00    +0.019 A 
ATOM     28  C   UNL     1      -1.438   5.550  -7.413  0.00  0.00    +0.038 A 
ATOM     29  C   UNL     1      -0.257   4.899  -7.747  0.00  0.00    +0.141 A 
ATOM     30  C   UNL     1      -0.081   3.573  -7.403  0.00  0.00    +0.062 A 
BRANCH  29  31
ATOM     31  N   UNL     1       0.810   5.625  -8.470  0.00  0.00    +0.058 N 
ATOM     32  O   UNL     1       1.845   5.053  -8.762  0.00  0.00    -0.126 OA
ATOM     33  O   UNL     1       0.654   6.794  -8.773  0.00  0.00    -0.126 OA
ENDBRANCH  29  31
BRANCH  28  34
ATOM     34  S   UNL     1      -1.668   7.242  -7.849  0.00  0.00    -0.126 S 
ATOM     35  C   UNL     1      -3.321   7.638  -7.216  0.00  0.00    +0.090 C 
ENDBRANCH  28  34
ENDBRANCH  22  25
ENDBRANCH  20  22
ENDBRANCH  19  20
ENDBRANCH   1  19
TORSDOF 11
