REMARK  Name = ZINC09971855
REMARK  7 active torsions:
REMARK  status: ('A' for Active; 'I' for Inactive)
REMARK    1  A    between atoms: C_7  and  C_25
REMARK    2  A    between atoms: N_9  and  C_12
REMARK    3  A    between atoms: C_14  and  S_21
REMARK    4  A    between atoms: C_17  and  N_18
REMARK    5  A    between atoms: S_21  and  C_22
REMARK    6  A    between atoms: C_22  and  C_23
REMARK    7  A    between atoms: C_23  and  O_24
REMARK                            x       y       z     vdW  Elec       q    Type
REMARK                         _______ _______ _______ _____ _____    ______ ____
ROOT
ATOM      1  C   UNL     1       2.137  -8.564  -6.934  0.00  0.00    +0.001 A 
ATOM      2  C   UNL     1       1.202  -7.612  -7.320  0.00  0.00    +0.001 A 
ATOM      3  C   UNL     1       0.983  -6.490  -6.551  0.00  0.00    +0.014 A 
ATOM      4  C   UNL     1       1.709  -6.312  -5.374  0.00  0.00    +0.050 A 
ATOM      5  C   UNL     1       2.659  -7.280  -4.981  0.00  0.00    +0.015 A 
ATOM      6  C   UNL     1       2.864  -8.407  -5.775  0.00  0.00    +0.011 A 
ATOM      7  C   UNL     1       3.408  -7.064  -3.735  0.00  0.00    +0.100 A 
ATOM      8  N   UNL     1       3.185  -5.991  -3.018  0.00  0.00    -0.163 NA
ATOM      9  N   UNL     1       2.251  -5.023  -3.389  0.00  0.00    -0.193 N 
ATOM     10  C   UNL     1       1.513  -5.139  -4.512  0.00  0.00    +0.280 A 
ATOM     11  O   UNL     1       0.701  -4.281  -4.810  0.00  0.00    -0.265 OA
ENDROOT
BRANCH   7  12
ATOM     12  C   UNL     1       4.413  -8.057  -3.290  0.00  0.00    +0.003 A 
ATOM     13  C   UNL     1       4.151  -9.421  -3.414  0.00  0.00    +0.011 A 
ATOM     14  C   UNL     1       5.092 -10.342  -3.003  0.00  0.00    +0.020 A 
ATOM     15  C   UNL     1       6.291  -9.915  -2.459  0.00  0.00    +0.041 A 
ATOM     16  C   UNL     1       6.555  -8.562  -2.329  0.00  0.00    +0.020 A 
ATOM     17  C   UNL     1       5.622  -7.632  -2.741  0.00  0.00    +0.011 A 
ATOM     18 CL   UNL     1       7.469 -11.079  -1.938  0.00  0.00    -0.084 Cl
ENDBRANCH   7  12
BRANCH   9  19
ATOM     19  C   UNL     1       2.069  -3.905  -2.569  0.00  0.00    +0.100 A 
ATOM     20  C   UNL     1       2.198  -2.628  -3.097  0.00  0.00    +0.045 A 
ATOM     21  C   UNL     1       2.017  -1.520  -2.280  0.00  0.00    +0.010 A 
ATOM     22  C   UNL     1       1.714  -1.694  -0.934  0.00  0.00    +0.017 A 
ATOM     23  C   UNL     1       1.581  -2.966  -0.413  0.00  0.00    +0.036 A 
ATOM     24  C   UNL     1       1.760  -4.071  -1.224  0.00  0.00    +0.152 A 
BRANCH  24  25
ATOM     25  N   UNL     1       1.623  -5.432  -0.660  0.00  0.00    +0.059 N 
ATOM     26  O   UNL     1       1.352  -5.579   0.519  0.00  0.00    -0.126 OA
ATOM     27  O   UNL     1       1.780  -6.406  -1.374  0.00  0.00    -0.126 OA
ENDBRANCH  24  25
BRANCH  21  28
ATOM     28  S   UNL     1       2.179   0.103  -2.945  0.00  0.00    -0.123 S 
BRANCH  28  29
ATOM     29  C   UNL     1       1.862   1.192  -1.529  0.00  0.00    +0.102 C 
BRANCH  29  30
ATOM     30  C   UNL     1       1.972   2.651  -1.974  0.00  0.00    +0.167 C 
BRANCH  30  31
ATOM     31  O   UNL     1       1.722   3.509  -0.858  0.00  0.00    -0.394 OA
ATOM     32  H   UNL     1       1.776   4.452  -1.067  0.00  0.00    +0.209 HD
ENDBRANCH  30  31
ENDBRANCH  29  30
ENDBRANCH  28  29
ENDBRANCH  21  28
ENDBRANCH   9  19
TORSDOF 7
