REMARK  Name = ZINC11035640
REMARK  4 active torsions:
REMARK  status: ('A' for Active; 'I' for Inactive)
REMARK    1  A    between atoms: C_10  and  C_16
REMARK    2  A    between atoms: C_19  and  O_22
REMARK    3  A    between atoms: O_22  and  C_23
REMARK    4  A    between atoms: C_23  and  C_24
REMARK                            x       y       z     vdW  Elec       q    Type
REMARK                         _______ _______ _______ _____ _____    ______ ____
ROOT
ATOM      1  C   UNL     1       2.384   1.424  -0.012  0.00  0.00    +0.002 A 
ATOM      2  C   UNL     1       1.168   2.090   0.002  0.00  0.00    +0.002 A 
ATOM      3  C   UNL     1      -0.017   1.383   0.010  0.00  0.00    +0.028 A 
ATOM      4  C   UNL     1       0.002  -0.004   0.002  0.00  0.00    +0.072 A 
ATOM      5  C   UNL     1       1.235  -0.684  -0.013  0.00  0.00    +0.091 A 
ATOM      6  C   UNL     1       2.425   0.048  -0.020  0.00  0.00    +0.030 A 
ATOM      7  N   UNL     1       0.966  -2.018  -0.021  0.00  0.00    -0.210 NA
ATOM      8  C   UNL     1      -0.329  -2.205  -0.016  0.00  0.00    +0.236 A 
ATOM      9  N   UNL     1      -0.966  -0.979   0.009  0.00  0.00    -0.285 N 
ATOM     10  C   UNL     1      -2.428  -0.864   0.046  0.00  0.00    +0.209 C 
ATOM     11  N   UNL     1      -2.965  -2.121  -0.507  0.00  0.00    -0.293 N 
ATOM     12  C   UNL     1      -2.332  -3.307  -0.249  0.00  0.00    +0.183 C 
ATOM     13  N   UNL     1      -1.028  -3.364  -0.042  0.00  0.00    -0.183 NA
ATOM     14  N   UNL     1      -3.066  -4.461  -0.205  0.00  0.00    -0.331 N 
ATOM     15  H   UNL     1      -3.765  -2.107  -1.054  0.00  0.00    +0.151 HD
ATOM     16  H   UNL     1      -2.629  -5.308  -0.023  0.00  0.00    +0.145 HD
ATOM     17  H   UNL     1      -4.024  -4.432  -0.355  0.00  0.00    +0.145 HD
ENDROOT
BRANCH  10  18
ATOM     18  C   UNL     1      -2.895  -0.686   1.468  0.00  0.00    -0.007 A 
ATOM     19  C   UNL     1      -3.005  -1.784   2.301  0.00  0.00    +0.011 A 
ATOM     20  C   UNL     1      -3.428  -1.622   3.607  0.00  0.00    +0.046 A 
ATOM     21  C   UNL     1      -3.752  -0.358   4.078  0.00  0.00    +0.121 A 
ATOM     22  C   UNL     1      -3.645   0.741   3.239  0.00  0.00    +0.046 A 
ATOM     23  C   UNL     1      -3.217   0.575   1.936  0.00  0.00    +0.011 A 
BRANCH  21  24
ATOM     24  O   UNL     1      -4.172  -0.197   5.360  0.00  0.00    -0.489 OA
BRANCH  24  25
ATOM     25  C   UNL     1      -4.258  -1.374   6.168  0.00  0.00    +0.260 C 
BRANCH  25  26
ATOM     26  C   UNL     1      -4.745  -0.997   7.568  0.00  0.00    +0.156 C 
ATOM     27  C   UNL     1      -4.763  -2.240   8.484  0.00  0.00    +0.037 C 
ATOM     28  C   UNL     1      -6.021  -2.044   9.359  0.00  0.00    +0.031 C 
ATOM     29  C   UNL     1      -6.615  -0.705   8.868  0.00  0.00    +0.160 C 
ATOM     30  O   UNL     1      -6.118  -0.551   7.519  0.00  0.00    -0.373 OA
ENDBRANCH  25  26
ENDBRANCH  24  25
ENDBRANCH  21  24
ENDBRANCH  10  18
TORSDOF 4
