REMARK  Name = ZINC24353867
REMARK  11 active torsions:
REMARK  status: ('A' for Active; 'I' for Inactive)
REMARK    1  A    between atoms: C_1  and  C_2
REMARK    2  A    between atoms: C_2  and  C_3
REMARK    3  A    between atoms: C_2  and  C_4
REMARK    4  A    between atoms: C_2  and  O_5
REMARK    5  A    between atoms: O_5  and  C_6
REMARK    6  A    between atoms: C_12  and  C_15
REMARK    7  A    between atoms: N_17  and  N_18
REMARK    8  A    between atoms: C_19  and  C_21
REMARK    9  A    between atoms: C_24  and  C_26
REMARK   10  A    between atoms: C_26  and  O_27
REMARK   11  A    between atoms: O_27  and  C_28
REMARK                            x       y       z     vdW  Elec       q    Type
REMARK                         _______ _______ _______ _____ _____    ______ ____
ROOT
ATOM      1  C   UNL     1      -7.059   3.145   1.995  0.00  0.00    +0.234 C 
ATOM      2  O   UNL     1      -6.933   2.780   0.845  0.00  0.00    -0.274 OA
ATOM      3  N   UNL     1      -5.982   3.216   2.802  0.00  0.00    -0.234 N 
ATOM      4  H   UNL     1      -6.096   3.548   3.844  0.00  0.00    +0.173 HD
ENDROOT
BRANCH   1  11
ATOM      5  C   UNL     1     -10.011   5.896   4.591  0.00  0.00    +0.403 C 
ATOM      6  O   UNL     1      -9.099   6.057   5.378  0.00  0.00    -0.226 OA
ATOM      7  N   UNL     1      -9.767   5.367   3.376  0.00  0.00    -0.267 N 
ATOM      8  C   UNL     1     -10.859   5.166   2.413  0.00  0.00    +0.111 C 
ATOM      9  C   UNL     1     -10.848   3.705   1.952  0.00  0.00    +0.020 C 
ATOM     10  C   UNL     1      -9.460   3.356   1.410  0.00  0.00    +0.016 C 
ATOM     11  C   UNL     1      -8.420   3.520   2.521  0.00  0.00    +0.094 C 
ATOM     12  C   UNL     1      -8.404   4.979   2.988  0.00  0.00    +0.124 C 
BRANCH   5  13
ATOM     13  O   UNL     1     -11.265   6.247   4.933  0.00  0.00    -0.445 OA
BRANCH  13  15
ATOM     14  C   UNL     1     -10.619   8.086   6.393  0.00  0.00    +0.055 C 
ATOM     15  C   UNL     1     -11.454   6.811   6.257  0.00  0.00    +0.107 C 
ATOM     16  C   UNL     1     -12.933   7.146   6.463  0.00  0.00    +0.055 C 
ATOM     17  C   UNL     1     -11.009   5.796   7.312  0.00  0.00    +0.055 C 
ENDBRANCH  13  15
ENDBRANCH   5  13
ENDBRANCH   1  11
BRANCH   3  18
ATOM     18  N   UNL     1      -4.716   2.868   2.312  0.00  0.00    -0.228 N 
ATOM     19  C   UNL     1      -3.639   2.938   3.119  0.00  0.00    +0.295 C 
ATOM     20  O   UNL     1      -3.765   3.305   4.273  0.00  0.00    -0.265 OA
ATOM     21  H   UNL     1      -4.601   2.536   1.270  0.00  0.00    +0.173 HD
BRANCH  19  22
ATOM     22  C   UNL     1      -2.314   2.574   2.607  0.00  0.00    +0.191 A 
ATOM     23  C   UNL     1      -1.145   2.600   3.313  0.00  0.00    +0.055 A 
ATOM     24  C   UNL     1      -0.135   2.175   2.437  0.00  0.00    +0.049 A 
ATOM     25  C   UNL     1      -0.723   1.911   1.250  0.00  0.00    +0.143 A 
ATOM     26  O   UNL     1      -2.035   2.158   1.354  0.00  0.00    -0.452 OA
BRANCH  25  27
ATOM     27  C   UNL     1      -0.017   1.425   0.010  0.00  0.00    +0.303 C 
BRANCH  27  28
ATOM     28  O   UNL     1       0.002  -0.004   0.002  0.00  0.00    -0.484 OA
BRANCH  28  29
ATOM     29  C   UNL     1       0.606  -0.607  -1.056  0.00  0.00    +0.121 A 
ATOM     30  C   UNL     1       1.163   0.161  -2.068  0.00  0.00    +0.045 A 
ATOM     31  C   UNL     1       1.782  -0.455  -3.139  0.00  0.00    +0.004 A 
ATOM     32  C   UNL     1       1.835  -1.835  -3.209  0.00  0.00    +0.000 A 
ATOM     33  C   UNL     1       1.275  -2.602  -2.204  0.00  0.00    +0.004 A 
ATOM     34  C   UNL     1       0.661  -1.992  -1.128  0.00  0.00    +0.045 A 
ENDBRANCH  28  29
ENDBRANCH  27  28
ENDBRANCH  25  27
ENDBRANCH  19  22
ENDBRANCH   3  18
TORSDOF 8
