REMARK  Name = ZINC09620609
REMARK  13 active torsions:
REMARK  status: ('A' for Active; 'I' for Inactive)
REMARK    1  A    between atoms: C_1  and  C_2
REMARK    2  A    between atoms: C_2  and  C_4
REMARK    3  A    between atoms: C_2  and  S_16
REMARK    4  A    between atoms: N_6  and  C_7
REMARK    5  A    between atoms: C_11  and  N_13
REMARK    6  A    between atoms: S_16  and  C_17
REMARK    7  A    between atoms: N_27  and  C_28
REMARK    8  A    between atoms: C_28  and  C_29
REMARK    9  A    between atoms: C_29  and  C_30
REMARK   10  A    between atoms: C_30  and  O_31
REMARK   11  A    between atoms: O_31  and  C_32
REMARK   12  A    between atoms: C_32  and  C_33
REMARK   13  A    between atoms: C_32  and  C_34
REMARK                            x       y       z     vdW  Elec       q    Type
REMARK                         _______ _______ _______ _____ _____    ______ ____
ROOT
ATOM      1  C   UNL     1       2.533  -0.027   1.238  0.00  0.00    +0.173 A 
ATOM      2  N   UNL     1       2.808   0.668   0.162  0.00  0.00    -0.223 NA
ATOM      3  C   UNL     1       4.048   1.138  -0.078  0.00  0.00    +0.079 A 
ATOM      4  C   UNL     1       4.342   1.881  -1.225  0.00  0.00    +0.028 A 
ATOM      5  C   UNL     1       5.613   2.338  -1.428  0.00  0.00    +0.002 A 
ATOM      6  C   UNL     1       6.622   2.075  -0.510  0.00  0.00    +0.001 A 
ATOM      7  C   UNL     1       6.366   1.352   0.622  0.00  0.00    +0.015 A 
ATOM      8  C   UNL     1       5.078   0.873   0.854  0.00  0.00    +0.065 A 
ATOM      9  C   UNL     1       4.745   0.091   2.053  0.00  0.00    +0.262 A 
ATOM     10  O   UNL     1       5.587  -0.169   2.892  0.00  0.00    -0.267 OA
ATOM     11  N   UNL     1       3.464  -0.324   2.192  0.00  0.00    -0.287 N 
ENDROOT
BRANCH   1  12
ATOM     12  S   UNL     1       0.882  -0.601   1.468  0.00  0.00    -0.075 S 
BRANCH  12  14
ATOM     13  C   UNL     1      -0.030   1.532   0.018  0.00  0.00    +0.029 C 
ATOM     14  C   UNL     1      -0.000   0.002   0.002  0.00  0.00    +0.137 C 
BRANCH  14  15
ATOM     15  C   UNL     1      -1.411  -0.527   0.013  0.00  0.00    +0.230 C 
ATOM     16  O   UNL     1      -1.935  -0.837   1.062  0.00  0.00    -0.274 OA
ATOM     17  N   UNL     1      -2.090  -0.657  -1.144  0.00  0.00    -0.285 N 
ATOM     18  H   UNL     1      -1.697  -0.348  -1.975  0.00  0.00    +0.155 HD
BRANCH  17  19
ATOM     19  C   UNL     1      -3.363  -1.239  -1.147  0.00  0.00    +0.036 A 
ATOM     20  C   UNL     1      -3.765  -2.028  -2.216  0.00  0.00    +0.023 A 
ATOM     21  C   UNL     1      -5.022  -2.600  -2.216  0.00  0.00    +0.004 A 
ATOM     22  C   UNL     1      -5.880  -2.388  -1.152  0.00  0.00    +0.033 A 
ATOM     23  C   UNL     1      -5.482  -1.602  -0.086  0.00  0.00    +0.128 A 
ATOM     24  C   UNL     1      -4.224  -1.032  -0.077  0.00  0.00    +0.056 A 
BRANCH  23  25
ATOM     25  N   UNL     1      -6.404  -1.377   1.050  0.00  0.00    +0.056 N 
ATOM     26  O   UNL     1      -7.503  -1.880   1.046  0.00  0.00    -0.126 OA
ATOM     27  O   UNL     1      -6.057  -0.690   1.983  0.00  0.00    -0.126 OA
ENDBRANCH  23  25
ENDBRANCH  17  19
ENDBRANCH  14  15
ENDBRANCH  12  14
ENDBRANCH   1  12
BRANCH  11  28
ATOM     28  C   UNL     1       3.075  -1.102   3.370  0.00  0.00    +0.129 C 
BRANCH  28  29
ATOM     29  C   UNL     1       3.266  -2.593   3.083  0.00  0.00    +0.050 C 
BRANCH  29  30
ATOM     30  C   UNL     1       2.860  -3.405   4.314  0.00  0.00    +0.162 C 
BRANCH  30  31
ATOM     31  O   UNL     1       3.038  -4.798   4.046  0.00  0.00    -0.377 OA
BRANCH  31  32
ATOM     32  C   UNL     1       2.686  -5.650   5.138  0.00  0.00    +0.112 C 
ATOM     33  C   UNL     1       2.192  -6.993   4.597  0.00  0.00    +0.037 C 
ATOM     34  C   UNL     1       3.912  -5.877   6.024  0.00  0.00    +0.037 C 
ENDBRANCH  31  32
ENDBRANCH  30  31
ENDBRANCH  29  30
ENDBRANCH  28  29
ENDBRANCH  11  28
TORSDOF 10
