REMARK  Name = ZINC32103378
REMARK  8 active torsions:
REMARK  status: ('A' for Active; 'I' for Inactive)
REMARK    1  A    between atoms: C_1  and  C_2
REMARK    2  A    between atoms: C_2  and  C_3
REMARK    3  A    between atoms: C_3  and  C_4
REMARK    4  A    between atoms: C_4  and  O_5
REMARK    5  A    between atoms: O_5  and  C_6
REMARK    6  A    between atoms: C_6  and  C_8
REMARK    7  A    between atoms: C_11  and  N_14
REMARK    8  A    between atoms: C_15  and  C_17
REMARK                            x       y       z     vdW  Elec       q    Type
REMARK                         _______ _______ _______ _____ _____    ______ ____
ROOT
ATOM      1  N   UNL     1      -2.001   7.290   0.300  0.00  0.00    -0.285 N 
ATOM      2  C   UNL     1      -1.767   5.964   0.346  0.00  0.00    +0.222 C 
ATOM      3  O   UNL     1      -2.696   5.185   0.390  0.00  0.00    -0.275 OA
ATOM      4  H   UNL     1      -1.161   7.999   0.349  0.00  0.00    +0.155 HD
ENDROOT
BRANCH   2   5
ATOM      5  C   UNL     1      -0.351   5.448   0.345  0.00  0.00    +0.093 C 
ATOM      6  C   UNL     1       0.355   5.899  -0.936  0.00  0.00    +0.016 C 
ATOM      7  C   UNL     1       1.773   5.321  -0.958  0.00  0.00    +0.020 C 
ATOM      8  C   UNL     1       1.698   3.796  -0.863  0.00  0.00    +0.106 C 
ATOM      9  N   UNL     1       1.014   3.414   0.379  0.00  0.00    -0.313 N 
ATOM     10  C   UNL     1      -0.365   3.918   0.402  0.00  0.00    +0.119 C 
ATOM     11  C   UNL     1       1.044   2.036   0.562  0.00  0.00    +0.142 A 
ATOM     12  C   UNL     1       2.281   1.362   0.569  0.00  0.00    +0.049 A 
ATOM     13  C   UNL     1       2.322   0.015   0.748  0.00  0.00    +0.053 A 
ATOM     14  C   UNL     1       1.117  -0.690   0.923  0.00  0.00    +0.178 A 
ATOM     15  N   UNL     1       0.822  -1.967   1.114  0.00  0.00    -0.128 NA
ATOM     16  N   UNL     1      -0.455  -2.096   1.215  0.00  0.00    -0.136 NA
ATOM     17  C   UNL     1      -1.039  -0.929   1.097  0.00  0.00    +0.249 A 
ATOM     18  N   UNL     1      -0.073  -0.005   0.909  0.00  0.00    -0.198 N 
ATOM     19  N   UNL     1      -0.081   1.379   0.724  0.00  0.00    -0.148 NA
ENDBRANCH   2   5
BRANCH   1  23
ATOM     20  C   UNL     1      -5.905   8.707  -0.027  0.00  0.00    +0.059 A 
ATOM     21  C   UNL     1      -4.955   9.432   0.699  0.00  0.00    +0.017 A 
ATOM     22  C   UNL     1      -3.666   8.961   0.805  0.00  0.00    +0.024 A 
ATOM     23  C   UNL     1      -3.308   7.764   0.191  0.00  0.00    +0.033 A 
ATOM     24  C   UNL     1      -4.249   7.043  -0.537  0.00  0.00    +0.024 A 
ATOM     25  C   UNL     1      -5.542   7.505  -0.642  0.00  0.00    +0.017 A 
BRANCH  20  26
ATOM     26  C   UNL     1      -7.287   9.208  -0.142  0.00  0.00    +0.339 C 
ATOM     27  O   UNL     1      -7.601  10.252   0.394  0.00  0.00    -0.245 OA
BRANCH  26  28
ATOM     28  O   UNL     1      -8.201   8.508  -0.841  0.00  0.00    -0.461 OA
BRANCH  28  29
ATOM     29  C   UNL     1      -9.542   9.061  -0.913  0.00  0.00    +0.232 C 
BRANCH  29  30
ATOM     30  C   UNL     1     -10.433   8.134  -1.742  0.00  0.00    +0.041 C 
BRANCH  30  32
ATOM     31  C   UNL     1     -12.736   7.790  -2.647  0.00  0.00    +0.004 C 
ATOM     32  C   UNL     1     -11.845   8.717  -1.817  0.00  0.00    -0.000 C 
ENDBRANCH  30  32
ENDBRANCH  29  30
ENDBRANCH  28  29
ENDBRANCH  26  28
ENDBRANCH  20  26
ENDBRANCH   1  23
TORSDOF 7
