REMARK  Name = ZINC11136074
REMARK  14 active torsions:
REMARK  status: ('A' for Active; 'I' for Inactive)
REMARK    1  A    between atoms: C_1  and  C_2
REMARK    2  A    between atoms: C_2  and  C_3
REMARK    3  A    between atoms: C_2  and  C_4
REMARK    4  A    between atoms: C_4  and  N_5
REMARK    5  A    between atoms: C_6  and  C_27
REMARK    6  A    between atoms: C_9  and  S_10
REMARK    7  A    between atoms: S_10  and  C_11
REMARK    8  A    between atoms: C_11  and  C_12
REMARK    9  A    between atoms: C_19  and  C_20
REMARK   10  A    between atoms: C_19  and  N_66
REMARK   11  A    between atoms: N_22  and  C_23
REMARK   12  A    between atoms: C_23  and  C_24
REMARK   13  A    between atoms: C_23  and  C_25
REMARK   14  A    between atoms: C_23  and  C_26
REMARK                            x       y       z     vdW  Elec       q    Type
REMARK                         _______ _______ _______ _____ _____    ______ ____
ROOT
ATOM      1  C   UNL     1      -5.486   4.770  -1.201  0.00  0.00    +0.226 C 
ATOM      2  O   UNL     1      -5.808   3.615  -1.384  0.00  0.00    -0.275 OA
ATOM      3  N   UNL     1      -6.293   5.768  -1.614  0.00  0.00    -0.304 N 
ATOM      4  C   UNL     1      -5.924   7.175  -1.397  0.00  0.00    +0.089 C 
ATOM      5  C   UNL     1      -6.043   7.917  -2.738  0.00  0.00    -0.059 C 
ATOM      6  C   UNL     1      -7.625   6.287  -3.589  0.00  0.00    -0.059 C 
ATOM      7  C   UNL     1      -7.567   5.478  -2.289  0.00  0.00    +0.089 C 
ATOM      8  N   UNL     1      -7.408   7.715  -3.271  0.00  0.00    +0.387 N 
ATOM      9  H   UNL     1      -8.089   8.004  -2.558  0.00  0.00    -0.081 HD
ENDROOT
BRANCH   1  10
ATOM     10  C   UNL     1      -4.184   5.089  -0.512  0.00  0.00    +0.173 C 
BRANCH  10  11
ATOM     11  S   UNL     1      -3.336   3.549  -0.083  0.00  0.00    -0.077 S 
BRANCH  11  16
ATOM     12  N   UNL     1      -0.860   3.478   1.220  0.00  0.00    -0.299 N 
ATOM     13  C   UNL     1       0.032   4.407   1.707  0.00  0.00    +0.200 A 
ATOM     14  N   UNL     1      -0.470   5.595   1.449  0.00  0.00    -0.125 NA
ATOM     15  N   UNL     1      -1.602   5.472   0.852  0.00  0.00    -0.122 NA
ATOM     16  C   UNL     1      -1.890   4.201   0.686  0.00  0.00    +0.192 A 
BRANCH  13  17
ATOM     17  C   UNL     1       1.307   4.125   2.384  0.00  0.00    +0.172 A 
ATOM     18  C   UNL     1       2.313   5.019   2.601  0.00  0.00    +0.053 A 
ATOM     19  C   UNL     1       3.333   4.324   3.279  0.00  0.00    +0.042 A 
ATOM     20  C   UNL     1       2.911   3.053   3.434  0.00  0.00    +0.196 A 
ATOM     21  O   UNL     1       1.687   2.936   2.893  0.00  0.00    -0.460 OA
ENDBRANCH  13  17
BRANCH  12  22
ATOM     22  C   UNL     1      -0.735   2.019   1.269  0.00  0.00    +0.129 C 
BRANCH  22  24
ATOM     23  C   UNL     1       0.002  -0.004   0.002  0.00  0.00    +0.009 C 
ATOM     24  C   UNL     1      -0.019   1.526   0.010  0.00  0.00    +0.003 C 
ATOM     25  C   UNL     1       1.417   2.055  -0.000  0.00  0.00    +0.009 C 
ENDBRANCH  22  24
ENDBRANCH  12  22
ENDBRANCH  11  16
ENDBRANCH  10  11
ENDBRANCH   1  10
BRANCH   8  26
ATOM     26  C   UNL     1      -7.604   8.537  -4.483  0.00  0.00    +0.019 C 
BRANCH  26  27
ATOM     27  C   UNL     1      -7.594   9.991  -4.088  0.00  0.00    +0.197 C 
ATOM     28  O   UNL     1      -7.425  10.305  -2.929  0.00  0.00    -0.278 OA
ATOM     29  N   UNL     1      -7.775  10.944  -5.024  0.00  0.00    -0.312 N 
ATOM     30  H   UNL     1      -7.911  10.694  -5.952  0.00  0.00    +0.149 HD
BRANCH  29  31
ATOM     31  C   UNL     1      -7.766  12.358  -4.641  0.00  0.00    +0.026 C 
ATOM     32  C   UNL     1      -6.415  12.708  -4.013  0.00  0.00    +0.031 C 
ATOM     33  C   UNL     1      -7.991  13.224  -5.882  0.00  0.00    +0.031 C 
ATOM     34  C   UNL     1      -8.882  12.619  -3.628  0.00  0.00    +0.031 C 
ENDBRANCH  29  31
ENDBRANCH  26  27
ENDBRANCH   8  26
TORSDOF 9
