REMARK  Name = ZINC08723423
REMARK  5 active torsions:
REMARK  status: ('A' for Active; 'I' for Inactive)
REMARK    1  A    between atoms: C_6  and  C_7
REMARK    2  A    between atoms: C_10  and  S_13
REMARK    3  A    between atoms: N_11  and  N_12
REMARK    4  A    between atoms: S_13  and  C_14
REMARK    5  A    between atoms: C_14  and  C_15
REMARK                            x       y       z     vdW  Elec       q    Type
REMARK                         _______ _______ _______ _____ _____    ______ ____
ROOT
ATOM      1  C   UNL     1       3.552   3.201   0.186  0.00  0.00    +0.182 A 
ATOM      2  N   UNL     1       3.864   1.935   0.039  0.00  0.00    -0.127 NA
ATOM      3  N   UNL     1       2.801   1.242  -0.165  0.00  0.00    -0.121 NA
ATOM      4  C   UNL     1       1.746   2.025  -0.170  0.00  0.00    +0.209 A 
ATOM      5  N   UNL     1       2.186   3.298   0.056  0.00  0.00    -0.224 N 
ENDROOT
BRANCH   1  11
ATOM      6  C   UNL     1       5.857   4.146   0.208  0.00  0.00    +0.013 A 
ATOM      7  C   UNL     1       6.728   5.189   0.445  0.00  0.00    +0.021 A 
ATOM      8  C   UNL     1       6.251   6.397   0.924  0.00  0.00    +0.041 A 
ATOM      9  C   UNL     1       4.898   6.568   1.164  0.00  0.00    +0.021 A 
ATOM     10  C   UNL     1       4.017   5.534   0.927  0.00  0.00    +0.013 A 
ATOM     11  C   UNL     1       4.491   4.314   0.443  0.00  0.00    +0.021 A 
ATOM     12 CL   UNL     1       7.354   7.703   1.227  0.00  0.00    -0.084 Cl
ENDBRANCH   1  11
BRANCH   5  13
ATOM     13  N   UNL     1       1.427   4.431   0.137  0.00  0.00    -0.295 N 
ATOM     14  H   UNL     1       1.206   4.651   1.097  0.00  0.00    +0.163 HD
ATOM     15  H   UNL     1       1.888   5.208  -0.314  0.00  0.00    +0.163 HD
ENDBRANCH   5  13
BRANCH   4  16
ATOM     16  S   UNL     1       0.074   1.525  -0.416  0.00  0.00    -0.075 S 
BRANCH  16  17
ATOM     17  C   UNL     1       0.309  -0.255  -0.644  0.00  0.00    +0.173 C 
BRANCH  17  18
ATOM     18  C   UNL     1      -1.027  -0.912  -0.877  0.00  0.00    +0.233 C 
ATOM     19  O   UNL     1      -2.038  -0.243  -0.888  0.00  0.00    -0.274 OA
ATOM     20  N   UNL     1      -1.098  -2.244  -1.074  0.00  0.00    -0.224 N 
ATOM     21  C   UNL     1      -2.333  -3.005  -1.311  0.00  0.00    +0.136 C 
ATOM     22  C   UNL     1      -1.847  -4.459  -1.466  0.00  0.00    +0.125 C 
ATOM     23  N   UNL     1      -0.389  -4.362  -1.300  0.00  0.00    -0.297 N 
ATOM     24  C   UNL     1      -0.054  -3.083  -1.089  0.00  0.00    +0.309 C 
ATOM     25  O   UNL     1       1.093  -2.716  -0.923  0.00  0.00    -0.252 OA
ATOM     26  H   UNL     1       0.232  -5.106  -1.341  0.00  0.00    +0.150 HD
ENDBRANCH  17  18
ENDBRANCH  16  17
ENDBRANCH   4  16
TORSDOF 5
