REMARK  Name = ZINC39534400
REMARK  10 active torsions:
REMARK  status: ('A' for Active; 'I' for Inactive)
REMARK    1  A    between atoms: C_4  and  O_7
REMARK    2  A    between atoms: O_7  and  S_8
REMARK    3  A    between atoms: S_8  and  C_11
REMARK    4  A    between atoms: C_14  and  C_17
REMARK    5  A    between atoms: C_17  and  C_19
REMARK    6  A    between atoms: C_17  and  N_22
REMARK    7  A    between atoms: C_19  and  N_20
REMARK    8  A    between atoms: N_20  and  O_21
REMARK    9  A    between atoms: C_26  and  S_29
REMARK   10  A    between atoms: S_29  and  C_32
REMARK                            x       y       z     vdW  Elec       q    Type
REMARK                         _______ _______ _______ _____ _____    ______ ____
ROOT
ATOM      1  C   UNL     1       0.912  -5.513   3.603  0.00  0.00    +0.103 C 
ENDROOT
BRANCH   1   2
ATOM      2  N   UNL     1       0.821  -6.660   2.690  0.00  0.00    -0.290 NA
ATOM      3  C   UNL     1       0.431  -6.228   1.340  0.00  0.00    +0.100 C 
ATOM      4  C   UNL     1       0.424  -7.438   0.403  0.00  0.00    +0.098 C 
ATOM      5  N   UNL     1      -0.508  -8.450   0.919  0.00  0.00    -0.293 NA
ATOM      6  C   UNL     1      -0.118  -8.881   2.269  0.00  0.00    +0.217 C 
ATOM      7  C   UNL     1      -0.112  -7.671   3.207  0.00  0.00    +0.127 C 
ATOM      8  H   UNL     1      -1.457  -8.106   0.910  0.00  0.00    +0.124 HD
BRANCH   6   9
ATOM      9  S   UNL     1      -1.303 -10.113   2.877  0.00  0.00    +0.014 S 
ATOM     10  O   UNL     1      -0.845 -10.670   4.101  0.00  0.00    -0.168 OA
ATOM     11  O   UNL     1      -2.629  -9.616   2.759  0.00  0.00    -0.168 OA
BRANCH   9  12
ATOM     12  C   UNL     1      -1.214 -11.437   1.719  0.00  0.00    +0.090 A 
ATOM     13  C   UNL     1      -2.041 -11.443   0.611  0.00  0.00    +0.027 A 
ATOM     14  C   UNL     1      -1.971 -12.482  -0.298  0.00  0.00    +0.002 A 
ATOM     15  C   UNL     1      -1.075 -13.516  -0.099  0.00  0.00    +0.000 A 
ATOM     16  C   UNL     1      -0.248 -13.510   1.009  0.00  0.00    +0.002 A 
ATOM     17  C   UNL     1      -0.315 -12.468   1.915  0.00  0.00    +0.027 A 
ENDBRANCH   9  12
ENDBRANCH   6   9
ENDBRANCH   1   2
BRANCH   1  21
ATOM     18  C   UNL     1       3.814  -2.746   2.131  0.00  0.00    +0.128 A 
ATOM     19  C   UNL     1       2.636  -2.282   2.685  0.00  0.00    +0.031 A 
ATOM     20  C   UNL     1       1.697  -3.177   3.161  0.00  0.00    +0.007 A 
ATOM     21  C   UNL     1       1.936  -4.537   3.083  0.00  0.00    -0.029 A 
ATOM     22  C   UNL     1       3.114  -5.001   2.528  0.00  0.00    +0.007 A 
ATOM     23  C   UNL     1       4.051  -4.105   2.048  0.00  0.00    +0.031 A 
BRANCH  18  24
ATOM     24  S   UNL     1       5.012  -1.605   1.524  0.00  0.00    +0.151 S 
ATOM     25  O   UNL     1       6.263  -2.278   1.546  0.00  0.00    -0.131 OA
ATOM     26  O   UNL     1       4.793  -0.381   2.213  0.00  0.00    -0.131 OA
BRANCH  24  27
ATOM     27  O   UNL     1       4.684  -1.344   0.061  0.00  0.00    -0.342 OA
BRANCH  27  31
ATOM     28  C   UNL     1       1.415   1.107  -0.516  0.00  0.00    +0.000 A 
ATOM     29  C   UNL     1       2.679   1.656  -0.409  0.00  0.00    +0.004 A 
ATOM     30  C   UNL     1       3.775   0.838  -0.215  0.00  0.00    +0.048 A 
ATOM     31  C   UNL     1       3.607  -0.536  -0.129  0.00  0.00    +0.157 A 
ATOM     32  C   UNL     1       2.337  -1.085  -0.236  0.00  0.00    +0.048 A 
ATOM     33  C   UNL     1       1.244  -0.263  -0.430  0.00  0.00    +0.004 A 
ENDBRANCH  27  31
ENDBRANCH  24  27
ENDBRANCH  18  24
ENDBRANCH   1  21
BRANCH   1  34
ATOM     34  C   UNL     1       1.331  -5.999   4.992  0.00  0.00    +0.134 C 
BRANCH  34  35
ATOM     35  N   UNL     1       1.343  -4.864   5.925  0.00  0.00    -0.202 NA
ATOM     36  H   UNL     1       0.424  -4.456   6.010  0.00  0.00    +0.154 HD
BRANCH  35  37
ATOM     37  O   UNL     1       1.861  -5.266   7.233  0.00  0.00    -0.315 OA
ATOM     38  H   UNL     1       1.887  -4.550   7.882  0.00  0.00    +0.236 HD
ENDBRANCH  35  37
ENDBRANCH  34  35
ENDBRANCH   1  34
TORSDOF 10
