REMARK  Name = ZINC01096801
REMARK  5 active torsions:
REMARK  status: ('A' for Active; 'I' for Inactive)
REMARK    1  A    between atoms: C_1  and  C_2
REMARK    2  A    between atoms: C_3  and  C_14
REMARK    3  A    between atoms: N_5  and  C_7
REMARK    4  A    between atoms: C_27  and  S_30
REMARK    5  A    between atoms: S_30  and  C_31
REMARK                            x       y       z     vdW  Elec       q    Type
REMARK                         _______ _______ _______ _____ _____    ______ ____
ROOT
ATOM      1  C   UNL     1      -3.575   3.674   0.054  0.00  0.00    +0.237 C 
ATOM      2  N   UNL     1      -4.257   2.376   0.054  0.00  0.00    -0.359 N 
ATOM      3  C   UNL     1      -3.722   1.166   0.043  0.00  0.00    +0.046 A 
ATOM      4  C   UNL     1      -4.691   0.139   0.047  0.00  0.00    +0.026 A 
ATOM      5  C   UNL     1      -4.289  -1.160   0.037  0.00  0.00    +0.002 A 
ATOM      6  C   UNL     1      -2.940  -1.510   0.023  0.00  0.00    +0.001 A 
ATOM      7  C   UNL     1      -1.955  -0.570   0.019  0.00  0.00    +0.012 A 
ATOM      8  C   UNL     1      -2.299   0.793   0.028  0.00  0.00    +0.026 A 
ATOM      9  C   UNL     1      -1.182   1.637   0.017  0.00  0.00    +0.119 C 
ATOM     10  C   UNL     1      -1.145   3.115   0.029  0.00  0.00    +0.244 C 
ATOM     11  N   UNL     1      -2.136   3.953   0.042  0.00  0.00    -0.219 NA
ATOM     12  O   UNL     1       0.060   3.731   0.021  0.00  0.00    -0.412 OA
ATOM     13  C   UNL     1       1.192   2.998   0.006  0.00  0.00    +0.273 C 
ATOM     14  N   UNL     1       1.186   1.696  -0.000  0.00  0.00    -0.137 NA
ATOM     15  N   UNL     1      -0.011   0.966   0.007  0.00  0.00    -0.228 N 
ATOM     16  H   UNL     1       0.016  -0.134   0.006  0.00  0.00    +0.175 HD
ATOM     17  H   UNL     1      -5.351   2.493   0.065  0.00  0.00    +0.162 HD
ENDROOT
BRANCH   1  20
ATOM     18  C   UNL     1      -2.435   6.371  -1.153  0.00  0.00    +0.068 C 
ATOM     19  C   UNL     1      -3.638   5.616  -1.658  0.00  0.00    +0.069 A 
ATOM     20  C   UNL     1      -4.140   4.425  -1.124  0.00  0.00    +0.056 A 
ATOM     21  C   UNL     1      -5.221   4.062  -1.856  0.00  0.00    +0.140 A 
ATOM     22  N   UNL     1      -5.399   5.003  -2.819  0.00  0.00    -0.221 N 
ATOM     23  N   UNL     1      -4.389   5.963  -2.672  0.00  0.00    -0.170 NA
ATOM     24 CL   UNL     1      -6.203   2.652  -1.606  0.00  0.00    -0.061 Cl
BRANCH  22  25
ATOM     25  C   UNL     1      -6.409   5.009  -3.791  0.00  0.00    +0.067 A 
ATOM     26  C   UNL     1      -6.862   3.814  -4.332  0.00  0.00    +0.028 A 
ATOM     27  C   UNL     1      -7.861   3.823  -5.285  0.00  0.00    +0.002 A 
ATOM     28  C   UNL     1      -8.404   5.022  -5.708  0.00  0.00    +0.000 A 
ATOM     29  C   UNL     1      -7.951   6.215  -5.175  0.00  0.00    +0.002 A 
ATOM     30  C   UNL     1      -6.956   6.212  -4.218  0.00  0.00    +0.028 A 
ENDBRANCH  22  25
ENDBRANCH   1  20
BRANCH  13  31
ATOM     31  S   UNL     1       2.742   3.836  -0.004  0.00  0.00    -0.069 S 
ATOM     32  C   UNL     1       3.866   2.417  -0.023  0.00  0.00    +0.094 C 
ENDBRANCH  13  31
TORSDOF 3
