REMARK  Name = ZINC04712915
REMARK  6 active torsions:
REMARK  status: ('A' for Active; 'I' for Inactive)
REMARK    1  A    between atoms: C_1  and  C_2
REMARK    2  A    between atoms: C_2  and  C_23
REMARK    3  A    between atoms: C_3  and  C_19
REMARK    4  A    between atoms: C_5  and  C_7
REMARK    5  A    between atoms: N_9  and  C_10
REMARK    6  A    between atoms: C_15  and  N_16
REMARK                            x       y       z     vdW  Elec       q    Type
REMARK                         _______ _______ _______ _____ _____    ______ ____
ROOT
ATOM      1  C   UNL     1      -2.330   1.363  -0.076  0.00  0.00    +0.221 C 
ATOM      2  O   UNL     1      -2.310   0.150  -0.067  0.00  0.00    -0.275 OA
ATOM      3  N   UNL     1      -1.178   2.057   0.012  0.00  0.00    -0.283 N 
ATOM      4  H   UNL     1      -1.198   3.025   0.071  0.00  0.00    +0.155 HD
ENDROOT
BRANCH   3   5
ATOM      5  C   UNL     1       0.047   1.381   0.019  0.00  0.00    +0.064 A 
ATOM      6  C   UNL     1       0.157   0.146   0.646  0.00  0.00    +0.025 A 
ATOM      7  C   UNL     1       1.366  -0.521   0.646  0.00  0.00    +0.002 A 
ATOM      8  C   UNL     1       2.466   0.039   0.023  0.00  0.00    +0.002 A 
ATOM      9  C   UNL     1       2.360   1.268  -0.602  0.00  0.00    +0.034 A 
ATOM     10  C   UNL     1       1.154   1.941  -0.605  0.00  0.00    +0.147 A 
BRANCH  10  11
ATOM     11  N   UNL     1       1.040   3.256  -1.274  0.00  0.00    +0.058 N 
ATOM     12  O   UNL     1       1.986   3.705  -1.898  0.00  0.00    -0.126 OA
ATOM     13  O   UNL     1       0.003   3.889  -1.202  0.00  0.00    -0.126 OA
ENDBRANCH  10  11
ENDBRANCH   3   5
BRANCH   1  17
ATOM     14  C   UNL     1      -4.757  -0.272  -0.264  0.00  0.00    +0.012 C 
ATOM     15  C   UNL     1      -4.916   1.250  -0.283  0.00  0.00    -0.016 C 
ATOM     16  C   UNL     1      -4.397   1.999  -1.513  0.00  0.00    +0.033 C 
ATOM     17  C   UNL     1      -3.644   2.094  -0.184  0.00  0.00    +0.089 C 
ATOM     18  C   UNL     1      -6.177   1.791   0.393  0.00  0.00    +0.012 C 
BRANCH  16  19
ATOM     19  C   UNL     1      -3.768   1.183  -2.612  0.00  0.00    +0.010 C 
ATOM     20  C   UNL     1      -4.281   1.204  -3.821  0.00  0.00    +0.103 C 
ATOM     21 CL   UNL     1      -5.683   2.173  -4.153  0.00  0.00    -0.071 Cl
ATOM     22 CL   UNL     1      -3.557   0.263  -5.088  0.00  0.00    -0.071 Cl
ENDBRANCH  16  19
ENDBRANCH   1  17
TORSDOF 4
