REMARK  Name = ZINC14720314
REMARK  12 active torsions:
REMARK  status: ('A' for Active; 'I' for Inactive)
REMARK    1  A    between atoms: C_1  and  C_2
REMARK    2  A    between atoms: C_2  and  C_3
REMARK    3  A    between atoms: C_3  and  C_4
REMARK    4  A    between atoms: C_4  and  N_5
REMARK    5  A    between atoms: N_5  and  C_6
REMARK    6  A    between atoms: C_7  and  N_19
REMARK    7  A    between atoms: N_8  and  C_15
REMARK    8  A    between atoms: C_15  and  C_16
REMARK    9  A    between atoms: C_16  and  C_17
REMARK   10  A    between atoms: C_16  and  C_18
REMARK   11  A    between atoms: C_20  and  C_22
REMARK   12  A    between atoms: C_28  and  C_30
REMARK                            x       y       z     vdW  Elec       q    Type
REMARK                         _______ _______ _______ _____ _____    ______ ____
ROOT
ATOM      1  N   UNL     1      -3.371   4.447  -0.542  0.00  0.00    -0.264 N 
ATOM      2  C   UNL     1      -3.038   5.346   0.409  0.00  0.00    +0.223 C 
ATOM      3  O   UNL     1      -3.796   5.560   1.332  0.00  0.00    -0.275 OA
ENDROOT
BRANCH   1   4
ATOM      4  C   UNL     1      -2.444   4.113  -1.551  0.00  0.00    +0.140 A 
ATOM      5  C   UNL     1      -2.309   4.908  -2.671  0.00  0.00    +0.127 A 
ATOM      6  N   UNL     1      -1.397   4.556  -3.639  0.00  0.00    -0.280 N 
ATOM      7  C   UNL     1      -0.645   3.449  -3.495  0.00  0.00    +0.331 A 
ATOM      8  O   UNL     1       0.156   3.155  -4.361  0.00  0.00    -0.246 OA
ATOM      9  N   UNL     1      -0.762   2.663  -2.410  0.00  0.00    -0.273 N 
ATOM     10  H   UNL     1      -0.189   1.849  -2.326  0.00  0.00    +0.173 HD
ATOM     11  C   UNL     1      -1.645   2.960  -1.436  0.00  0.00    +0.277 A 
ATOM     12  O   UNL     1      -1.747   2.238  -0.459  0.00  0.00    -0.266 OA
BRANCH   5  13
ATOM     13  N   UNL     1      -3.078   6.037  -2.819  0.00  0.00    -0.343 N 
ATOM     14  H   UNL     1      -2.937   6.624  -3.579  0.00  0.00    +0.144 HD
ATOM     15  H   UNL     1      -3.761   6.248  -2.164  0.00  0.00    +0.144 HD
ENDBRANCH   5  13
BRANCH   6  16
ATOM     16  C   UNL     1      -1.243   5.390  -4.833  0.00  0.00    +0.131 C 
BRANCH  16  17
ATOM     17  C   UNL     1      -2.203   4.905  -5.921  0.00  0.00    +0.003 C 
ATOM     18  C   UNL     1      -2.133   5.850  -7.122  0.00  0.00    +0.009 C 
ATOM     19  C   UNL     1      -1.805   3.494  -6.359  0.00  0.00    +0.009 C 
ENDBRANCH  16  17
ENDBRANCH   6  16
ENDBRANCH   1   4
BRANCH   2  20
ATOM     20  C   UNL     1      -1.726   6.082   0.324  0.00  0.00    +0.078 C 
ATOM     21  C   UNL     1      -0.888   5.776   1.567  0.00  0.00    +0.032 C 
ATOM     22  C   UNL     1       0.458   6.499   1.461  0.00  0.00    +0.108 C 
ATOM     23  N   UNL     1       0.211   7.929   1.237  0.00  0.00    -0.301 N 
ATOM     24  C   UNL     1      -0.657   8.330   0.121  0.00  0.00    +0.108 C 
ATOM     25  C   UNL     1      -1.991   7.587   0.243  0.00  0.00    +0.032 C 
ATOM     26  C   UNL     1       0.769   8.857   2.041  0.00  0.00    +0.219 C 
ATOM     27  O   UNL     1       0.557  10.035   1.846  0.00  0.00    -0.275 OA
BRANCH  26  28
ATOM     28  C   UNL     1       1.657   8.430   3.181  0.00  0.00    +0.075 C 
ATOM     29  C   UNL     1       1.135   8.649   4.603  0.00  0.00    +0.013 C 
ATOM     30  C   UNL     1       2.260   9.530   4.057  0.00  0.00    +0.013 C 
ENDBRANCH  26  28
ENDBRANCH   2  20
BRANCH   1  31
ATOM     31  C   UNL     1      -4.694   3.820  -0.525  0.00  0.00    +0.114 C 
BRANCH  31  32
ATOM     32  C   UNL     1      -4.611   2.472   0.194  0.00  0.00    +0.019 C 
BRANCH  32  34
ATOM     33  C   UNL     1      -5.931   0.530   1.049  0.00  0.00    +0.004 C 
ATOM     34  C   UNL     1      -6.014   1.878   0.330  0.00  0.00    -0.002 C 
ENDBRANCH  32  34
ENDBRANCH  31  32
ENDBRANCH   1  31
TORSDOF 9
