REMARK  Name = ZINC15577320
REMARK  3 active torsions:
REMARK  status: ('A' for Active; 'I' for Inactive)
REMARK    1  A    between atoms: C_3  and  N_21
REMARK    2  A    between atoms: C_6  and  N_7
REMARK    3  A    between atoms: C_8  and  C_10
REMARK                            x       y       z     vdW  Elec       q    Type
REMARK                         _______ _______ _______ _____ _____    ______ ____
ROOT
ATOM      1  N   UNL     1       3.597  -4.510  -0.087  0.00  0.00    -0.282 N 
ATOM      2  C   UNL     1       3.690  -3.242   0.360  0.00  0.00    +0.258 C 
ATOM      3  O   UNL     1       4.385  -2.988   1.321  0.00  0.00    -0.271 OA
ATOM      4  H   UNL     1       2.984  -4.727  -0.807  0.00  0.00    +0.155 HD
ENDROOT
BRANCH   2   5
ATOM      5  C   UNL     1       2.932  -2.141  -0.334  0.00  0.00    +0.263 C 
ATOM      6  C   UNL     1       1.411  -2.276  -0.086  0.00  0.00    +0.093 C 
ATOM      7  C   UNL     1       0.980  -0.826   0.019  0.00  0.00    -0.000 A 
ATOM      8  C   UNL     1      -0.257  -0.222  -0.045  0.00  0.00    +0.027 A 
ATOM      9  C   UNL     1      -0.361   1.154   0.066  0.00  0.00    +0.041 A 
ATOM     10  C   UNL     1       0.781   1.916   0.242  0.00  0.00    +0.023 A 
ATOM     11  C   UNL     1       2.019   1.312   0.310  0.00  0.00    +0.047 A 
ATOM     12  C   UNL     1       2.131  -0.072   0.202  0.00  0.00    +0.125 A 
ATOM     13  O   UNL     1       3.237  -0.864   0.252  0.00  0.00    -0.479 OA
ATOM     14 CL   UNL     1      -1.916   1.920  -0.021  0.00  0.00    -0.084 Cl
ENDBRANCH   2   5
BRANCH   1  20
ATOM     15  C   UNL     1       5.661  -5.218   0.950  0.00  0.00    +0.025 A 
ATOM     16  C   UNL     1       6.434  -6.210   1.521  0.00  0.00    +0.034 A 
ATOM     17  C   UNL     1       5.944  -7.499   1.621  0.00  0.00    +0.126 A 
ATOM     18  C   UNL     1       4.677  -7.799   1.155  0.00  0.00    +0.034 A 
ATOM     19  C   UNL     1       3.896  -6.810   0.588  0.00  0.00    +0.025 A 
ATOM     20  C   UNL     1       4.386  -5.514   0.487  0.00  0.00    +0.034 A 
BRANCH  17  21
ATOM     21  N   UNL     1       6.778  -8.561   2.227  0.00  0.00    +0.056 N 
ATOM     22  O   UNL     1       6.348  -9.697   2.316  0.00  0.00    -0.126 OA
ATOM     23  O   UNL     1       7.894  -8.299   2.638  0.00  0.00    -0.126 OA
ENDBRANCH  17  21
ENDBRANCH   1  20
TORSDOF 3
