REMARK  Name = ZINC04025208
REMARK  3 active torsions:
REMARK  status: ('A' for Active; 'I' for Inactive)
REMARK    1  A    between atoms: C_3  and  N_25
REMARK    2  A    between atoms: C_9  and  C_12
REMARK    3  A    between atoms: C_14  and  C_18
REMARK                            x       y       z     vdW  Elec       q    Type
REMARK                         _______ _______ _______ _____ _____    ______ ____
ROOT
ATOM      1  C   UNL     1      -1.226   1.752  -0.052  0.00  0.00    +0.020 A 
ATOM      2  C   UNL     1      -0.975   2.582   1.032  0.00  0.00    +0.037 A 
ATOM      3  C   UNL     1       0.233   3.255   1.082  0.00  0.00    +0.164 A 
ATOM      4  C   UNL     1       1.150   3.075   0.052  0.00  0.00    +0.130 A 
ATOM      5  C   UNL     1      -0.268   1.615  -1.036  0.00  0.00    +0.084 A 
ATOM      6  N   UNL     1       2.367   3.746   0.088  0.00  0.00    -0.315 N 
ATOM      7  C   UNL     1       2.530   4.606  -1.091  0.00  0.00    +0.107 C 
ATOM      8  C   UNL     1       3.808   5.435  -0.946  0.00  0.00    +0.029 C 
ATOM      9  C   UNL     1       5.008   4.494  -0.808  0.00  0.00    +0.042 C 
ATOM     10  C   UNL     1       4.791   3.577   0.399  0.00  0.00    +0.029 C 
ATOM     11  C   UNL     1       3.485   2.801   0.215  0.00  0.00    +0.107 C 
ATOM     12  N   UNL     1       0.928   2.261  -1.020  0.00  0.00    -0.348 N 
ATOM     13  H   UNL     1       1.622   2.143  -1.769  0.00  0.00    +0.167 HD
ENDROOT
BRANCH   9  14
ATOM     14  C   UNL     1       6.263   5.305  -0.606  0.00  0.00    +0.067 A 
ATOM     15  C   UNL     1       6.351   6.507   0.097  0.00  0.00    +0.053 A 
ATOM     16  C   UNL     1       7.651   6.924   0.053  0.00  0.00    +0.066 A 
ATOM     17  N   UNL     1       8.350   5.997  -0.663  0.00  0.00    -0.277 N 
ATOM     18  H   UNL     1       9.328   6.028  -0.871  0.00  0.00    +0.189 HD
ATOM     19  N   UNL     1       7.453   4.996  -1.055  0.00  0.00    -0.178 NA
BRANCH  16  20
ATOM     20  C   UNL     1       8.199   8.153   0.667  0.00  0.00    -0.000 A 
ATOM     21  C   UNL     1       7.361   9.018   1.371  0.00  0.00    +0.011 A 
ATOM     22  C   UNL     1       7.878  10.160   1.947  0.00  0.00    +0.020 A 
ATOM     23  C   UNL     1       9.225  10.454   1.818  0.00  0.00    +0.041 A 
ATOM     24  C   UNL     1      10.061   9.602   1.116  0.00  0.00    +0.020 A 
ATOM     25  C   UNL     1       9.556   8.454   0.541  0.00  0.00    +0.011 A 
ATOM     26 CL   UNL     1       9.869  11.896   2.539  0.00  0.00    -0.084 Cl
ENDBRANCH  16  20
ENDBRANCH   9  14
BRANCH   3  27
ATOM     27  N   UNL     1       0.517   4.079   2.119  0.00  0.00    +0.060 N 
ATOM     28  O   UNL     1      -0.246   4.154   3.065  0.00  0.00    -0.126 OA
ATOM     29  O   UNL     1       1.537   4.745   2.106  0.00  0.00    -0.126 OA
ENDBRANCH   3  27
TORSDOF 3
