REMARK  Name = ZINC36602417
REMARK  16 active torsions:
REMARK  status: ('A' for Active; 'I' for Inactive)
REMARK    1  A    between atoms: C_1  and  C_2
REMARK    2  A    between atoms: C_5  and  C_7
REMARK    3  A    between atoms: C_7  and  N_8
REMARK    4  A    between atoms: N_8  and  C_9
REMARK    5  A    between atoms: C_9  and  C_11
REMARK    6  A    between atoms: C_9  and  C_20
REMARK    7  A    between atoms: C_14  and  N_17
REMARK    8  A    between atoms: N_22  and  C_23
REMARK    9  A    between atoms: C_23  and  C_24
REMARK   10  A    between atoms: C_23  and  C_25
REMARK   11  A    between atoms: C_23  and  C_26
REMARK   12  A    between atoms: C_26  and  C_27
REMARK   13  A    between atoms: C_27  and  C_28
REMARK   14  A    between atoms: C_27  and  C_29
REMARK   15  A    between atoms: C_27  and  C_30
REMARK   16  A    between atoms: C_31  and  C_33
REMARK                            x       y       z     vdW  Elec       q    Type
REMARK                         _______ _______ _______ _____ _____    ______ ____
ROOT
ATOM      1  C   UNL     1       2.614  -2.864  -1.168  0.00  0.00    +0.193 C 
ENDROOT
BRANCH   1   2
ATOM      2  C   UNL     1       3.918  -3.618  -1.131  0.00  0.00    -0.018 A 
ATOM      3  C   UNL     1       4.066  -4.781  -1.864  0.00  0.00    +0.008 A 
ATOM      4  C   UNL     1       5.262  -5.472  -1.830  0.00  0.00    +0.033 A 
ATOM      5  C   UNL     1       6.312  -5.000  -1.065  0.00  0.00    +0.126 A 
ATOM      6  C   UNL     1       6.165  -3.836  -0.333  0.00  0.00    +0.033 A 
ATOM      7  C   UNL     1       4.970  -3.143  -0.370  0.00  0.00    +0.008 A 
BRANCH   5   8
ATOM      8  N   UNL     1       7.593  -5.740  -1.028  0.00  0.00    +0.056 N 
ATOM      9  O   UNL     1       7.721  -6.758  -1.668  0.00  0.00    -0.126 OA
ATOM     10  O   UNL     1       8.511  -5.327  -0.358  0.00  0.00    -0.126 OA
ENDBRANCH   5   8
ENDBRANCH   1   2
BRANCH   1  11
ATOM     11  C   UNL     1       2.757  -1.654  -2.055  0.00  0.00    +0.239 C 
ATOM     12  O   UNL     1       1.770  -1.091  -2.477  0.00  0.00    -0.273 OA
ATOM     13  N   UNL     1       3.983  -1.197  -2.378  0.00  0.00    -0.308 N 
ATOM     14  H   UNL     1       4.774  -1.647  -2.040  0.00  0.00    +0.149 HD
BRANCH  13  15
ATOM     15  C   UNL     1       4.123  -0.021  -3.240  0.00  0.00    +0.030 C 
ATOM     16  C   UNL     1       3.694  -0.378  -4.664  0.00  0.00    +0.031 C 
ATOM     17  C   UNL     1       3.238   1.109  -2.709  0.00  0.00    +0.031 C 
BRANCH  15  18
ATOM     18  C   UNL     1       5.583   0.436  -3.246  0.00  0.00    +0.031 C 
BRANCH  18  19
ATOM     19  C   UNL     1       6.120   0.450  -1.813  0.00  0.00    -0.036 C 
ATOM     20  C   UNL     1       6.696  -0.925  -1.471  0.00  0.00    +0.010 C 
ATOM     21  C   UNL     1       7.218   1.508  -1.690  0.00  0.00    +0.010 C 
ATOM     22  C   UNL     1       4.982   0.781  -0.846  0.00  0.00    +0.010 C 
ENDBRANCH  18  19
ENDBRANCH  15  18
ENDBRANCH  13  15
ENDBRANCH   1  11
BRANCH   1  23
ATOM     23  N   UNL     1       1.562  -3.735  -1.698  0.00  0.00    -0.275 N 
ATOM     24  C   UNL     1       0.998  -4.669  -0.906  0.00  0.00    +0.249 C 
ATOM     25  O   UNL     1       0.165  -5.428  -1.360  0.00  0.00    -0.270 OA
BRANCH  24  26
ATOM     26  C   UNL     1       1.394  -4.770   0.515  0.00  0.00    +0.055 A 
ATOM     27  C   UNL     1       0.610  -5.492   1.423  0.00  0.00    +0.016 A 
ATOM     28  C   UNL     1       1.024  -5.556   2.741  0.00  0.00    +0.020 A 
ATOM     29  C   UNL     1       2.189  -4.912   3.117  0.00  0.00    +0.111 A 
ATOM     30  N   UNL     1       2.909  -4.239   2.239  0.00  0.00    -0.263 NA
ATOM     31  C   UNL     1       2.559  -4.153   0.973  0.00  0.00    +0.123 A 
ENDBRANCH  24  26
BRANCH  23  32
ATOM     32  C   UNL     1       1.122  -3.591  -3.087  0.00  0.00    +0.183 C 
BRANCH  32  37
ATOM     33  C   UNL     1       4.816  -4.117  -6.481  0.00  0.00    +0.086 C 
ATOM     34  C   UNL     1       3.742  -4.455  -5.479  0.00  0.00    +0.102 A 
ATOM     35  C   UNL     1       3.377  -5.694  -5.106  0.00  0.00    +0.045 A 
ATOM     36  C   UNL     1       2.342  -5.547  -4.154  0.00  0.00    +0.046 A 
ATOM     37  C   UNL     1       2.136  -4.226  -4.004  0.00  0.00    +0.122 A 
ATOM     38  O   UNL     1       2.991  -3.569  -4.804  0.00  0.00    -0.463 OA
ENDBRANCH  32  37
ENDBRANCH  23  32
ENDBRANCH   1  23
TORSDOF 10
