REMARK  Name = ZINC14744061
REMARK  14 active torsions:
REMARK  status: ('A' for Active; 'I' for Inactive)
REMARK    1  A    between atoms: C_1  and  C_2
REMARK    2  A    between atoms: C_2  and  C_3
REMARK    3  A    between atoms: C_2  and  C_4
REMARK    4  A    between atoms: C_4  and  N_5
REMARK    5  A    between atoms: C_8  and  C_10
REMARK    6  A    between atoms: C_19  and  N_69
REMARK    7  A    between atoms: C_23  and  C_24
REMARK    8  A    between atoms: C_23  and  N_69
REMARK    9  A    between atoms: C_24  and  C_25
REMARK   10  A    between atoms: C_24  and  C_26
REMARK   11  A    between atoms: C_24  and  C_27
REMARK   12  A    between atoms: C_27  and  N_72
REMARK   13  A    between atoms: C_28  and  N_72
REMARK   14  A    between atoms: C_29  and  N_72
REMARK                            x       y       z     vdW  Elec       q    Type
REMARK                         _______ _______ _______ _____ _____    ______ ____
ROOT
ATOM      1  N   UNL     1      -1.617   4.196   0.954  0.00  0.00    -0.267 N 
ATOM      2  C   UNL     1      -1.219   3.802  -0.267  0.00  0.00    +0.043 A 
ATOM      3  C   UNL     1      -0.200   2.924  -0.092  0.00  0.00    +0.004 A 
ATOM      4  C   UNL     1      -0.012   2.820   1.296  0.00  0.00    +0.151 A 
ATOM      5  N   UNL     1      -0.903   3.617   1.860  0.00  0.00    -0.166 NA
ATOM      6  C   UNL     1       0.534   2.236  -1.210  0.00  0.00    +0.023 C 
ATOM      7  C   UNL     1      -0.303   2.367  -2.490  0.00  0.00    -0.067 C 
ATOM      8  C   UNL     1      -0.720   3.828  -2.681  0.00  0.00    -0.009 C 
ATOM      9  C   UNL     1      -1.753   4.213  -1.615  0.00  0.00    +0.054 C 
ENDROOT
BRANCH   4  10
ATOM     10  C   UNL     1       0.987   1.983   1.990  0.00  0.00    +0.267 C 
ATOM     11  O   UNL     1       1.682   1.213   1.356  0.00  0.00    -0.268 OA
ATOM     12  N   UNL     1       1.129   2.073   3.328  0.00  0.00    -0.292 N 
ATOM     13  C   UNL     1       2.175   1.313   4.031  0.00  0.00    +0.136 C 
ATOM     14  C   UNL     1       2.950   2.287   4.934  0.00  0.00    +0.179 C 
ATOM     15  O   UNL     1       2.023   3.002   5.755  0.00  0.00    -0.377 OA
ATOM     16  C   UNL     1       1.105   3.820   5.027  0.00  0.00    +0.179 C 
ATOM     17  C   UNL     1       0.239   2.929   4.128  0.00  0.00    +0.136 C 
ENDBRANCH   4  10
BRANCH   7  18
ATOM     18  N   UNL     1       0.506   1.931  -3.644  0.00  0.00    +0.381 N 
ATOM     19  H   UNL     1       1.117   1.159  -3.356  0.00  0.00    -0.085 HD
ATOM     20  H   UNL     1       1.079   2.717  -3.972  0.00  0.00    -0.085 HD
BRANCH  18  21
ATOM     21  C   UNL     1      -0.370   1.476  -4.740  0.00  0.00    -0.078 C 
BRANCH  21  22
ATOM     22  C   UNL     1       0.495   1.031  -5.921  0.00  0.00    -0.065 C 
ATOM     23  C   UNL     1       1.349   2.206  -6.399  0.00  0.00    +0.007 C 
ATOM     24  C   UNL     1       1.407  -0.117  -5.481  0.00  0.00    +0.007 C 
BRANCH  22  25
ATOM     25  C   UNL     1      -0.406   0.556  -7.063  0.00  0.00    -0.075 C 
BRANCH  25  28
ATOM     26  C   UNL     1       0.785  -1.309  -8.043  0.00  0.00    -0.097 C 
ATOM     27  C   UNL     1      -0.250   0.351  -9.470  0.00  0.00    -0.097 C 
ATOM     28  N   UNL     1       0.449   0.123  -8.188  0.00  0.00    +0.376 N 
ATOM     29  H   UNL     1       1.316   0.672  -8.178  0.00  0.00    -0.083 HD
ENDBRANCH  25  28
ENDBRANCH  22  25
ENDBRANCH  21  22
ENDBRANCH  18  21
ENDBRANCH   7  18
BRANCH   1  30
ATOM     30  C   UNL     1      -2.702   5.145   1.219  0.00  0.00    +0.146 C 
BRANCH  30  32
ATOM     31  C   UNL     1      -3.967   3.481   2.588  0.00  0.00    +0.009 C 
ATOM     32  C   UNL     1      -4.023   4.385   1.355  0.00  0.00    +0.004 C 
ATOM     33  C   UNL     1      -5.172   5.383   1.506  0.00  0.00    +0.009 C 
ENDBRANCH  30  32
ENDBRANCH   1  30
TORSDOF 8
