REMARK  Name = ZINC67543914
REMARK  10 active torsions:
REMARK  status: ('A' for Active; 'I' for Inactive)
REMARK    1  A    between atoms: C_1  and  C_2
REMARK    2  A    between atoms: C_5  and  N_25
REMARK    3  A    between atoms: C_7  and  N_8
REMARK    4  A    between atoms: N_11  and  C_12
REMARK    5  A    between atoms: C_12  and  C_14
REMARK    6  A    between atoms: C_12  and  C_15
REMARK    7  A    between atoms: C_22  and  C_24
REMARK    8  A    between atoms: C_26  and  C_28
REMARK    9  A    between atoms: C_28  and  C_29
REMARK   10  A    between atoms: C_28  and  C_30
REMARK                            x       y       z     vdW  Elec       q    Type
REMARK                         _______ _______ _______ _____ _____    ______ ____
ROOT
ATOM      1  N   UNL     1       0.015  -0.711   2.780  0.00  0.00    -0.269 N 
ATOM      2  C   UNL     1       0.315  -1.069   4.044  0.00  0.00    +0.304 C 
ATOM      3  O   UNL     1       0.714  -2.194   4.279  0.00  0.00    -0.252 OA
ATOM      4  N   UNL     1       0.172  -0.182   5.049  0.00  0.00    -0.288 N 
ATOM      5  H   UNL     1      -0.253   0.201   2.586  0.00  0.00    +0.156 HD
ATOM      6  H   UNL     1      -0.147   0.715   4.862  0.00  0.00    +0.151 HD
ENDROOT
BRANCH   1  13
ATOM      7  C   UNL     1      -1.621  -0.322   0.487  0.00  0.00    +0.045 C 
ATOM      8  C   UNL     1      -0.693  -1.502   0.611  0.00  0.00    -0.029 A 
ATOM      9  C   UNL     1      -0.615  -2.429  -0.411  0.00  0.00    +0.007 A 
ATOM     10  C   UNL     1       0.235  -3.512  -0.301  0.00  0.00    +0.024 A 
ATOM     11  C   UNL     1       1.015  -3.673   0.837  0.00  0.00    +0.035 A 
ATOM     12  C   UNL     1       0.940  -2.744   1.865  0.00  0.00    +0.047 A 
ATOM     13  C   UNL     1       0.089  -1.653   1.749  0.00  0.00    +0.039 A 
BRANCH  11  14
ATOM     14  N   UNL     1       1.875  -4.771   0.948  0.00  0.00    -0.285 N 
ATOM     15  C   UNL     1       2.376  -5.349  -0.162  0.00  0.00    +0.220 C 
ATOM     16  O   UNL     1       2.159  -4.861  -1.251  0.00  0.00    -0.275 OA
ATOM     17  H   UNL     1       2.111  -5.116   1.823  0.00  0.00    +0.155 HD
BRANCH  15  18
ATOM     18  C   UNL     1       3.203  -6.604  -0.050  0.00  0.00    +0.069 C 
ATOM     19  C   UNL     1       2.369  -7.710   0.599  0.00  0.00    +0.017 C 
ATOM     20  C   UNL     1       3.644  -7.050  -1.446  0.00  0.00    +0.017 C 
ENDBRANCH  15  18
ENDBRANCH  11  14
ENDBRANCH   1  13
BRANCH   4  21
ATOM     21  C   UNL     1       0.497  -0.572   6.423  0.00  0.00    +0.157 C 
ATOM     22  C   UNL     1       1.996  -0.383   6.665  0.00  0.00    +0.038 C 
BRANCH  21  23
ATOM     23  C   UNL     1      -0.280   0.287   7.387  0.00  0.00    +0.236 C 
ATOM     24  O   UNL     1      -0.882   1.259   6.983  0.00  0.00    -0.274 OA
ATOM     25  N   UNL     1      -0.305  -0.025   8.697  0.00  0.00    -0.297 N 
ATOM     26  C   UNL     1       0.521  -1.121   9.223  0.00  0.00    +0.108 C 
ATOM     27  C   UNL     1       1.365  -0.589  10.385  0.00  0.00    +0.019 C 
ATOM     28  C   UNL     1       0.445   0.058  11.424  0.00  0.00    +0.003 C 
ATOM     29  C   UNL     1      -0.298   1.235  10.787  0.00  0.00    +0.022 C 
ATOM     30  C   UNL     1      -1.155   0.728   9.630  0.00  0.00    +0.073 C 
ATOM     31  C   UNL     1      -1.787   1.916   8.902  0.00  0.00    +0.028 C 
ENDBRANCH  21  23
ENDBRANCH   4  21
TORSDOF 5
