REMARK  Name = ZINC66174752
REMARK  7 active torsions:
REMARK  status: ('A' for Active; 'I' for Inactive)
REMARK    1  A    between atoms: C_1  and  C_2
REMARK    2  A    between atoms: C_2  and  N_3
REMARK    3  A    between atoms: C_6  and  N_9
REMARK    4  A    between atoms: N_12  and  C_13
REMARK    5  A    between atoms: N_12  and  C_14
REMARK    6  A    between atoms: N_17  and  C_20
REMARK    7  A    between atoms: C_23  and  C_26
REMARK                            x       y       z     vdW  Elec       q    Type
REMARK                         _______ _______ _______ _____ _____    ______ ____
ROOT
ATOM      1  N   UNL     1       3.321  -2.408  -3.874  0.00  0.00    -0.297 N 
ATOM      2  C   UNL     1       3.824  -3.650  -4.019  0.00  0.00    +0.302 C 
ATOM      3  O   UNL     1       3.777  -4.436  -3.093  0.00  0.00    -0.253 OA
ATOM      4  N   UNL     1       4.378  -4.020  -5.191  0.00  0.00    -0.286 N 
ATOM      5  C   UNL     1       4.434  -3.072  -6.306  0.00  0.00    +0.134 C 
ATOM      6  H   UNL     1       3.358  -1.780  -4.613  0.00  0.00    +0.151 HD
ENDROOT
BRANCH   1  10
ATOM      7  N   UNL     1       0.690  -0.478  -1.207  0.00  0.00    +0.380 N 
ATOM      8  C   UNL     1       2.097  -0.062  -1.162  0.00  0.00    -0.077 C 
ATOM      9  C   UNL     1       2.798  -0.483  -2.455  0.00  0.00    +0.004 C 
ATOM     10  C   UNL     1       2.718  -2.005  -2.601  0.00  0.00    +0.071 C 
ATOM     11  C   UNL     1       1.248  -2.434  -2.572  0.00  0.00    +0.004 C 
ATOM     12  C   UNL     1       0.605  -1.942  -1.274  0.00  0.00    -0.077 C 
ATOM     13  H   UNL     1       0.249  -0.078  -2.022  0.00  0.00    -0.082 HD
BRANCH   7  15
ATOM     14  C   UNL     1      -0.019   1.526   0.010  0.00  0.00    -0.017 C 
ATOM     15  C   UNL     1       0.002  -0.004   0.002  0.00  0.00    -0.082 C 
ENDBRANCH   7  15
ENDBRANCH   1  10
BRANCH   4  16
ATOM     16  C   UNL     1       4.924  -5.370  -5.348  0.00  0.00    +0.074 C 
ATOM     17  C   UNL     1       6.414  -5.282  -5.693  0.00  0.00    +0.004 C 
ATOM     18  C   UNL     1       6.960  -6.692  -5.934  0.00  0.00    -0.077 C 
ATOM     19  N   UNL     1       6.234  -7.317  -7.046  0.00  0.00    +0.382 N 
ATOM     20  C   UNL     1       4.818  -7.470  -6.694  0.00  0.00    -0.077 C 
ATOM     21  C   UNL     1       4.189  -6.091  -6.482  0.00  0.00    +0.004 C 
ATOM     22  H   UNL     1       6.315  -6.737  -7.868  0.00  0.00    -0.081 HD
BRANCH  19  23
ATOM     23  C   UNL     1       6.813  -8.639  -7.324  0.00  0.00    -0.069 C 
ATOM     24  C   UNL     1       8.287  -8.480  -7.701  0.00  0.00    -0.015 C 
ATOM     25  C   UNL     1       8.890  -9.857  -7.991  0.00  0.00    +0.002 C 
ATOM     26  C   UNL     1       8.135 -10.510  -9.150  0.00  0.00    -0.014 C 
ATOM     27  C   UNL     1       6.661 -10.668  -8.773  0.00  0.00    +0.002 C 
ATOM     28  C   UNL     1       6.058  -9.293  -8.483  0.00  0.00    -0.015 C 
ATOM     29  C   UNL     1       8.252  -9.630 -10.396  0.00  0.00    +0.007 C 
ENDBRANCH  19  23
ENDBRANCH   4  16
TORSDOF 4
