REMARK  Name = ZINC14134591
REMARK  4 active torsions:
REMARK  status: ('A' for Active; 'I' for Inactive)
REMARK    1  A    between atoms: N_9  and  C_21
REMARK    2  A    between atoms: C_10  and  C_12
REMARK    3  A    between atoms: C_12  and  S_13
REMARK    4  A    between atoms: S_13  and  C_14
REMARK                            x       y       z     vdW  Elec       q    Type
REMARK                         _______ _______ _______ _____ _____    ______ ____
ROOT
ATOM      1  C   UNL     1       0.551   1.466   1.359  0.00  0.00    +0.001 A 
ATOM      2  C   UNL     1       1.640   2.131   0.811  0.00  0.00    +0.002 A 
ATOM      3  C   UNL     1       2.634   1.437   0.159  0.00  0.00    +0.028 A 
ATOM      4  C   UNL     1       2.549   0.048   0.046  0.00  0.00    +0.078 A 
ATOM      5  C   UNL     1       1.440  -0.625   0.605  0.00  0.00    +0.065 A 
ATOM      6  C   UNL     1       0.444   0.096   1.261  0.00  0.00    +0.015 A 
ATOM      7  C   UNL     1       1.379  -2.087   0.468  0.00  0.00    +0.266 A 
ATOM      8  O   UNL     1       0.450  -2.727   0.926  0.00  0.00    -0.267 OA
ATOM      9  N   UNL     1       2.396  -2.695  -0.187  0.00  0.00    -0.264 N 
ATOM     10  C   UNL     1       3.426  -1.966  -0.694  0.00  0.00    +0.128 A 
ATOM     11  N   UNL     1       3.506  -0.674  -0.589  0.00  0.00    -0.232 NA
ENDROOT
BRANCH   9  12
ATOM     12  C   UNL     1       2.386  -4.087  -0.345  0.00  0.00    +0.051 A 
ATOM     13  C   UNL     1       1.774  -4.657  -1.454  0.00  0.00    +0.029 A 
ATOM     14  C   UNL     1       1.767  -6.029  -1.608  0.00  0.00    +0.040 A 
ATOM     15  C   UNL     1       2.369  -6.837  -0.658  0.00  0.00    +0.124 A 
ATOM     16  C   UNL     1       2.980  -6.271   0.448  0.00  0.00    +0.040 A 
ATOM     17  C   UNL     1       2.995  -4.899   0.603  0.00  0.00    +0.029 A 
ATOM     18  F   UNL     1       2.361  -8.180  -0.810  0.00  0.00    -0.205 F 
ENDBRANCH   9  12
BRANCH  10  19
ATOM     19  C   UNL     1       4.532  -2.694  -1.413  0.00  0.00    +0.152 C 
BRANCH  19  20
ATOM     20  S   UNL     1       5.693  -1.490  -2.115  0.00  0.00    -0.077 S 
BRANCH  20  21
ATOM     21  C   UNL     1       6.909  -2.485  -2.912  0.00  0.00    +0.210 A 
ATOM     22  N   UNL     1       7.980  -2.026  -3.571  0.00  0.00    -0.188 NA
ATOM     23  C   UNL     1       8.677  -3.037  -4.041  0.00  0.00    +0.209 A 
ATOM     24  N   UNL     1       8.051  -4.178  -3.683  0.00  0.00    -0.246 N 
ATOM     25  H   UNL     1       8.332  -5.083  -3.888  0.00  0.00    +0.192 HD
ATOM     26  N   UNL     1       6.916  -3.796  -2.951  0.00  0.00    -0.144 NA
ATOM     27  N   UNL     1       9.847  -2.947  -4.775  0.00  0.00    -0.328 N 
ATOM     28  H   UNL     1      10.222  -2.078  -4.984  0.00  0.00    +0.145 HD
ATOM     29  H   UNL     1      10.291  -3.754  -5.080  0.00  0.00    +0.145 HD
ENDBRANCH  20  21
ENDBRANCH  19  20
ENDBRANCH  10  19
TORSDOF 4
