REMARK  Name = ZINC13692638
REMARK  4 active torsions:
REMARK  status: ('A' for Active; 'I' for Inactive)
REMARK    1  A    between atoms: C_8  and  C_11
REMARK    2  A    between atoms: C_17  and  C_19
REMARK    3  A    between atoms: C_19  and  O_20
REMARK    4  A    between atoms: O_20  and  C_21
REMARK                            x       y       z     vdW  Elec       q    Type
REMARK                         _______ _______ _______ _____ _____    ______ ____
ROOT
ATOM      1  C   UNL     1       3.760  -3.378  -0.054  0.00  0.00    +0.202 A 
ATOM      2  N   UNL     1       3.326  -4.591   0.213  0.00  0.00    -0.125 NA
ATOM      3  N   UNL     1       4.292  -5.435   0.107  0.00  0.00    -0.120 NA
ATOM      4  C   UNL     1       5.383  -4.811  -0.230  0.00  0.00    +0.218 A 
ATOM      5  N   UNL     1       5.113  -3.471  -0.358  0.00  0.00    -0.184 N 
ATOM      6  N   UNL     1       6.177  -2.657  -0.723  0.00  0.00    -0.157 NA
ATOM      7  C   UNL     1       7.363  -3.146  -0.933  0.00  0.00    +0.140 A 
ATOM      8  S   UNL     1       7.114  -4.886  -0.618  0.00  0.00    -0.028 S 
ENDROOT
BRANCH   1  16
ATOM      9  C   UNL     1      -0.016   1.362   0.009  0.00  0.00    +0.001 A 
ATOM     10  C   UNL     1       1.170   2.083   0.002  0.00  0.00    +0.002 A 
ATOM     11  C   UNL     1       2.387   1.436  -0.013  0.00  0.00    +0.026 A 
ATOM     12  C   UNL     1       2.431   0.046  -0.021  0.00  0.00    +0.047 A 
ATOM     13  C   UNL     1       1.225  -0.682  -0.013  0.00  0.00    +0.000 A 
ATOM     14  C   UNL     1       0.002  -0.004   0.002  0.00  0.00    +0.010 A 
ATOM     15  C   UNL     1       1.598  -2.095  -0.025  0.00  0.00    +0.039 A 
ATOM     16  C   UNL     1       2.957  -2.146  -0.039  0.00  0.00    +0.087 A 
ATOM     17  N   UNL     1       3.465  -0.865  -0.037  0.00  0.00    -0.352 N 
ATOM     18  H   UNL     1       4.408  -0.639  -0.045  0.00  0.00    +0.166 HD
ENDBRANCH   1  16
BRANCH   7  19
ATOM     19  C   UNL     1       8.626  -2.426  -1.331  0.00  0.00    +0.293 C 
BRANCH  19  20
ATOM     20  O   UNL     1       8.357  -1.030  -1.465  0.00  0.00    -0.484 OA
BRANCH  20  21
ATOM     21  C   UNL     1       9.398  -0.232  -1.822  0.00  0.00    +0.139 A 
ATOM     22  C   UNL     1      10.651  -0.783  -2.044  0.00  0.00    +0.048 A 
ATOM     23  C   UNL     1      11.708   0.029  -2.407  0.00  0.00    +0.023 A 
ATOM     24  C   UNL     1      11.518   1.392  -2.549  0.00  0.00    +0.043 A 
ATOM     25  C   UNL     1      10.269   1.945  -2.327  0.00  0.00    +0.043 A 
ATOM     26  C   UNL     1       9.207   1.135  -1.970  0.00  0.00    +0.084 A 
ATOM     27 CL   UNL     1       7.639   1.828  -1.699  0.00  0.00    -0.080 Cl
ATOM     28 CL   UNL     1      12.848   2.410  -3.004  0.00  0.00    -0.083 Cl
ENDBRANCH  20  21
ENDBRANCH  19  20
ENDBRANCH   7  19
TORSDOF 4
