REMARK  Name = ZINC23270634
REMARK  6 active torsions:
REMARK  status: ('A' for Active; 'I' for Inactive)
REMARK    1  A    between atoms: C_1  and  C_2
REMARK    2  A    between atoms: C_5  and  N_8
REMARK    3  A    between atoms: N_9  and  C_10
REMARK    4  A    between atoms: C_12  and  C_25
REMARK    5  A    between atoms: C_15  and  N_16
REMARK    6  A    between atoms: C_17  and  C_19
REMARK                            x       y       z     vdW  Elec       q    Type
REMARK                         _______ _______ _______ _____ _____    ______ ____
ROOT
ATOM      1  C   UNL     1      -0.659   2.240   3.546  0.00  0.00    +0.108 A 
ATOM      2  C   UNL     1      -0.013   1.780   2.394  0.00  0.00    +0.034 A 
ATOM      3  C   UNL     1      -0.739   1.546   1.246  0.00  0.00    -0.048 A 
ATOM      4  C   UNL     1      -2.106   1.770   1.225  0.00  0.00    +0.005 A 
ATOM      5  C   UNL     1      -2.759   2.219   2.356  0.00  0.00    +0.026 A 
ATOM      6  C   UNL     1      -2.045   2.460   3.522  0.00  0.00    +0.061 A 
ATOM      7  C   UNL     1      -0.041   1.051   0.006  0.00  0.00    +0.044 C 
ENDROOT
BRANCH   6   8
ATOM      8  N   UNL     1      -2.702   2.919   4.663  0.00  0.00    -0.283 N 
ATOM      9  C   UNL     1      -3.749   3.759   4.546  0.00  0.00    +0.220 C 
ATOM     10  O   UNL     1      -4.172   4.052   3.447  0.00  0.00    -0.275 OA
ATOM     11  H   UNL     1      -2.365   2.595   5.659  0.00  0.00    +0.155 HD
BRANCH   9  12
ATOM     12  C   UNL     1      -4.395   4.335   5.780  0.00  0.00    +0.080 C 
ATOM     13  C   UNL     1      -4.940   3.198   6.651  0.00  0.00    +0.041 C 
ATOM     14  C   UNL     1      -5.663   3.795   7.861  0.00  0.00    +0.160 C 
ATOM     15  O   UNL     1      -6.707   4.661   7.412  0.00  0.00    -0.380 OA
ATOM     16  C   UNL     1      -6.252   5.769   6.632  0.00  0.00    +0.160 C 
ATOM     17  C   UNL     1      -5.553   5.251   5.372  0.00  0.00    +0.041 C 
ENDBRANCH   9  12
ENDBRANCH   6   8
BRANCH   1  19
ATOM     18  N   UNL     1       1.327   2.270   4.703  0.00  0.00    -0.149 NA
ATOM     19  N   UNL     1       0.054   2.473   4.685  0.00  0.00    -0.147 NA
BRANCH  18  24
ATOM     20  C   UNL     1       4.275   3.236   9.418  0.00  0.00    +0.044 C 
ATOM     21  C   UNL     1       3.488   2.978   8.159  0.00  0.00    -0.050 A 
ATOM     22  C   UNL     1       4.135   2.523   7.024  0.00  0.00    +0.005 A 
ATOM     23  C   UNL     1       3.421   2.285   5.868  0.00  0.00    +0.030 A 
ATOM     24  C   UNL     1       2.041   2.504   5.845  0.00  0.00    +0.086 A 
ATOM     25  C   UNL     1       1.396   2.969   6.994  0.00  0.00    +0.030 A 
ATOM     26  C   UNL     1       2.121   3.197   8.144  0.00  0.00    +0.005 A 
ENDBRANCH  18  24
ENDBRANCH   1  19
TORSDOF 4
