REMARK  Name = ZINC11034790
REMARK  11 active torsions:
REMARK  status: ('A' for Active; 'I' for Inactive)
REMARK    1  A    between atoms: C_1  and  C_2
REMARK    2  A    between atoms: C_4  and  C_28
REMARK    3  A    between atoms: C_5  and  N_9
REMARK    4  A    between atoms: C_6  and  C_8
REMARK    5  A    between atoms: C_10  and  C_12
REMARK    6  A    between atoms: C_12  and  C_14
REMARK    7  A    between atoms: C_12  and  O_15
REMARK    8  A    between atoms: O_15  and  C_16
REMARK    9  A    between atoms: C_16  and  C_18
REMARK   10  A    between atoms: C_21  and  S_24
REMARK   11  A    between atoms: S_24  and  N_27
REMARK                            x       y       z     vdW  Elec       q    Type
REMARK                         _______ _______ _______ _____ _____    ______ ____
ROOT
ATOM      1  C   UNL     1       2.018  -4.491   0.427  0.00  0.00    +0.259 C 
ATOM      2  C   UNL     1       2.458  -4.029  -0.964  0.00  0.00    +0.062 C 
ENDROOT
BRANCH   1   4
ATOM      3  N   UNL     1       3.825  -6.166   0.636  0.00  0.00    -0.282 N 
ATOM      4  C   UNL     1       3.194  -5.093   1.151  0.00  0.00    +0.258 C 
ATOM      5  O   UNL     1       3.572  -4.611   2.198  0.00  0.00    -0.271 OA
ATOM      6  H   UNL     1       3.481  -6.594  -0.163  0.00  0.00    +0.155 HD
BRANCH   3  11
ATOM      7  C   UNL     1       8.499  -8.181   3.142  0.00  0.00    +0.044 C 
ATOM      8  C   UNL     1       7.258  -7.646   2.477  0.00  0.00    -0.050 A 
ATOM      9  C   UNL     1       7.171  -6.304   2.155  0.00  0.00    +0.008 A 
ATOM     10  C   UNL     1       6.035  -5.810   1.545  0.00  0.00    -0.029 A 
ATOM     11  C   UNL     1       4.978  -6.663   1.254  0.00  0.00    +0.039 A 
ATOM     12  C   UNL     1       5.066  -8.009   1.583  0.00  0.00    -0.029 A 
ATOM     13  C   UNL     1       6.208  -8.498   2.188  0.00  0.00    +0.008 A 
ATOM     14  C   UNL     1       3.919  -8.938   1.275  0.00  0.00    +0.045 C 
ATOM     15  C   UNL     1       5.941  -4.347   1.196  0.00  0.00    +0.045 C 
ENDBRANCH   3  11
ENDBRANCH   1   4
BRANCH   1  16
ATOM     16  O   UNL     1       1.516  -3.354   1.178  0.00  0.00    -0.449 OA
BRANCH  16  17
ATOM     17  C   UNL     1       0.200  -3.086   1.075  0.00  0.00    +0.340 C 
ATOM     18  O   UNL     1      -0.509  -3.782   0.377  0.00  0.00    -0.245 OA
BRANCH  17  19
ATOM     19  C   UNL     1      -0.380  -1.944   1.812  0.00  0.00    +0.059 A 
ATOM     20  C   UNL     1      -1.744  -1.663   1.708  0.00  0.00    +0.017 A 
ATOM     21  C   UNL     1      -2.280  -0.596   2.399  0.00  0.00    +0.029 A 
ATOM     22  C   UNL     1      -1.469   0.195   3.194  0.00  0.00    +0.105 A 
ATOM     23  C   UNL     1      -0.117  -0.078   3.302  0.00  0.00    +0.029 A 
ATOM     24  C   UNL     1       0.432  -1.142   2.616  0.00  0.00    +0.017 A 
BRANCH  22  25
ATOM     25  S   UNL     1      -2.162   1.556   4.073  0.00  0.00    +0.056 S 
ATOM     26  O   UNL     1      -1.099   2.467   4.314  0.00  0.00    -0.153 OA
ATOM     27  O   UNL     1      -3.343   1.930   3.377  0.00  0.00    -0.153 OA
BRANCH  25  28
ATOM     28  N   UNL     1      -2.644   0.989   5.552  0.00  0.00    -0.204 NA
ATOM     29  H   UNL     1      -2.515   0.054   5.779  0.00  0.00    +0.144 HD
ATOM     30  H   UNL     1      -3.055   1.591   6.192  0.00  0.00    +0.144 HD
ENDBRANCH  25  28
ENDBRANCH  22  25
ENDBRANCH  17  19
ENDBRANCH  16  17
ENDBRANCH   1  16
TORSDOF 7
