REMARK  Name = ZINC39443448
REMARK  8 active torsions:
REMARK  status: ('A' for Active; 'I' for Inactive)
REMARK    1  A    between atoms: C_1  and  C_2
REMARK    2  A    between atoms: C_2  and  C_4
REMARK    3  A    between atoms: C_2  and  N_17
REMARK    4  A    between atoms: N_17  and  C_18
REMARK    5  A    between atoms: N_17  and  C_19
REMARK    6  A    between atoms: C_19  and  C_20
REMARK    7  A    between atoms: C_20  and  O_21
REMARK    8  A    between atoms: O_21  and  C_22
REMARK                            x       y       z     vdW  Elec       q    Type
REMARK                         _______ _______ _______ _____ _____    ______ ____
ROOT
ATOM      1  C   UNL     1       1.399   0.397  -1.017  0.00  0.00    -0.004 C 
ATOM      2  C   UNL     1       0.486  -0.547  -0.231  0.00  0.00    +0.016 C 
ENDROOT
BRANCH   2   3
ATOM      3  C   UNL     1       1.166  -0.952   1.051  0.00  0.00    +0.203 C 
ATOM      4  O   UNL     1       1.813  -1.977   1.097  0.00  0.00    -0.277 OA
ATOM      5  N   UNL     1       1.056  -0.175   2.147  0.00  0.00    -0.287 N 
ATOM      6  C   UNL     1       2.140   0.263   2.758  0.00  0.00    +0.035 C 
ATOM      7  C   UNL     1       3.466  -0.032   2.200  0.00  0.00    +0.025 C 
ATOM      8  C   UNL     1       4.578   0.412   2.818  0.00  0.00    +0.032 C 
ATOM      9  C   UNL     1       4.470   1.194   4.053  0.00  0.00    +0.095 C 
ATOM     10  N   UNL     1       5.345   1.752   4.868  0.00  0.00    -0.190 NA
ATOM     11  C   UNL     1       4.690   2.361   5.872  0.00  0.00    +0.369 C 
ATOM     12  O   UNL     1       5.296   3.031   6.881  0.00  0.00    -0.243 OA
ATOM     13  N   UNL     1       3.390   2.225   5.750  0.00  0.00    -0.190 NA
ATOM     14  C   UNL     1       3.143   1.496   4.623  0.00  0.00    +0.097 C 
ATOM     15  C   UNL     1       2.020   1.055   4.000  0.00  0.00    +0.053 C 
ATOM     16  H   UNL     1       0.179   0.062   2.487  0.00  0.00    +0.155 HD
ENDBRANCH   2   3
BRANCH   2  17
ATOM     17  N   UNL     1       0.209  -1.743  -1.037  0.00  0.00    +0.387 N 
ATOM     18  C   UNL     1      -0.735  -2.609  -0.318  0.00  0.00    -0.095 C 
ATOM     19  H   UNL     1       1.068  -2.245  -1.201  0.00  0.00    -0.081 HD
BRANCH  17  20
ATOM     20  C   UNL     1      -0.377  -1.342  -2.323  0.00  0.00    -0.037 C 
BRANCH  20  21
ATOM     21  C   UNL     1      -0.560  -2.577  -3.208  0.00  0.00    +0.210 C 
BRANCH  21  22
ATOM     22  O   UNL     1      -1.580  -3.411  -2.655  0.00  0.00    -0.494 OA
BRANCH  22  23
ATOM     23  C   UNL     1      -1.869  -4.559  -3.324  0.00  0.00    +0.120 A 
ATOM     24  C   UNL     1      -1.181  -4.877  -4.485  0.00  0.00    +0.047 A 
ATOM     25  C   UNL     1      -1.476  -6.044  -5.164  0.00  0.00    +0.023 A 
ATOM     26  C   UNL     1      -2.458  -6.894  -4.686  0.00  0.00    +0.041 A 
ATOM     27  C   UNL     1      -3.146  -6.577  -3.529  0.00  0.00    +0.023 A 
ATOM     28  C   UNL     1      -2.849  -5.415  -2.843  0.00  0.00    +0.047 A 
ATOM     29 CL   UNL     1      -2.827  -8.359  -5.542  0.00  0.00    -0.084 Cl
ENDBRANCH  22  23
ENDBRANCH  21  22
ENDBRANCH  20  21
ENDBRANCH  17  20
ENDBRANCH   2  17
TORSDOF 6
