REMARK  Name = ZINC01417081
REMARK  3 active torsions:
REMARK  status: ('A' for Active; 'I' for Inactive)
REMARK    1  A    between atoms: C_6  and  C_7
REMARK    2  A    between atoms: C_11  and  C_22
REMARK    3  A    between atoms: N_13  and  C_15
REMARK                            x       y       z     vdW  Elec       q    Type
REMARK                         _______ _______ _______ _____ _____    ______ ____
ROOT
ATOM      1  C   UNL     1      -4.696   4.276   0.048  0.00  0.00    +0.249 C 
ATOM      2  O   UNL     1      -4.464   5.473   0.053  0.00  0.00    -0.270 OA
ATOM      3  N   UNL     1      -3.690   3.401   0.038  0.00  0.00    -0.273 N 
ATOM      4  C   UNL     1      -2.425   3.838   0.034  0.00  0.00    +0.123 A 
ATOM      5  C   UNL     1      -1.207   3.096   0.025  0.00  0.00    +0.176 A 
ATOM      6  N   UNL     1      -0.115   3.802   0.029  0.00  0.00    -0.152 NA
ATOM      7  N   UNL     1      -0.143   5.091   0.030  0.00  0.00    -0.199 N 
ATOM      8  S   UNL     1      -1.813   5.462   0.040  0.00  0.00    +0.031 S 
ATOM      9  H   UNL     1      -3.900   2.322   0.034  0.00  0.00    +0.156 HD
ENDROOT
BRANCH   1  15
ATOM     10  C   UNL     1      -6.365   2.424   0.041  0.00  0.00    +0.014 A 
ATOM     11  C   UNL     1      -7.671   1.980   0.051  0.00  0.00    +0.021 A 
ATOM     12  C   UNL     1      -8.715   2.890   0.061  0.00  0.00    +0.041 A 
ATOM     13  C   UNL     1      -8.454   4.250   0.066  0.00  0.00    +0.021 A 
ATOM     14  C   UNL     1      -7.152   4.705   0.062  0.00  0.00    +0.014 A 
ATOM     15  C   UNL     1      -6.097   3.793   0.052  0.00  0.00    +0.037 A 
ATOM     16 CL   UNL     1     -10.356   2.325   0.067  0.00  0.00    -0.084 Cl
ENDBRANCH   1  15
BRANCH   7  17
ATOM     17  C   UNL     1       0.937   5.976   0.031  0.00  0.00    +0.074 A 
ATOM     18  C   UNL     1       2.238   5.487   0.028  0.00  0.00    +0.031 A 
ATOM     19  C   UNL     1       3.304   6.365   0.022  0.00  0.00    +0.040 A 
ATOM     20  C   UNL     1       3.078   7.731   0.031  0.00  0.00    +0.124 A 
ATOM     21  C   UNL     1       1.782   8.221   0.040  0.00  0.00    +0.040 A 
ATOM     22  C   UNL     1       0.713   7.348   0.039  0.00  0.00    +0.031 A 
ATOM     23  F   UNL     1       4.122   8.588   0.032  0.00  0.00    -0.205 F 
ENDBRANCH   7  17
BRANCH   5  24
ATOM     24  C   UNL     1      -1.187   1.624   0.017  0.00  0.00    +0.264 C 
ATOM     25  O   UNL     1      -2.232   1.001   0.018  0.00  0.00    -0.269 OA
ATOM     26  N   UNL     1      -0.011   0.966   0.007  0.00  0.00    -0.324 N 
ATOM     27  H   UNL     1       0.004  -0.134   0.001  0.00  0.00    +0.145 HD
ATOM     28  H   UNL     1       0.934   1.529   0.006  0.00  0.00    +0.145 HD
ENDBRANCH   5  24
TORSDOF 3
