REMARK  Name = ZINC12055438
REMARK  14 active torsions:
REMARK  status: ('A' for Active; 'I' for Inactive)
REMARK    1  A    between atoms: C_1  and  C_2
REMARK    2  A    between atoms: C_2  and  C_3
REMARK    3  A    between atoms: C_2  and  C_4
REMARK    4  A    between atoms: C_4  and  C_5
REMARK    5  A    between atoms: C_5  and  C_7
REMARK    6  A    between atoms: C_5  and  N_29
REMARK    7  A    between atoms: C_17  and  C_19
REMARK    8  A    between atoms: C_22  and  C_25
REMARK    9  A    between atoms: C_25  and  O_27
REMARK   10  A    between atoms: O_27  and  C_28
REMARK   11  A    between atoms: C_30  and  C_32
REMARK   12  A    between atoms: C_32  and  N_68
REMARK   13  A    between atoms: C_33  and  N_68
REMARK   14  A    between atoms: C_34  and  N_68
REMARK                            x       y       z     vdW  Elec       q    Type
REMARK                         _______ _______ _______ _____ _____    ______ ____
ROOT
ATOM      1  C   UNL     1       3.305  -0.660   2.582  0.00  0.00    +0.154 A 
ATOM      2  N   UNL     1       3.790  -1.810   2.965  0.00  0.00    -0.132 NA
ATOM      3  N   UNL     1       4.374  -1.676   4.104  0.00  0.00    -0.134 NA
ATOM      4  C   UNL     1       4.287  -0.435   4.495  0.00  0.00    +0.135 A 
ATOM      5  N   UNL     1       3.586   0.240   3.555  0.00  0.00    -0.312 N 
ATOM      6  C   UNL     1       3.177   1.644   3.574  0.00  0.00    +0.144 C 
ATOM      7  C   UNL     1       4.178   2.471   4.387  0.00  0.00    +0.129 C 
ATOM      8  N   UNL     1       3.845   2.355   5.815  0.00  0.00    -0.295 N 
ATOM      9  C   UNL     1       3.825   1.030   6.437  0.00  0.00    +0.116 C 
ATOM     10  C   UNL     1       4.878   0.156   5.748  0.00  0.00    +0.095 C 
ATOM     11  C   UNL     1       3.561   3.455   6.541  0.00  0.00    +0.247 C 
ATOM     12  O   UNL     1       3.685   4.558   6.047  0.00  0.00    -0.270 OA
ENDROOT
BRANCH  11  13
ATOM     13  C   UNL     1       3.099   3.318   7.941  0.00  0.00    +0.037 A 
ATOM     14  C   UNL     1       2.358   2.200   8.325  0.00  0.00    +0.014 A 
ATOM     15  C   UNL     1       1.932   2.071   9.630  0.00  0.00    +0.016 A 
ATOM     16  C   UNL     1       2.233   3.063  10.564  0.00  0.00    +0.059 A 
ATOM     17  C   UNL     1       2.970   4.184  10.178  0.00  0.00    +0.016 A 
ATOM     18  C   UNL     1       3.400   4.311   8.875  0.00  0.00    +0.014 A 
BRANCH  16  19
ATOM     19  C   UNL     1       1.772   2.927  11.963  0.00  0.00    +0.339 C 
ATOM     20  O   UNL     1       2.035   3.790  12.776  0.00  0.00    -0.245 OA
BRANCH  19  21
ATOM     21  O   UNL     1       1.061   1.845  12.335  0.00  0.00    -0.464 OA
ATOM     22  C   UNL     1       0.642   1.778  13.724  0.00  0.00    +0.280 C 
ENDBRANCH  19  21
ENDBRANCH  16  19
ENDBRANCH  11  13
BRANCH   1  23
ATOM     23  C   UNL     1       2.565  -0.385   1.298  0.00  0.00    +0.141 C 
BRANCH  23  24
ATOM     24  N   UNL     1       3.271  -1.018   0.182  0.00  0.00    -0.307 N 
ATOM     25  C   UNL     1       3.130  -0.532  -1.068  0.00  0.00    +0.197 C 
ATOM     26  O   UNL     1       2.418   0.429  -1.268  0.00  0.00    -0.278 OA
ATOM     27  H   UNL     1       3.841  -1.787   0.342  0.00  0.00    +0.149 HD
BRANCH  25  28
ATOM     28  C   UNL     1       3.857  -1.184  -2.216  0.00  0.00    +0.018 C 
BRANCH  28  31
ATOM     29  C   UNL     1       4.075   0.894  -3.440  0.00  0.00    -0.096 C 
ATOM     30  C   UNL     1       4.034  -1.214  -4.630  0.00  0.00    -0.096 C 
ATOM     31  N   UNL     1       3.511  -0.472  -3.464  0.00  0.00    +0.382 N 
ATOM     32  H   UNL     1       2.489  -0.409  -3.540  0.00  0.00    -0.082 HD
ENDBRANCH  28  31
ENDBRANCH  25  28
ENDBRANCH  23  24
BRANCH  23  33
ATOM     33  C   UNL     1       1.148  -0.955   1.394  0.00  0.00    +0.033 C 
BRANCH  33  35
ATOM     34  C   UNL     1       0.180   0.950   0.101  0.00  0.00    +0.007 C 
ATOM     35  C   UNL     1       0.357  -0.569   0.143  0.00  0.00    -0.015 C 
ATOM     36  C   UNL     1      -1.017  -1.242   0.181  0.00  0.00    +0.007 C 
ENDBRANCH  33  35
ENDBRANCH  23  33
ENDBRANCH   1  23
TORSDOF 9
