REMARK  Name = ZINC16789157
REMARK  9 active torsions:
REMARK  status: ('A' for Active; 'I' for Inactive)
REMARK    1  A    between atoms: C_1  and  C_2
REMARK    2  A    between atoms: C_3  and  C_7
REMARK    3  A    between atoms: C_10  and  S_13
REMARK    4  A    between atoms: N_11  and  N_12
REMARK    5  A    between atoms: S_13  and  C_14
REMARK    6  A    between atoms: C_14  and  C_16
REMARK    7  A    between atoms: C_14  and  C_17
REMARK    8  A    between atoms: N_19  and  C_20
REMARK    9  A    between atoms: C_21  and  C_30
REMARK                            x       y       z     vdW  Elec       q    Type
REMARK                         _______ _______ _______ _____ _____    ______ ____
ROOT
ATOM      1  C   UNL     1      -5.224   4.993   0.056  0.00  0.00    +0.137 C 
ATOM      2  C   UNL     1      -4.681   5.576  -1.250  0.00  0.00    +0.029 C 
ENDROOT
BRANCH   1   3
ATOM      3  C   UNL     1      -6.686   5.334   0.189  0.00  0.00    +0.231 C 
ATOM      4  O   UNL     1      -7.529   4.508  -0.091  0.00  0.00    -0.274 OA
ATOM      5  N   UNL     1      -7.057   6.556   0.619  0.00  0.00    -0.278 N 
ATOM      6  H   UNL     1      -6.383   7.216   0.843  0.00  0.00    +0.155 HD
BRANCH   5   7
ATOM      7  C   UNL     1      -8.403   6.870   0.742  0.00  0.00    +0.090 A 
ATOM      8  C   UNL     1      -8.976   8.059   1.162  0.00  0.00    +0.084 A 
ATOM      9  C   UNL     1     -10.430   8.136   1.200  0.00  0.00    -0.018 A 
ATOM     10  C   UNL     1     -11.069   7.008   0.821  0.00  0.00    -0.004 A 
ATOM     11  S   UNL     1      -9.777   5.872   0.399  0.00  0.00    -0.077 S 
ATOM     12  C   UNL     1     -12.546   6.767   0.767  0.00  0.00    +0.043 C 
ATOM     13  C   UNL     1     -13.221   7.931   0.029  0.00  0.00    +0.005 C 
ATOM     14  C   UNL     1     -13.581   9.006   1.050  0.00  0.00    +0.001 C 
ATOM     15  C   UNL     1     -12.546   9.034   2.172  0.00  0.00    +0.005 C 
ATOM     16  C   UNL     1     -11.171   9.398   1.621  0.00  0.00    +0.037 C 
BRANCH   8  17
ATOM     17  C   UNL     1      -8.165   9.175   1.546  0.00  0.00    +0.102 C 
ATOM     18  N   UNL     1      -7.522  10.061   1.850  0.00  0.00    -0.191 NA
ENDBRANCH   8  17
ENDBRANCH   5   7
ENDBRANCH   1   3
BRANCH   1  19
ATOM     19  S   UNL     1      -5.022   3.195   0.045  0.00  0.00    -0.072 S 
BRANCH  19  23
ATOM     20  C   UNL     1      -1.209   2.341   0.021  0.00  0.00    +0.185 A 
ATOM     21  N   UNL     1      -1.211   3.654   0.033  0.00  0.00    -0.127 NA
ATOM     22  N   UNL     1      -2.420   4.090   0.037  0.00  0.00    -0.121 NA
ATOM     23  C   UNL     1      -3.264   3.084   0.036  0.00  0.00    +0.209 A 
ATOM     24  N   UNL     1      -2.523   1.935   0.026  0.00  0.00    -0.224 N 
BRANCH  20  27
ATOM     25  C   UNL     1       1.784   3.273   0.002  0.00  0.00    +0.087 C 
ATOM     26  C   UNL     1       1.286   1.851  -0.000  0.00  0.00    +0.112 A 
ATOM     27  C   UNL     1      -0.018   1.464   0.010  0.00  0.00    +0.061 A 
ATOM     28  C   UNL     1       0.002  -0.004   0.002  0.00  0.00    +0.053 A 
ATOM     29  C   UNL     1       1.298  -0.357  -0.012  0.00  0.00    +0.196 A 
ATOM     30  O   UNL     1       2.054   0.751  -0.013  0.00  0.00    -0.467 OA
ENDBRANCH  20  27
BRANCH  24  31
ATOM     31  N   UNL     1      -2.990   0.652   0.021  0.00  0.00    -0.295 N 
ATOM     32  H   UNL     1      -3.109   0.307   0.962  0.00  0.00    +0.163 HD
ATOM     33  H   UNL     1      -3.851   0.582  -0.500  0.00  0.00    +0.163 HD
ENDBRANCH  24  31
ENDBRANCH  19  23
ENDBRANCH   1  19
TORSDOF 7
