REMARK  Name = ZINC36569364
REMARK  9 active torsions:
REMARK  status: ('A' for Active; 'I' for Inactive)
REMARK    1  A    between atoms: C_1  and  O_2
REMARK    2  A    between atoms: O_2  and  C_3
REMARK    3  A    between atoms: C_3  and  C_5
REMARK    4  A    between atoms: C_5  and  C_6
REMARK    5  A    between atoms: C_6  and  C_8
REMARK    6  A    between atoms: C_6  and  N_12
REMARK    7  A    between atoms: C_8  and  O_10
REMARK    8  A    between atoms: O_10  and  C_11
REMARK    9  A    between atoms: C_24  and  C_26
REMARK                            x       y       z     vdW  Elec       q    Type
REMARK                         _______ _______ _______ _____ _____    ______ ____
ROOT
ATOM      1  N   UNL     1      -5.175  -2.159  -0.305  0.00  0.00    -0.286 N 
ATOM      2  C   UNL     1      -4.569  -1.987  -1.497  0.00  0.00    +0.304 C 
ATOM      3  O   UNL     1      -3.359  -2.073  -1.582  0.00  0.00    -0.253 OA
ATOM      4  N   UNL     1      -5.304  -1.720  -2.594  0.00  0.00    -0.273 N 
ATOM      5  C   UNL     1      -4.676  -1.644  -3.921  0.00  0.00    +0.116 C 
ATOM      6  C   UNL     1      -5.229  -2.770  -4.804  0.00  0.00    +0.074 C 
ATOM      7  C   UNL     1      -6.725  -2.827  -4.638  0.00  0.00    +0.040 A 
ATOM      8  C   UNL     1      -7.409  -2.270  -3.615  0.00  0.00    +0.062 A 
ATOM      9  N   UNL     1      -8.707  -2.525  -3.797  0.00  0.00    -0.348 N 
ATOM     10  C   UNL     1      -8.858  -3.217  -4.896  0.00  0.00    +0.171 A 
ATOM     11  N   UNL     1      -7.641  -3.425  -5.450  0.00  0.00    -0.349 N 
ATOM     12  H   UNL     1      -7.456  -3.908  -6.270  0.00  0.00    +0.166 HD
ATOM     13  C   UNL     1      -6.759  -1.504  -2.494  0.00  0.00    +0.159 C 
ATOM     14  H   UNL     1      -6.131  -2.018  -0.222  0.00  0.00    +0.151 HD
ATOM     15  H   UNL     1      -9.424  -2.241  -3.207  0.00  0.00    +0.167 HD
ENDROOT
BRANCH  13  16
ATOM     16  C   UNL     1      -7.069  -0.036  -2.634  0.00  0.00    +0.014 A 
ATOM     17  C   UNL     1      -7.578   0.452  -3.823  0.00  0.00    +0.011 A 
ATOM     18  C   UNL     1      -7.864   1.798  -3.953  0.00  0.00    +0.039 A 
ATOM     19  C   UNL     1      -7.641   2.660  -2.892  0.00  0.00    +0.126 A 
ATOM     20  C   UNL     1      -7.131   2.172  -1.701  0.00  0.00    +0.077 A 
ATOM     21  C   UNL     1      -6.851   0.823  -1.570  0.00  0.00    +0.131 A 
ATOM     22  F   UNL     1      -6.359   0.345  -0.406  0.00  0.00    -0.205 F 
ATOM     23  F   UNL     1      -7.919   3.975  -3.020  0.00  0.00    -0.205 F 
ENDBRANCH  13  16
BRANCH   1  24
ATOM     24  C   UNL     1      -4.389  -2.560   0.865  0.00  0.00    +0.194 C 
BRANCH  24  25
ATOM     25  C   UNL     1      -3.788  -1.338   1.509  0.00  0.00    +0.328 C 
ATOM     26  O   UNL     1      -3.995  -0.244   1.040  0.00  0.00    -0.249 OA
BRANCH  25  27
ATOM     27  O   UNL     1      -3.024  -1.464   2.605  0.00  0.00    -0.467 OA
ATOM     28  C   UNL     1      -2.487  -0.264   3.164  0.00  0.00    +0.280 C 
ENDBRANCH  25  27
ENDBRANCH  24  25
BRANCH  24  29
ATOM     29  C   UNL     1      -5.298  -3.272   1.869  0.00  0.00    +0.154 C 
BRANCH  29  30
ATOM     30  C   UNL     1      -5.801  -4.559   1.267  0.00  0.00    +0.309 C 
ATOM     31  O   UNL     1      -5.468  -4.874   0.149  0.00  0.00    -0.251 OA
BRANCH  30  33
ATOM     32  C   UNL     1      -7.059  -6.559   1.339  0.00  0.00    +0.280 C 
ATOM     33  O   UNL     1      -6.620  -5.355   1.972  0.00  0.00    -0.468 OA
ENDBRANCH  30  33
ENDBRANCH  29  30
ENDBRANCH  24  29
ENDBRANCH   1  24
TORSDOF 7
