REMARK  Name = ZINC36586733
REMARK  18 active torsions:
REMARK  status: ('A' for Active; 'I' for Inactive)
REMARK    1  A    between atoms: C_1  and  C_2
REMARK    2  A    between atoms: C_2  and  C_3
REMARK    3  A    between atoms: C_3  and  C_4
REMARK    4  A    between atoms: C_3  and  C_6
REMARK    5  A    between atoms: C_4  and  C_5
REMARK    6  A    between atoms: C_6  and  C_8
REMARK    7  A    between atoms: C_6  and  N_22
REMARK    8  A    between atoms: N_10  and  C_11
REMARK    9  A    between atoms: C_11  and  S_12
REMARK   10  A    between atoms: S_12  and  C_15
REMARK   11  A    between atoms: C_18  and  C_21
REMARK   12  A    between atoms: N_22  and  C_33
REMARK   13  A    between atoms: C_23  and  C_25
REMARK   14  A    between atoms: C_26  and  O_32
REMARK   15  A    between atoms: C_30  and  O_31
REMARK   16  A    between atoms: C_33  and  C_34
REMARK   17  A    between atoms: C_33  and  C_35
REMARK   18  A    between atoms: C_33  and  C_36
REMARK                            x       y       z     vdW  Elec       q    Type
REMARK                         _______ _______ _______ _____ _____    ______ ____
ROOT
ATOM      1  C   UNL     1      -0.172  -0.678  -1.724  0.00  0.00    +0.166 C 
ENDROOT
BRANCH   1   2
ATOM      2  C   UNL     1      -0.209   0.814  -1.514  0.00  0.00    +0.235 C 
ATOM      3  O   UNL     1      -0.120   1.562  -2.464  0.00  0.00    -0.274 OA
ATOM      4  N   UNL     1      -0.342   1.317  -0.271  0.00  0.00    -0.295 N 
ATOM      5  H   UNL     1      -0.339   0.722   0.496  0.00  0.00    +0.150 HD
BRANCH   4   6
ATOM      6  C   UNL     1      -0.490   2.761  -0.076  0.00  0.00    +0.278 C 
BRANCH   6   7
ATOM      7  S   UNL     1      -2.252   3.179   0.035  0.00  0.00    +0.013 S 
ATOM      8  O   UNL     1      -2.410   4.569   0.287  0.00  0.00    -0.168 OA
ATOM      9  O   UNL     1      -2.972   2.546  -1.014  0.00  0.00    -0.168 OA
BRANCH   7  10
ATOM     10  C   UNL     1      -2.812   2.389   1.507  0.00  0.00    +0.090 A 
ATOM     11  C   UNL     1      -3.299   1.096   1.454  0.00  0.00    +0.027 A 
ATOM     12  C   UNL     1      -3.739   0.476   2.609  0.00  0.00    +0.005 A 
ATOM     13  C   UNL     1      -3.692   1.148   3.816  0.00  0.00    -0.050 A 
ATOM     14  C   UNL     1      -3.204   2.441   3.868  0.00  0.00    +0.005 A 
ATOM     15  C   UNL     1      -2.760   3.059   2.714  0.00  0.00    +0.027 A 
ATOM     16  C   UNL     1      -4.172   0.473   5.074  0.00  0.00    +0.044 C 
ENDBRANCH   7  10
ENDBRANCH   6   7
ENDBRANCH   4   6
ENDBRANCH   1   2
BRANCH   1  17
ATOM     17  N   UNL     1       0.200  -0.967  -3.111  0.00  0.00    -0.280 N 
ATOM     18  C   UNL     1      -0.659  -1.622  -3.916  0.00  0.00    +0.255 C 
ATOM     19  O   UNL     1      -1.762  -1.931  -3.507  0.00  0.00    -0.270 OA
BRANCH  18  20
ATOM     20  C   UNL     1      -0.262  -1.964  -5.292  0.00  0.00    +0.119 A 
ATOM     21  C   UNL     1       0.391  -3.177  -5.558  0.00  0.00    +0.133 A 
ATOM     22  C   UNL     1       0.760  -3.489  -6.857  0.00  0.00    +0.046 A 
ATOM     23  C   UNL     1       0.485  -2.611  -7.888  0.00  0.00    +0.007 A 
ATOM     24  C   UNL     1      -0.158  -1.413  -7.638  0.00  0.00    +0.046 A 
ATOM     25  C   UNL     1      -0.540  -1.083  -6.348  0.00  0.00    +0.133 A 
BRANCH  25  26
ATOM     26  O   UNL     1      -1.177   0.090  -6.105  0.00  0.00    -0.506 OA
ATOM     27  H   UNL     1      -0.589   0.807  -5.829  0.00  0.00    +0.292 HD
ENDBRANCH  25  26
BRANCH  21  28
ATOM     28  O   UNL     1       0.662  -4.040  -4.547  0.00  0.00    -0.506 OA
ATOM     29  H   UNL     1      -0.041  -4.683  -4.381  0.00  0.00    +0.292 HD
ENDBRANCH  21  28
ENDBRANCH  18  20
BRANCH  17  30
ATOM     30  C   UNL     1       1.506  -0.544  -3.622  0.00  0.00    +0.030 C 
ATOM     31  C   UNL     1       2.549  -1.619  -3.309  0.00  0.00    +0.031 C 
ATOM     32  C   UNL     1       1.420  -0.342  -5.136  0.00  0.00    +0.031 C 
ATOM     33  C   UNL     1       1.913   0.771  -2.955  0.00  0.00    +0.031 C 
ENDBRANCH  17  30
ENDBRANCH   1  17
BRANCH   1  34
ATOM     34  C   UNL     1       0.858  -1.300  -0.779  0.00  0.00    +0.018 C 
BRANCH  34  36
ATOM     35  C   UNL     1      -0.284  -3.518  -0.920  0.00  0.00    +0.004 C 
ATOM     36  C   UNL     1       1.040  -2.779  -1.125  0.00  0.00    +0.002 C 
ENDBRANCH  34  36
BRANCH  34  37
ATOM     37  C   UNL     1       2.195  -0.572  -0.931  0.00  0.00    +0.002 C 
ATOM     38  C   UNL     1       2.079   0.836  -0.343  0.00  0.00    +0.004 C 
ENDBRANCH  34  37
ENDBRANCH   1  34
TORSDOF 12
