REMARK  Name = ZINC23798688
REMARK  11 active torsions:
REMARK  status: ('A' for Active; 'I' for Inactive)
REMARK    1  A    between atoms: C_1  and  C_2
REMARK    2  A    between atoms: C_2  and  C_3
REMARK    3  A    between atoms: C_3  and  C_4
REMARK    4  A    between atoms: C_3  and  C_5
REMARK    5  A    between atoms: C_3  and  C_6
REMARK    6  A    between atoms: N_14  and  C_18
REMARK    7  A    between atoms: C_18  and  C_19
REMARK    8  A    between atoms: N_21  and  C_22
REMARK    9  A    between atoms: C_28  and  O_30
REMARK   10  A    between atoms: O_30  and  C_31
REMARK   11  A    between atoms: C_31  and  C_32
REMARK                            x       y       z     vdW  Elec       q    Type
REMARK                         _______ _______ _______ _____ _____    ______ ____
ROOT
ATOM      1  C   UNL     1       0.763  -2.041   1.233  0.00  0.00    -0.005 C 
ATOM      2  C   UNL     1      -0.673  -2.570   1.243  0.00  0.00    +0.006 C 
ATOM      3  C   UNL     1      -0.651  -4.101   1.222  0.00  0.00    +0.035 C 
ATOM      4  C   UNL     1       0.108  -4.618   2.440  0.00  0.00    +0.113 C 
ATOM      5  C   UNL     1       1.534  -4.078   2.457  0.00  0.00    +0.035 C 
ATOM      6  C   UNL     1       1.503  -2.547   2.473  0.00  0.00    +0.006 C 
ATOM      7  C   UNL     1       0.117  -6.129   2.452  0.00  0.00    +0.247 C 
ATOM      8  O   UNL     1       0.596  -6.867   1.617  0.00  0.00    -0.273 OA
ATOM      9  N   UNL     1      -0.521  -6.484   3.587  0.00  0.00    -0.215 N 
ATOM     10  C   UNL     1      -0.924  -5.413   4.281  0.00  0.00    +0.310 C 
ATOM     11  O   UNL     1      -1.520  -5.479   5.338  0.00  0.00    -0.252 OA
ATOM     12  N   UNL     1      -0.595  -4.255   3.677  0.00  0.00    -0.285 N 
ATOM     13  H   UNL     1      -0.750  -3.197   3.932  0.00  0.00    +0.151 HD
ENDROOT
BRANCH   1  14
ATOM     14  C   UNL     1       0.742  -0.511   1.242  0.00  0.00    -0.032 C 
ATOM     15  C   UNL     1       2.178   0.019   1.231  0.00  0.00    +0.011 C 
ATOM     16  C   UNL     1       0.026  -0.018   2.500  0.00  0.00    +0.011 C 
BRANCH  14  18
ATOM     17  C   UNL     1      -0.019   1.526   0.010  0.00  0.00    +0.004 C 
ATOM     18  C   UNL     1       0.002  -0.004   0.002  0.00  0.00    +0.003 C 
ENDBRANCH  14  18
ENDBRANCH   1  14
BRANCH   9  19
ATOM     19  C   UNL     1      -0.743  -7.870   4.007  0.00  0.00    +0.213 C 
BRANCH  19  20
ATOM     20  C   UNL     1       0.417  -8.332   4.850  0.00  0.00    +0.231 C 
ATOM     21  O   UNL     1       1.340  -7.578   5.077  0.00  0.00    -0.274 OA
ATOM     22  N   UNL     1       0.430  -9.583   5.351  0.00  0.00    -0.311 N 
ATOM     23  H   UNL     1      -0.406 -10.267   5.144  0.00  0.00    +0.149 HD
BRANCH  22  24
ATOM     24  C   UNL     1       1.558 -10.032   6.170  0.00  0.00    +0.076 C 
ATOM     25  C   UNL     1       2.679 -10.541   5.260  0.00  0.00    +0.041 C 
ATOM     26  C   UNL     1       3.870 -10.978   6.119  0.00  0.00    +0.113 C 
ATOM     27  N   UNL     1       3.405 -11.958   7.109  0.00  0.00    -0.267 N 
ATOM     28  C   UNL     1       2.272 -11.605   7.975  0.00  0.00    +0.113 C 
ATOM     29  C   UNL     1       1.099 -11.161   7.096  0.00  0.00    +0.041 C 
ATOM     30  C   UNL     1       4.006 -13.159   7.221  0.00  0.00    +0.403 C 
ATOM     31  O   UNL     1       3.611 -13.962   8.044  0.00  0.00    -0.226 OA
BRANCH  30  32
ATOM     32  O   UNL     1       5.043 -13.470   6.421  0.00  0.00    -0.451 OA
BRANCH  32  33
ATOM     33  C   UNL     1       5.641 -14.781   6.596  0.00  0.00    +0.230 C 
ATOM     34  C   UNL     1       6.796 -14.952   5.607  0.00  0.00    +0.048 C 
ENDBRANCH  32  33
ENDBRANCH  30  32
ENDBRANCH  22  24
ENDBRANCH  19  20
ENDBRANCH   9  19
TORSDOF 7
