REMARK  Name = ZINC08441845
REMARK  13 active torsions:
REMARK  status: ('A' for Active; 'I' for Inactive)
REMARK    1  A    between atoms: C_1  and  C_2
REMARK    2  A    between atoms: C_2  and  C_3
REMARK    3  A    between atoms: C_2  and  O_4
REMARK    4  A    between atoms: O_4  and  C_5
REMARK    5  A    between atoms: C_5  and  C_7
REMARK    6  A    between atoms: C_9  and  C_25
REMARK    7  A    between atoms: C_11  and  N_13
REMARK    8  A    between atoms: C_14  and  C_16
REMARK    9  A    between atoms: C_18  and  N_21
REMARK   10  A    between atoms: C_25  and  O_27
REMARK   11  A    between atoms: O_27  and  C_28
REMARK   12  A    between atoms: C_28  and  C_29
REMARK   13  A    between atoms: C_28  and  C_30
REMARK                            x       y       z     vdW  Elec       q    Type
REMARK                         _______ _______ _______ _____ _____    ______ ____
ROOT
ATOM      1  C   UNL     1      -2.961  -2.168  -0.786  0.00  0.00    +0.062 A 
ATOM      2  C   UNL     1      -3.974  -1.563  -0.043  0.00  0.00    +0.030 A 
ATOM      3  C   UNL     1      -5.212  -2.190   0.081  0.00  0.00    +0.062 A 
ATOM      4  C   UNL     1      -5.434  -3.422  -0.537  0.00  0.00    +0.038 A 
ATOM      5  C   UNL     1      -4.424  -4.022  -1.275  0.00  0.00    +0.035 A 
ATOM      6  C   UNL     1      -3.192  -3.397  -1.407  0.00  0.00    +0.038 A 
ENDROOT
BRANCH   5   7
ATOM      7  N   UNL     1      -4.650  -5.257  -1.893  0.00  0.00    -0.280 N 
ATOM      8  C   UNL     1      -3.643  -6.144  -2.014  0.00  0.00    +0.270 C 
ATOM      9  O   UNL     1      -2.564  -5.913  -1.502  0.00  0.00    -0.268 OA
ATOM     10  H   UNL     1      -5.531  -5.474  -2.235  0.00  0.00    +0.155 HD
BRANCH   8  11
ATOM     11  C   UNL     1      -3.849  -7.397  -2.767  0.00  0.00    +0.170 A 
ATOM     12  C   UNL     1      -2.894  -8.421  -2.974  0.00  0.00    +0.124 A 
ATOM     13  C   UNL     1      -3.527  -9.363  -3.714  0.00  0.00    +0.256 A 
ATOM     14  N   UNL     1      -4.789  -8.918  -3.932  0.00  0.00    -0.122 NA
ATOM     15  N   UNL     1      -4.959  -7.775  -3.370  0.00  0.00    -0.141 NA
ATOM     16 CL   UNL     1      -1.256  -8.461  -2.400  0.00  0.00    -0.077 Cl
BRANCH  13  17
ATOM     17  N   UNL     1      -2.949 -10.638  -4.194  0.00  0.00    +0.078 N 
ATOM     18  O   UNL     1      -1.803 -10.920  -3.931  0.00  0.00    -0.125 OA
ATOM     19  O   UNL     1      -3.622 -11.398  -4.851  0.00  0.00    -0.125 OA
ENDBRANCH  13  17
ENDBRANCH   8  11
ENDBRANCH   5   7
BRANCH   1  20
ATOM     20  C   UNL     1      -1.647  -1.506  -0.922  0.00  0.00    +0.340 C 
ATOM     21  O   UNL     1      -0.767  -2.032  -1.573  0.00  0.00    -0.245 OA
BRANCH  20  22
ATOM     22  O   UNL     1      -1.425  -0.320  -0.323  0.00  0.00    -0.458 OA
BRANCH  22  24
ATOM     23  C   UNL     1      -0.249   1.787  -0.448  0.00  0.00    +0.052 C 
ATOM     24  C   UNL     1      -0.132   0.262  -0.496  0.00  0.00    +0.171 C 
ATOM     25  C   UNL     1       0.796  -0.214   0.624  0.00  0.00    +0.052 C 
ENDBRANCH  22  24
ENDBRANCH  20  22
ENDBRANCH   1  20
BRANCH   3  26
ATOM     26  C   UNL     1      -6.288  -1.553   0.868  0.00  0.00    +0.340 C 
ATOM     27  O   UNL     1      -7.367  -2.100   0.976  0.00  0.00    -0.245 OA
BRANCH  26  28
ATOM     28  O   UNL     1      -6.073  -0.365   1.465  0.00  0.00    -0.458 OA
BRANCH  28  29
ATOM     29  C   UNL     1      -7.158   0.193   2.209  0.00  0.00    +0.171 C 
ATOM     30  C   UNL     1      -6.606   1.041   3.357  0.00  0.00    +0.052 C 
ATOM     31  C   UNL     1      -8.008   1.072   1.290  0.00  0.00    +0.052 C 
ENDBRANCH  28  29
ENDBRANCH  26  28
ENDBRANCH   3  26
TORSDOF 9
