REMARK  Name = ZINC40348334
REMARK  7 active torsions:
REMARK  status: ('A' for Active; 'I' for Inactive)
REMARK    1  A    between atoms: C_1  and  C_2
REMARK    2  A    between atoms: C_5  and  C_7
REMARK    3  A    between atoms: C_7  and  C_9
REMARK    4  A    between atoms: C_7  and  N_10
REMARK    5  A    between atoms: N_10  and  S_11
REMARK    6  A    between atoms: S_11  and  C_14
REMARK    7  A    between atoms: C_15  and  N_22
REMARK                            x       y       z     vdW  Elec       q    Type
REMARK                         _______ _______ _______ _____ _____    ______ ____
ROOT
ATOM      1  S   UNL     1       4.019  -4.913  -2.264  0.00  0.00    +0.062 S 
ATOM      2  O   UNL     1       5.034  -4.697  -3.235  0.00  0.00    -0.153 OA
ATOM      3  O   UNL     1       4.063  -5.995  -1.344  0.00  0.00    -0.153 OA
ENDROOT
BRANCH   1   4
ATOM      4  C   UNL     1       2.501  -5.062  -3.146  0.00  0.00    +0.140 A 
ATOM      5  C   UNL     1       1.466  -5.827  -2.623  0.00  0.00    +0.053 A 
ATOM      6  C   UNL     1       0.271  -5.942  -3.321  0.00  0.00    +0.040 A 
ATOM      7  C   UNL     1       0.114  -5.295  -4.532  0.00  0.00    +0.021 A 
ATOM      8  C   UNL     1       1.147  -4.534  -5.050  0.00  0.00    +0.032 A 
ATOM      9  C   UNL     1       2.337  -4.413  -4.354  0.00  0.00    +0.047 A 
ATOM     10 BR   UNL     1       3.743  -3.364  -5.062  0.00  0.00    -0.048 Br
ATOM     11 BR   UNL     1      -1.513  -5.451  -5.483  0.00  0.00    -0.050 Br
BRANCH   5  12
ATOM     12  N   UNL     1       1.628  -6.481  -1.399  0.00  0.00    -0.356 N 
ATOM     13  H   UNL     1       2.249  -6.132  -0.742  0.00  0.00    +0.142 HD
ATOM     14  H   UNL     1       1.118  -7.283  -1.207  0.00  0.00    +0.142 HD
ENDBRANCH   5  12
ENDBRANCH   1   4
BRANCH   1  15
ATOM     15  N   UNL     1       3.927  -3.528  -1.361  0.00  0.00    -0.180 NA
ATOM     16  H   UNL     1       4.523  -2.786  -1.548  0.00  0.00    +0.149 HD
BRANCH  15  17
ATOM     17  C   UNL     1       2.945  -3.423  -0.278  0.00  0.00    +0.139 C 
ATOM     18  C   UNL     1       3.604  -3.809   1.048  0.00  0.00    +0.034 C 
BRANCH  17  23
ATOM     19  C   UNL     1       2.858   1.620  -0.292  0.00  0.00    +0.086 C 
ATOM     20  C   UNL     1       2.401   0.187  -0.200  0.00  0.00    +0.102 A 
ATOM     21  C   UNL     1       1.142  -0.224   0.033  0.00  0.00    +0.045 A 
ATOM     22  C   UNL     1       1.166  -1.638   0.037  0.00  0.00    +0.046 A 
ATOM     23  C   UNL     1       2.439  -2.006  -0.195  0.00  0.00    +0.123 A 
ATOM     24  O   UNL     1       3.182  -0.897  -0.343  0.00  0.00    -0.463 OA
ENDBRANCH  17  23
ENDBRANCH  15  17
ENDBRANCH   1  15
TORSDOF 5
