REMARK  Name = ZINC39699309
REMARK  9 active torsions:
REMARK  status: ('A' for Active; 'I' for Inactive)
REMARK    1  A    between atoms: C_1  and  C_2
REMARK    2  A    between atoms: C_4  and  C_31
REMARK    3  A    between atoms: C_9  and  C_14
REMARK    4  A    between atoms: C_14  and  C_16
REMARK    5  A    between atoms: C_14  and  N_26
REMARK    6  A    between atoms: N_21  and  C_22
REMARK    7  A    between atoms: C_22  and  C_23
REMARK    8  A    between atoms: C_22  and  C_24
REMARK    9  A    between atoms: C_22  and  C_25
REMARK                            x       y       z     vdW  Elec       q    Type
REMARK                         _______ _______ _______ _____ _____    ______ ____
ROOT
ATOM      1  C   UNL     1      -1.207  -3.843   3.274  0.00  0.00    -0.011 C 
ENDROOT
BRANCH   1  10
ATOM      2  C   UNL     1       4.783  -1.261   6.182  0.00  0.00    +0.044 C 
ATOM      3  C   UNL     1       3.342  -1.158   5.752  0.00  0.00    -0.050 A 
ATOM      4  C   UNL     1       2.515  -0.210   6.356  0.00  0.00    +0.008 A 
ATOM      5  C   UNL     1       1.208  -0.058   6.021  0.00  0.00    -0.028 A 
ATOM      6  C   UNL     1       0.626  -0.869   5.029  0.00  0.00    +0.043 A 
ATOM      7  N   UNL     1      -0.658  -0.711   4.707  0.00  0.00    -0.284 N 
ATOM      8  C   UNL     1      -1.266  -1.438   3.786  0.00  0.00    +0.223 C 
ATOM      9  O   UNL     1      -2.442  -1.248   3.535  0.00  0.00    -0.275 OA
ATOM     10  C   UNL     1      -0.496  -2.508   3.045  0.00  0.00    +0.088 C 
ATOM     11  C   UNL     1       0.965  -2.692   3.406  0.00  0.00    -0.006 C 
ATOM     12  C   UNL     1       1.476  -1.878   4.374  0.00  0.00    -0.007 A 
ATOM     13  C   UNL     1       2.878  -1.985   4.780  0.00  0.00    +0.012 A 
ATOM     14  C   UNL     1       0.374   0.987   6.716  0.00  0.00    +0.046 C 
ATOM     15  H   UNL     1      -1.170  -0.030   5.171  0.00  0.00    +0.155 HD
ENDBRANCH   1  10
BRANCH   1  16
ATOM     16  C   UNL     1      -1.136  -4.210   4.758  0.00  0.00    +0.183 C 
ATOM     17  N   UNL     1       0.118  -4.926   5.059  0.00  0.00    -0.229 N 
ATOM     18  N   UNL     1      -0.264  -6.191   5.520  0.00  0.00    -0.064 NA
ATOM     19  N   UNL     1      -1.483  -6.338   5.543  0.00  0.00    -0.061 NA
ATOM     20  N   UNL     1      -2.175  -5.199   5.101  0.00  0.00    -0.211 N 
ATOM     21  H   UNL     1       1.022  -4.590   4.957  0.00  0.00    +0.172 HD
BRANCH  20  22
ATOM     22  C   UNL     1      -3.626  -5.026   5.002  0.00  0.00    +0.047 C 
ATOM     23  C   UNL     1      -4.071  -5.272   3.558  0.00  0.00    +0.033 C 
ATOM     24  C   UNL     1      -4.324  -6.025   5.927  0.00  0.00    +0.033 C 
ATOM     25  C   UNL     1      -4.000  -3.601   5.415  0.00  0.00    +0.033 C 
ENDBRANCH  20  22
ENDBRANCH   1  16
BRANCH   1  26
ATOM     26  N   UNL     1      -0.552  -4.890   2.478  0.00  0.00    +0.385 N 
ATOM     27  C   UNL     1      -1.367  -6.131   2.496  0.00  0.00    -0.078 C 
ATOM     28  C   UNL     1      -0.888  -6.887   1.231  0.00  0.00    -0.020 C 
ATOM     29  C   UNL     1      -0.667  -5.748   0.210  0.00  0.00    -0.020 C 
ATOM     30  C   UNL     1      -0.474  -4.478   1.060  0.00  0.00    -0.078 C 
ATOM     31  H   UNL     1       0.372  -5.074   2.839  0.00  0.00    -0.081 HD
ENDBRANCH   1  26
TORSDOF 4
