REMARK  Name = ZINC04179767
REMARK  8 active torsions:
REMARK  status: ('A' for Active; 'I' for Inactive)
REMARK    1  A    between atoms: C_1  and  C_2
REMARK    2  A    between atoms: C_6  and  O_8
REMARK    3  A    between atoms: O_8  and  C_9
REMARK    4  A    between atoms: C_9  and  C_10
REMARK    5  A    between atoms: N_12  and  N_13
REMARK    6  A    between atoms: C_14  and  C_15
REMARK    7  A    between atoms: C_17  and  N_27
REMARK    8  A    between atoms: C_20  and  N_21
REMARK                            x       y       z     vdW  Elec       q    Type
REMARK                         _______ _______ _______ _____ _____    ______ ____
ROOT
ATOM      1  N   UNL     1      -5.133  -2.848   0.011  0.00  0.00    -0.188 NA
ATOM      2  C   UNL     1      -5.288  -4.137   0.005  0.00  0.00    +0.140 C 
ENDROOT
BRANCH   2   3
ATOM      3  C   UNL     1      -6.642  -4.717   0.008  0.00  0.00    +0.018 A 
ATOM      4  C   UNL     1      -6.813  -6.103   0.001  0.00  0.00    +0.044 A 
ATOM      5  C   UNL     1      -8.084  -6.639   0.004  0.00  0.00    +0.127 A 
ATOM      6  C   UNL     1      -9.193  -5.810   0.014  0.00  0.00    +0.034 A 
ATOM      7  C   UNL     1      -9.039  -4.437   0.021  0.00  0.00    +0.026 A 
ATOM      8  C   UNL     1      -7.768  -3.880   0.024  0.00  0.00    +0.039 A 
BRANCH   8   9
ATOM      9  N   UNL     1      -7.611  -2.495   0.036  0.00  0.00    -0.329 N 
ATOM     10  C   UNL     1      -8.136  -1.917   1.280  0.00  0.00    +0.105 C 
ATOM     11  C   UNL     1      -7.817  -0.421   1.323  0.00  0.00    +0.019 C 
ATOM     12  C   UNL     1      -8.451   0.267   0.111  0.00  0.00    +0.003 C 
ATOM     13  C   UNL     1      -7.925  -0.386  -1.170  0.00  0.00    +0.019 C 
ATOM     14  C   UNL     1      -8.241  -1.883  -1.141  0.00  0.00    +0.105 C 
ENDBRANCH   8   9
BRANCH   5  15
ATOM     15  N   UNL     1      -8.263  -8.108  -0.003  0.00  0.00    +0.056 N 
ATOM     16  O   UNL     1      -7.290  -8.841  -0.011  0.00  0.00    -0.126 OA
ATOM     17  O   UNL     1      -9.384  -8.585  -0.000  0.00  0.00    -0.126 OA
ENDBRANCH   5  15
ENDBRANCH   2   3
BRANCH   1  20
ATOM     18  C   UNL     1      -3.685  -0.959   0.014  0.00  0.00    +0.270 C 
ATOM     19  O   UNL     1      -4.656  -0.232   0.023  0.00  0.00    -0.270 OA
ATOM     20  N   UNL     1      -3.845  -2.297   0.008  0.00  0.00    -0.204 N 
ATOM     21  H   UNL     1      -3.069  -2.879   0.001  0.00  0.00    +0.177 HD
BRANCH  18  22
ATOM     22  C   UNL     1      -2.299  -0.366   0.011  0.00  0.00    +0.326 C 
BRANCH  22  23
ATOM     23  O   UNL     1      -2.391   1.060   0.019  0.00  0.00    -0.483 OA
BRANCH  23  29
ATOM     24  C   UNL     1      -0.065   5.351   0.029  0.00  0.00    +0.044 C 
ATOM     25  C   UNL     1      -0.049   3.844   0.022  0.00  0.00    -0.047 A 
ATOM     26  C   UNL     1       1.156   3.166   0.007  0.00  0.00    +0.003 A 
ATOM     27  C   UNL     1       1.174   1.783   0.000  0.00  0.00    +0.004 A 
ATOM     28  C   UNL     1      -0.013   1.076   0.008  0.00  0.00    +0.045 A 
ATOM     29  C   UNL     1      -1.223   1.754   0.017  0.00  0.00    +0.121 A 
ATOM     30  C   UNL     1      -1.238   3.141   0.029  0.00  0.00    +0.049 A 
ENDBRANCH  23  29
ENDBRANCH  22  23
ENDBRANCH  18  22
ENDBRANCH   1  20
TORSDOF 7
