REMARK  Name = ZINC22968140
REMARK  8 active torsions:
REMARK  status: ('A' for Active; 'I' for Inactive)
REMARK    1  A    between atoms: C_6  and  N_7
REMARK    2  A    between atoms: C_8  and  C_10
REMARK    3  A    between atoms: C_10  and  N_11
REMARK    4  A    between atoms: C_17  and  C_19
REMARK    5  A    between atoms: C_19  and  S_20
REMARK    6  A    between atoms: S_20  and  C_21
REMARK    7  A    between atoms: C_24  and  C_27
REMARK    8  A    between atoms: N_25  and  N_26
REMARK                            x       y       z     vdW  Elec       q    Type
REMARK                         _______ _______ _______ _____ _____    ______ ____
ROOT
ATOM      1  N   UNL     1       1.394  -0.446  -0.371  0.00  0.00    +0.387 N 
ATOM      2  C   UNL     1       1.873  -0.072  -1.709  0.00  0.00    -0.059 C 
ATOM      3  C   UNL     1       3.365  -0.401  -1.824  0.00  0.00    +0.089 C 
ATOM      4  N   UNL     1       3.561  -1.813  -1.466  0.00  0.00    -0.304 N 
ATOM      5  C   UNL     1       2.988  -2.296  -0.200  0.00  0.00    +0.089 C 
ATOM      6  C   UNL     1       1.511  -1.893  -0.149  0.00  0.00    -0.059 C 
ATOM      7  C   UNL     1       4.248  -2.644  -2.276  0.00  0.00    +0.226 C 
ATOM      8  O   UNL     1       4.400  -3.806  -1.964  0.00  0.00    -0.275 OA
ATOM      9  H   UNL     1       2.035   0.059   0.367  0.00  0.00    -0.081 HD
ENDROOT
BRANCH   1  10
ATOM     10  C   UNL     1       0.013   0.009  -0.160  0.00  0.00    +0.019 C 
BRANCH  10  12
ATOM     11  N   UNL     1      -1.195   2.161   0.019  0.00  0.00    -0.287 N 
ATOM     12  C   UNL     1      -0.024   1.516  -0.154  0.00  0.00    +0.201 C 
ATOM     13  O   UNL     1       0.999   2.148  -0.310  0.00  0.00    -0.278 OA
ATOM     14  H   UNL     1      -2.134   1.591   0.072  0.00  0.00    +0.155 HD
BRANCH  11  20
ATOM     15  C   UNL     1      -0.159   4.220   0.743  0.00  0.00    +0.026 A 
ATOM     16  C   UNL     1      -0.179   5.597   0.848  0.00  0.00    +0.040 A 
ATOM     17  C   UNL     1      -1.256   6.315   0.357  0.00  0.00    +0.124 A 
ATOM     18  C   UNL     1      -2.313   5.654  -0.246  0.00  0.00    +0.040 A 
ATOM     19  C   UNL     1      -2.295   4.278  -0.359  0.00  0.00    +0.026 A 
ATOM     20  C   UNL     1      -1.215   3.556   0.133  0.00  0.00    +0.033 A 
ATOM     21  F   UNL     1      -1.276   7.661   0.466  0.00  0.00    -0.205 F 
ENDBRANCH  11  20
ENDBRANCH  10  12
ENDBRANCH   1  10
BRANCH   7  22
ATOM     22  C   UNL     1       4.826  -2.128  -3.568  0.00  0.00    +0.173 C 
BRANCH  22  23
ATOM     23  S   UNL     1       5.683  -3.472  -4.425  0.00  0.00    -0.075 S 
BRANCH  23  24
ATOM     24  C   UNL     1       6.244  -2.614  -5.857  0.00  0.00    +0.209 A 
ATOM     25  N   UNL     1       6.039  -1.348  -6.139  0.00  0.00    -0.121 NA
ATOM     26  N   UNL     1       6.591  -1.056  -7.263  0.00  0.00    -0.123 NA
ATOM     27  C   UNL     1       7.168  -2.110  -7.765  0.00  0.00    +0.255 A 
ATOM     28  N   UNL     1       6.968  -3.140  -6.888  0.00  0.00    -0.220 N 
BRANCH  27  29
ATOM     29  C   UNL     1       7.918  -2.181  -9.070  0.00  0.00    +0.454 C 
ATOM     30  F   UNL     1       8.205  -0.886  -9.514  0.00  0.00    -0.163 F 
ATOM     31  F   UNL     1       9.113  -2.885  -8.883  0.00  0.00    -0.163 F 
ATOM     32  F   UNL     1       7.134  -2.838 -10.023  0.00  0.00    -0.163 F 
ENDBRANCH  27  29
BRANCH  28  33
ATOM     33  N   UNL     1       7.403  -4.429  -7.016  0.00  0.00    -0.295 N 
ATOM     34  H   UNL     1       7.983  -4.728  -7.902  0.00  0.00    +0.163 HD
ATOM     35  H   UNL     1       7.174  -5.167  -6.234  0.00  0.00    +0.163 HD
ENDBRANCH  28  33
ENDBRANCH  23  24
ENDBRANCH  22  23
ENDBRANCH   7  22
TORSDOF 8
