REMARK  Name = ZINC39595516
REMARK  7 active torsions:
REMARK  status: ('A' for Active; 'I' for Inactive)
REMARK    1  A    between atoms: C_1  and  C_2
REMARK    2  A    between atoms: C_2  and  C_4
REMARK    3  A    between atoms: C_2  and  O_29
REMARK    4  A    between atoms: C_4  and  N_5
REMARK    5  A    between atoms: C_6  and  C_8
REMARK    6  A    between atoms: C_19  and  C_21
REMARK    7  A    between atoms: O_29  and  C_30
REMARK                            x       y       z     vdW  Elec       q    Type
REMARK                         _______ _______ _______ _____ _____    ______ ____
ROOT
ATOM      1  C   UNL     1       1.519  -4.256  -2.984  0.00  0.00    +0.100 C 
ATOM      2  C   UNL     1       0.124  -4.810  -3.350  0.00  0.00    +0.121 C 
ATOM      3  N   UNL     1       0.095  -4.805  -4.831  0.00  0.00    -0.296 N 
ATOM      4  C   UNL     1       1.458  -5.235  -5.228  0.00  0.00    +0.115 C 
ATOM      5  C   UNL     1       2.393  -4.540  -4.218  0.00  0.00    -0.004 C 
ATOM      6  C   UNL     1       3.548  -5.464  -3.846  0.00  0.00    -0.010 C 
ATOM      7  C   UNL     1       4.435  -5.685  -5.074  0.00  0.00    -0.082 C 
ATOM      8  N   UNL     1       4.948  -4.394  -5.549  0.00  0.00    +0.379 N 
ATOM      9  C   UNL     1       3.835  -3.546  -5.992  0.00  0.00    -0.082 C 
ATOM     10  C   UNL     1       2.922  -3.235  -4.802  0.00  0.00    -0.010 C 
ATOM     11  C   UNL     1      -0.936  -4.483  -5.637  0.00  0.00    +0.249 C 
ATOM     12  O   UNL     1      -0.802  -4.529  -6.844  0.00  0.00    -0.270 OA
ATOM     13  H   UNL     1       5.442  -3.934  -4.799  0.00  0.00    -0.086 HD
ATOM     14  H   UNL     1       5.580  -4.547  -6.320  0.00  0.00    -0.086 HD
ENDROOT
BRANCH  11  15
ATOM     15  C   UNL     1      -2.229  -4.074  -5.052  0.00  0.00    +0.073 A 
ATOM     16  C   UNL     1      -2.484  -2.727  -4.783  0.00  0.00    +0.054 A 
ATOM     17  C   UNL     1      -3.696  -2.352  -4.237  0.00  0.00    +0.021 A 
ATOM     18  C   UNL     1      -4.656  -3.307  -3.956  0.00  0.00    +0.003 A 
ATOM     19  C   UNL     1      -4.412  -4.643  -4.219  0.00  0.00    +0.021 A 
ATOM     20  C   UNL     1      -3.207  -5.032  -4.771  0.00  0.00    +0.054 A 
ATOM     21 CL   UNL     1      -2.905  -6.708  -5.107  0.00  0.00    -0.083 Cl
ATOM     22 CL   UNL     1      -1.279  -1.527  -5.134  0.00  0.00    -0.083 Cl
ENDBRANCH  11  15
BRANCH   1  24
ATOM     23  N   UNL     1       2.366  -2.178  -1.944  0.00  0.00    -0.312 N 
ATOM     24  C   UNL     1       1.444  -2.774  -2.725  0.00  0.00    +0.218 C 
ATOM     25  O   UNL     1       0.552  -2.116  -3.220  0.00  0.00    -0.275 OA
ATOM     26  H   UNL     1       3.079  -2.704  -1.548  0.00  0.00    +0.149 HD
BRANCH  23  27
ATOM     27  C   UNL     1       2.293  -0.737  -1.692  0.00  0.00    +0.148 C 
BRANCH  27  29
ATOM     28  C   UNL     1       3.303   1.160  -0.418  0.00  0.00    +0.053 C 
ATOM     29  C   UNL     1       3.450  -0.319  -0.782  0.00  0.00    +0.187 C 
BRANCH  29  30
ATOM     30  O   UNL     1       4.689  -0.521  -1.464  0.00  0.00    -0.488 OA
BRANCH  30  31
ATOM     31  C   UNL     1       5.796  -0.693  -0.694  0.00  0.00    +0.121 A 
ATOM     32  C   UNL     1       5.710  -0.567   0.684  0.00  0.00    +0.048 A 
ATOM     33  C   UNL     1       6.835  -0.743   1.466  0.00  0.00    +0.042 A 
ATOM     34  C   UNL     1       8.050  -1.044   0.873  0.00  0.00    +0.124 A 
ATOM     35  C   UNL     1       8.138  -1.171  -0.503  0.00  0.00    +0.042 A 
ATOM     36  C   UNL     1       7.012  -1.002  -1.286  0.00  0.00    +0.048 A 
ATOM     37  F   UNL     1       9.150  -1.216   1.638  0.00  0.00    -0.205 F 
ENDBRANCH  30  31
ENDBRANCH  29  30
ENDBRANCH  27  29
ENDBRANCH  23  27
ENDBRANCH   1  24
TORSDOF 6
