REMARK  Name = ZINC08927982
REMARK  12 active torsions:
REMARK  status: ('A' for Active; 'I' for Inactive)
REMARK    1  A    between atoms: C_1  and  C_2
REMARK    2  A    between atoms: C_2  and  C_3
REMARK    3  A    between atoms: C_6  and  O_9
REMARK    4  A    between atoms: O_9  and  C_10
REMARK    5  A    between atoms: C_10  and  C_11
REMARK    6  A    between atoms: C_14  and  C_16
REMARK    7  A    between atoms: N_18  and  CA_19
REMARK    8  A    between atoms: CA_26  and  C_35
REMARK    9  A    between atoms: C_27  and  C_30
REMARK   10  A    between atoms: C_30  and  O_31
REMARK   11  A    between atoms: O_31  and  C_32
REMARK   12  A    between atoms: C_32  and  C_34
REMARK                            x       y       z     vdW  Elec       q    Type
REMARK                         _______ _______ _______ _____ _____    ______ ____
ROOT
ATOM      1  C   UNL     1       0.083   1.150   0.672  0.00  0.00    +0.280 C 
ATOM      2  O   UNL     1       0.106  -0.066   0.619  0.00  0.00    -0.267 OA
ATOM      3  N   UNL     1       1.226   1.852   0.536  0.00  0.00    -0.295 N 
ATOM      4  H   UNL     1       1.207   2.821   0.579  0.00  0.00    +0.150 HD
ENDROOT
BRANCH   3   5
ATOM      5  CA  UNL     1       2.495   1.151   0.325  0.00  0.00    +0.191 C 
ATOM      6  C   UNL     1       3.560   2.007  -0.352  0.00  0.00    +0.169 C 
ATOM      7  N   UNL     1       4.404   1.697   0.845  0.00  0.00    -0.249 N 
ATOM      8  C   UNL     1       3.397   1.143   1.548  0.00  0.00    +0.244 C 
ATOM      9  O   UNL     1       3.263   0.781   2.697  0.00  0.00    -0.273 OA
ATOM     10  CA  UNL     1       5.798   1.839   0.944  0.00  0.00    +0.130 C 
ATOM     11  C   UNL     1       6.542   1.897  -0.150  0.00  0.00    +0.006 C 
ATOM     12  C   UNL     1       6.098   1.883  -1.577  0.00  0.00    +0.107 C 
ATOM     13  S   UNL     1       4.413   1.221  -1.761  0.00  0.00    -0.131 S 
BRANCH  10  14
ATOM     14  C   UNL     1       6.435   1.924   2.271  0.00  0.00    +0.401 C 
ATOM     15  O   UNL     1       5.749   1.986   3.272  0.00  0.00    -0.239 OA
ATOM     16  OXT UNL     1       7.779   1.932   2.373  0.00  0.00    -0.239 OA
ENDBRANCH  10  14
BRANCH  11  17
ATOM     17  C   UNL     1       8.029   1.989   0.073  0.00  0.00    +0.266 C 
BRANCH  17  18
ATOM     18  O   UNL     1       8.702   2.135  -1.205  0.00  0.00    -0.460 OA
BRANCH  18  19
ATOM     19  C   UNL     1      10.030   2.334  -1.176  0.00  0.00    +0.304 C 
ATOM     20  O   UNL     1      10.623   2.295  -0.124  0.00  0.00    -0.251 OA
ATOM     21  C   UNL     1      10.779   2.607  -2.455  0.00  0.00    +0.136 C 
ENDBRANCH  18  19
ENDBRANCH  17  18
ENDBRANCH  11  17
ENDBRANCH   3   5
BRANCH   1  25
ATOM     22  C   UNL     1      -2.649   3.466   1.146  0.00  0.00    +0.143 A 
ATOM     23  C   UNL     1      -3.340   2.305   1.195  0.00  0.00    +0.049 A 
ATOM     24  C   UNL     1      -2.414   1.266   1.018  0.00  0.00    +0.055 A 
ATOM     25  C   UNL     1      -1.188   1.851   0.877  0.00  0.00    +0.190 A 
ATOM     26  O   UNL     1      -1.353   3.188   0.955  0.00  0.00    -0.452 OA
BRANCH  22  27
ATOM     27  C   UNL     1      -3.240   4.845   1.284  0.00  0.00    +0.303 C 
BRANCH  27  28
ATOM     28  O   UNL     1      -3.241   5.228   2.661  0.00  0.00    -0.484 OA
BRANCH  28  32
ATOM     29  C   UNL     1      -4.770   8.950   3.568  0.00  0.00    -0.047 A 
ATOM     30  C   UNL     1      -4.290   8.137   4.578  0.00  0.00    +0.007 A 
ATOM     31  C   UNL     1      -3.777   6.890   4.276  0.00  0.00    +0.046 A 
ATOM     32  C   UNL     1      -3.745   6.454   2.960  0.00  0.00    +0.121 A 
ATOM     33  C   UNL     1      -4.223   7.275   1.948  0.00  0.00    +0.046 A 
ATOM     34  C   UNL     1      -4.739   8.519   2.255  0.00  0.00    +0.007 A 
BRANCH  29  36
ATOM     35  C   UNL     1      -4.206  11.348   3.853  0.00  0.00    +0.009 C 
ATOM     36  C   UNL     1      -5.329  10.310   3.900  0.00  0.00    +0.032 C 
ENDBRANCH  29  36
ENDBRANCH  28  32
ENDBRANCH  27  28
ENDBRANCH  22  27
ENDBRANCH   1  25
TORSDOF 10
