REMARK  Name = ZINC09324925
REMARK  12 active torsions:
REMARK  status: ('A' for Active; 'I' for Inactive)
REMARK    1  A    between atoms: C_1  and  C_2
REMARK    2  A    between atoms: C_2  and  N_58
REMARK    3  A    between atoms: C_3  and  C_4
REMARK    4  A    between atoms: C_3  and  N_58
REMARK    5  A    between atoms: C_5  and  C_6
REMARK    6  A    between atoms: C_5  and  N_58
REMARK    7  A    between atoms: C_6  and  N_7
REMARK    8  A    between atoms: C_10  and  S_14
REMARK    9  A    between atoms: S_14  and  C_15
REMARK   10  A    between atoms: C_15  and  C_16
REMARK   11  A    between atoms: N_18  and  C_19
REMARK   12  A    between atoms: C_24  and  N_25
REMARK                            x       y       z     vdW  Elec       q    Type
REMARK                         _______ _______ _______ _____ _____    ______ ____
ROOT
ATOM      1  N   UNL     1       0.940  -4.909  -0.145  0.00  0.00    -0.298 N 
ATOM      2  C   UNL     1       2.234  -4.472  -0.107  0.00  0.00    +0.029 A 
ATOM      3  C   UNL     1       2.479  -3.143  -0.080  0.00  0.00    +0.004 A 
ATOM      4  C   UNL     1       1.389  -2.245  -0.080  0.00  0.00    +0.108 A 
ATOM      5  N   UNL     1       0.149  -2.717  -0.117  0.00  0.00    -0.186 NA
ATOM      6  C   UNL     1      -0.077  -4.029  -0.149  0.00  0.00    +0.350 A 
ATOM      7  O   UNL     1      -1.225  -4.439  -0.184  0.00  0.00    -0.244 OA
ATOM      8  C   UNL     1       3.969  -2.886  -0.037  0.00  0.00    +0.040 C 
ATOM      9  C   UNL     1       4.598  -4.232   0.383  0.00  0.00    +0.011 C 
ATOM     10  C   UNL     1       3.534  -5.245  -0.095  0.00  0.00    +0.054 C 
ENDROOT
BRANCH   1  11
ATOM     11  C   UNL     1       0.659  -6.346  -0.180  0.00  0.00    +0.108 C 
BRANCH  11  12
ATOM     12  C   UNL     1       0.593  -6.817  -1.634  0.00  0.00    -0.057 C 
BRANCH  12  13
ATOM     13  N   UNL     1       0.330  -8.271  -1.653  0.00  0.00    +0.380 N 
ATOM     14  H   UNL     1       1.011  -8.741  -1.045  0.00  0.00    -0.082 HD
BRANCH  13  16
ATOM     15  C   UNL     1      -2.082  -7.918  -2.070  0.00  0.00    -0.017 C 
ATOM     16  C   UNL     1      -1.033  -8.545  -1.149  0.00  0.00    -0.082 C 
ENDBRANCH  13  16
BRANCH  13  17
ATOM     17  C   UNL     1       0.473  -8.793  -3.028  0.00  0.00    -0.082 C 
ATOM     18  C   UNL     1       0.299 -10.313  -3.002  0.00  0.00    -0.017 C 
ENDBRANCH  13  17
ENDBRANCH  12  13
ENDBRANCH  11  12
ENDBRANCH   1  11
BRANCH   4  19
ATOM     19  S   UNL     1       1.673  -0.507  -0.037  0.00  0.00    -0.096 S 
BRANCH  19  20
ATOM     20  C   UNL     1      -0.035   0.092  -0.063  0.00  0.00    +0.171 C 
BRANCH  20  21
ATOM     21  C   UNL     1      -0.039   1.598  -0.031  0.00  0.00    +0.227 C 
ATOM     22  O   UNL     1       1.009   2.207   0.005  0.00  0.00    -0.275 OA
ATOM     23  N   UNL     1      -1.208   2.269  -0.049  0.00  0.00    -0.283 N 
ATOM     24  H   UNL     1      -2.043   1.786  -0.145  0.00  0.00    +0.155 HD
BRANCH  23  25
ATOM     25  C   UNL     1      -1.216   3.663   0.071  0.00  0.00    +0.064 A 
ATOM     26  C   UNL     1      -0.196   4.417  -0.495  0.00  0.00    +0.025 A 
ATOM     27  C   UNL     1      -0.210   5.793  -0.380  0.00  0.00    +0.002 A 
ATOM     28  C   UNL     1      -1.233   6.420   0.308  0.00  0.00    +0.002 A 
ATOM     29  C   UNL     1      -2.247   5.672   0.878  0.00  0.00    +0.034 A 
ATOM     30  C   UNL     1      -2.242   4.296   0.762  0.00  0.00    +0.147 A 
BRANCH  30  31
ATOM     31  N   UNL     1      -3.327   3.496   1.372  0.00  0.00    +0.058 N 
ATOM     32  O   UNL     1      -4.276   4.055   1.892  0.00  0.00    -0.126 OA
ATOM     33  O   UNL     1      -3.271   2.280   1.355  0.00  0.00    -0.126 OA
ENDBRANCH  30  31
ENDBRANCH  23  25
ENDBRANCH  20  21
ENDBRANCH  19  20
ENDBRANCH   4  19
TORSDOF 10
