REMARK  Name = ZINC13748197
REMARK  13 active torsions:
REMARK  status: ('A' for Active; 'I' for Inactive)
REMARK    1  A    between atoms: C_1  and  C_2
REMARK    2  A    between atoms: C_2  and  C_3
REMARK    3  A    between atoms: C_3  and  C_4
REMARK    4  A    between atoms: C_4  and  O_5
REMARK    5  A    between atoms: O_5  and  C_6
REMARK    6  A    between atoms: C_9  and  N_12
REMARK    7  A    between atoms: C_13  and  C_15
REMARK    8  A    between atoms: C_15  and  C_17
REMARK    9  A    between atoms: C_15  and  N_18
REMARK   10  A    between atoms: C_19  and  C_21
REMARK   11  A    between atoms: N_24  and  S_27
REMARK   12  A    between atoms: S_27  and  C_30
REMARK   13  A    between atoms: C_33  and  C_36
REMARK                            x       y       z     vdW  Elec       q    Type
REMARK                         _______ _______ _______ _____ _____    ______ ____
ROOT
ATOM      1  N   UNL     1       0.227  -6.460  -5.231  0.00  0.00    -0.304 N 
ATOM      2  C   UNL     1       1.244  -6.074  -4.436  0.00  0.00    +0.217 C 
ATOM      3  O   UNL     1       2.171  -6.827  -4.227  0.00  0.00    -0.275 OA
ATOM      4  H   UNL     1      -0.515  -5.858  -5.399  0.00  0.00    +0.149 HD
ENDROOT
BRANCH   2   5
ATOM      5  C   UNL     1       1.228  -4.705  -3.805  0.00  0.00    +0.077 C 
ATOM      6  C   UNL     1       2.488  -4.520  -2.956  0.00  0.00    +0.030 C 
ATOM      7  C   UNL     1       2.485  -3.115  -2.345  0.00  0.00    +0.110 C 
ATOM      8  N   UNL     1       1.228  -2.922  -1.609  0.00  0.00    -0.177 NA
ATOM      9  C   UNL     1      -0.042  -3.168  -2.304  0.00  0.00    +0.110 C 
ATOM     10  C   UNL     1      -0.012  -4.566  -2.918  0.00  0.00    +0.030 C 
BRANCH   8  11
ATOM     11  S   UNL     1       1.244  -2.444  -0.024  0.00  0.00    +0.061 S 
ATOM     12  O   UNL     1       2.505  -2.831   0.505  0.00  0.00    -0.153 OA
ATOM     13  O   UNL     1       0.015  -2.876   0.543  0.00  0.00    -0.153 OA
BRANCH  11  14
ATOM     14  C   UNL     1       1.212  -0.682  -0.011  0.00  0.00    +0.105 A 
ATOM     15  C   UNL     1       0.002  -0.013   0.012  0.00  0.00    +0.029 A 
ATOM     16  C   UNL     1      -0.023   1.369   0.022  0.00  0.00    +0.005 A 
ATOM     17  C   UNL     1       1.161   2.082   0.009  0.00  0.00    -0.050 A 
ATOM     18  C   UNL     1       2.370   1.413  -0.014  0.00  0.00    +0.005 A 
ATOM     19  C   UNL     1       2.396   0.031  -0.024  0.00  0.00    +0.029 A 
ATOM     20  C   UNL     1       1.133   3.589   0.020  0.00  0.00    +0.044 C 
ENDBRANCH  11  14
ENDBRANCH   8  11
ENDBRANCH   2   5
BRANCH   1  21
ATOM     21  C   UNL     1       0.242  -7.791  -5.845  0.00  0.00    +0.156 C 
ATOM     22  C   UNL     1      -0.333  -8.812  -4.861  0.00  0.00    +0.038 C 
BRANCH  21  24
ATOM     23  N   UNL     1      -0.725  -8.898  -7.834  0.00  0.00    -0.284 N 
ATOM     24  C   UNL     1      -0.593  -7.776  -7.099  0.00  0.00    +0.237 C 
ATOM     25  O   UNL     1      -1.147  -6.754  -7.446  0.00  0.00    -0.273 OA
ATOM     26  H   UNL     1      -0.229  -9.696  -7.594  0.00  0.00    +0.155 HD
BRANCH  23  30
ATOM     27  C   UNL     1      -3.264  -8.936 -11.142  0.00  0.00    +0.121 A 
ATOM     28  C   UNL     1      -2.554  -7.787 -10.826  0.00  0.00    +0.047 A 
ATOM     29  C   UNL     1      -1.713  -7.773  -9.731  0.00  0.00    +0.027 A 
ATOM     30  C   UNL     1      -1.578  -8.910  -8.945  0.00  0.00    +0.034 A 
ATOM     31  C   UNL     1      -2.285 -10.062  -9.265  0.00  0.00    +0.027 A 
ATOM     32  C   UNL     1      -3.130 -10.072 -10.357  0.00  0.00    +0.047 A 
BRANCH  27  33
ATOM     33  O   UNL     1      -4.092  -8.948 -12.220  0.00  0.00    -0.492 OA
BRANCH  33  34
ATOM     34  C   UNL     1      -4.792 -10.166 -12.486  0.00  0.00    +0.229 C 
BRANCH  34  35
ATOM     35  C   UNL     1      -5.668  -9.989 -13.728  0.00  0.00    +0.041 C 
BRANCH  35  37
ATOM     36  C   UNL     1      -7.293 -11.115 -15.256  0.00  0.00    +0.004 C 
ATOM     37  C   UNL     1      -6.417 -11.292 -14.014  0.00  0.00    -0.000 C 
ENDBRANCH  35  37
ENDBRANCH  34  35
ENDBRANCH  33  34
ENDBRANCH  27  33
ENDBRANCH  23  30
ENDBRANCH  21  24
ENDBRANCH   1  21
TORSDOF 10
