REMARK  Name = ZINC13301442
REMARK  6 active torsions:
REMARK  status: ('A' for Active; 'I' for Inactive)
REMARK    1  A    between atoms: C_4  and  C_7
REMARK    2  A    between atoms: C_8  and  C_9
REMARK    3  A    between atoms: C_10  and  C_11
REMARK    4  A    between atoms: C_10  and  N_19
REMARK    5  A    between atoms: C_20  and  C_22
REMARK    6  A    between atoms: C_25  and  N_28
REMARK                            x       y       z     vdW  Elec       q    Type
REMARK                         _______ _______ _______ _____ _____    ______ ____
ROOT
ATOM      1  C   UNL     1       5.043  -2.618   0.130  0.00  0.00    +0.028 C 
ATOM      2  C   UNL     1       4.934  -3.974   0.164  0.00  0.00    +0.096 C 
ENDROOT
BRANCH   2   3
ATOM      3  C   UNL     1       3.610  -4.603   0.215  0.00  0.00    +0.261 C 
ATOM      4  O   UNL     1       3.062  -4.952  -0.814  0.00  0.00    -0.269 OA
ATOM      5  N   UNL     1       3.000  -4.795   1.402  0.00  0.00    -0.296 N 
ATOM      6  C   UNL     1       3.596  -4.278   2.642  0.00  0.00    +0.108 C 
ATOM      7  C   UNL     1       2.553  -3.424   3.370  0.00  0.00    +0.019 C 
ATOM      8  C   UNL     1       1.281  -4.248   3.580  0.00  0.00    +0.003 C 
ATOM      9  C   UNL     1       0.706  -4.658   2.222  0.00  0.00    +0.019 C 
ATOM     10  C   UNL     1       1.725  -5.520   1.480  0.00  0.00    +0.108 C 
ENDBRANCH   2   3
BRANCH   2  11
ATOM     11  N   UNL     1       6.084  -4.767   0.150  0.00  0.00    -0.277 N 
ATOM     12  C   UNL     1       5.977  -6.109   0.077  0.00  0.00    +0.248 C 
ATOM     13  O   UNL     1       4.886  -6.624  -0.078  0.00  0.00    -0.270 OA
ATOM     14  H   UNL     1       6.960  -4.353   0.193  0.00  0.00    +0.155 HD
BRANCH  12  15
ATOM     15  C   UNL     1       7.184  -6.954   0.186  0.00  0.00    +0.037 A 
ATOM     16  C   UNL     1       8.437  -6.367   0.370  0.00  0.00    +0.015 A 
ATOM     17  C   UNL     1       9.560  -7.161   0.472  0.00  0.00    +0.033 A 
ATOM     18  C   UNL     1       9.447  -8.538   0.391  0.00  0.00    +0.126 A 
ATOM     19  C   UNL     1       8.208  -9.127   0.208  0.00  0.00    +0.033 A 
ATOM     20  C   UNL     1       7.077  -8.344   0.111  0.00  0.00    +0.015 A 
BRANCH  18  21
ATOM     21  N   UNL     1      10.656  -9.384   0.499  0.00  0.00    +0.056 N 
ATOM     22  O   UNL     1      11.740  -8.873   0.658  0.00  0.00    -0.126 OA
ATOM     23  O   UNL     1      10.560 -10.587   0.429  0.00  0.00    -0.126 OA
ENDBRANCH  18  21
ENDBRANCH  12  15
ENDBRANCH   2  11
BRANCH   1  25
ATOM     24  C   UNL     1       3.995  -0.479  -0.103  0.00  0.00    +0.008 C 
ATOM     25  C   UNL     1       3.883  -1.820   0.033  0.00  0.00    +0.003 C 
BRANCH  24  29
ATOM     26  C   UNL     1       0.520   1.952  -0.076  0.00  0.00    +0.000 A 
ATOM     27  C   UNL     1       1.772   2.541  -0.116  0.00  0.00    +0.001 A 
ATOM     28  C   UNL     1       2.906   1.758  -0.125  0.00  0.00    +0.008 A 
ATOM     29  C   UNL     1       2.790   0.364  -0.093  0.00  0.00    -0.025 A 
ATOM     30  C   UNL     1       1.521  -0.224  -0.052  0.00  0.00    +0.008 A 
ATOM     31  C   UNL     1       0.396   0.574  -0.044  0.00  0.00    +0.001 A 
ENDBRANCH  24  29
ENDBRANCH   1  25
TORSDOF 6
