REMARK  Name = ZINC09869826
REMARK  9 active torsions:
REMARK  status: ('A' for Active; 'I' for Inactive)
REMARK    1  A    between atoms: C_1  and  C_2
REMARK    2  A    between atoms: C_7  and  N_8
REMARK    3  A    between atoms: C_9  and  C_11
REMARK    4  A    between atoms: C_11  and  O_12
REMARK    5  A    between atoms: O_12  and  C_13
REMARK    6  A    between atoms: C_13  and  C_15
REMARK    7  A    between atoms: C_18  and  N_24
REMARK    8  A    between atoms: C_19  and  N_21
REMARK    9  A    between atoms: N_24  and  C_25
REMARK                            x       y       z     vdW  Elec       q    Type
REMARK                         _______ _______ _______ _____ _____    ______ ____
ROOT
ATOM      1  C   UNL     1      -4.634   3.852   0.085  0.00  0.00    +0.340 C 
ATOM      2  O   UNL     1      -5.644   3.185   0.197  0.00  0.00    -0.245 OA
ENDROOT
BRANCH   1   3
ATOM      3  C   UNL     1      -3.315   3.196   0.076  0.00  0.00    +0.061 A 
ATOM      4  C   UNL     1      -2.152   3.962  -0.052  0.00  0.00    +0.017 A 
ATOM      5  C   UNL     1      -0.929   3.353  -0.060  0.00  0.00    +0.026 A 
ATOM      6  C   UNL     1      -0.835   1.970   0.060  0.00  0.00    +0.058 A 
ATOM      7  C   UNL     1      -1.987   1.198   0.183  0.00  0.00    +0.148 A 
ATOM      8  C   UNL     1      -3.223   1.806   0.197  0.00  0.00    +0.049 A 
BRANCH   7   9
ATOM      9  N   UNL     1      -1.884  -0.274   0.304  0.00  0.00    +0.058 N 
ATOM     10  O   UNL     1      -2.893  -0.956   0.311  0.00  0.00    -0.126 OA
ATOM     11  O   UNL     1      -0.791  -0.802   0.397  0.00  0.00    -0.126 OA
ENDBRANCH   7   9
BRANCH   6  12
ATOM     12  N   UNL     1       0.413   1.356   0.051  0.00  0.00    -0.339 N 
ATOM     13  H   UNL     1       0.477   0.388   0.048  0.00  0.00    +0.146 HD
BRANCH  12  14
ATOM     14  C   UNL     1       1.630   2.171   0.039  0.00  0.00    +0.071 C 
ATOM     15  C   UNL     1       2.795   1.689  -0.828  0.00  0.00    +0.024 C 
ATOM     16  C   UNL     1       2.880   1.583   0.696  0.00  0.00    +0.024 C 
ENDBRANCH  12  14
ENDBRANCH   6  12
ENDBRANCH   1   3
BRANCH   1  17
ATOM     17  O   UNL     1      -4.721   5.192  -0.030  0.00  0.00    -0.452 OA
BRANCH  17  18
ATOM     18  C   UNL     1      -6.053   5.770  -0.014  0.00  0.00    +0.328 C 
BRANCH  18  20
ATOM     19  N   UNL     1      -7.071   8.020  -0.163  0.00  0.00    -0.282 N 
ATOM     20  C   UNL     1      -5.953   7.267  -0.153  0.00  0.00    +0.255 C 
ATOM     21  O   UNL     1      -4.865   7.795  -0.256  0.00  0.00    -0.272 OA
ATOM     22  H   UNL     1      -7.942   7.593  -0.166  0.00  0.00    +0.155 HD
BRANCH  19  29
ATOM     23  C   UNL     1      -9.240   9.510  -1.244  0.00  0.00    +0.046 C 
ATOM     24  C   UNL     1      -8.011  10.182  -0.688  0.00  0.00    -0.028 A 
ATOM     25  C   UNL     1      -7.915  11.560  -0.689  0.00  0.00    +0.020 A 
ATOM     26  C   UNL     1      -6.785  12.177  -0.184  0.00  0.00    +0.018 A 
ATOM     27  C   UNL     1      -5.748  11.416   0.328  0.00  0.00    +0.017 A 
ATOM     28  C   UNL     1      -5.841  10.038   0.336  0.00  0.00    +0.024 A 
ATOM     29  C   UNL     1      -6.975   9.416  -0.170  0.00  0.00    +0.036 A 
ATOM     30 BR   UNL     1      -6.654  14.063  -0.194  0.00  0.00    -0.050 Br
ENDBRANCH  19  29
ENDBRANCH  18  20
ENDBRANCH  17  18
ENDBRANCH   1  17
TORSDOF 8
