REMARK  Name = ZINC20083900
REMARK  14 active torsions:
REMARK  status: ('A' for Active; 'I' for Inactive)
REMARK    1  A    between atoms: C_1  and  C_2
REMARK    2  A    between atoms: C_2  and  C_3
REMARK    3  A    between atoms: C_3  and  C_4
REMARK    4  A    between atoms: C_3  and  C_5
REMARK    5  A    between atoms: C_3  and  N_6
REMARK    6  A    between atoms: C_7  and  C_11
REMARK    7  A    between atoms: C_11  and  C_13
REMARK    8  A    between atoms: C_11  and  N_27
REMARK    9  A    between atoms: C_17  and  O_25
REMARK   10  A    between atoms: O_25  and  C_26
REMARK   11  A    between atoms: N_27  and  C_28
REMARK   12  A    between atoms: N_27  and  C_34
REMARK   13  A    between atoms: C_28  and  C_29
REMARK   14  A    between atoms: C_34  and  C_35
REMARK                            x       y       z     vdW  Elec       q    Type
REMARK                         _______ _______ _______ _____ _____    ______ ____
ROOT
ATOM      1  C   UNL     1      -1.206   0.357   2.089  0.00  0.00    +0.163 C 
ENDROOT
BRANCH   1   2
ATOM      2  C   UNL     1      -0.692  -0.893   2.756  0.00  0.00    +0.042 A 
ATOM      3  C   UNL     1      -1.083  -2.110   2.301  0.00  0.00    +0.021 A 
ATOM      4  C   UNL     1      -0.562  -3.306   2.967  0.00  0.00    +0.002 A 
ATOM      5  C   UNL     1      -0.926  -4.587   2.538  0.00  0.00    +0.055 A 
ATOM      6  C   UNL     1      -0.420  -5.692   3.191  0.00  0.00    +0.121 A 
ATOM      7  C   UNL     1       0.448  -5.537   4.269  0.00  0.00    +0.047 A 
ATOM      8  C   UNL     1       0.813  -4.281   4.700  0.00  0.00    +0.030 A 
ATOM      9  C   UNL     1       0.315  -3.153   4.057  0.00  0.00    +0.049 A 
ATOM     10  N   UNL     1       0.669  -1.886   4.474  0.00  0.00    -0.322 N 
ATOM     11  H   UNL     1       1.354  -1.758   5.325  0.00  0.00    +0.169 HD
ATOM     12  C   UNL     1       0.189  -0.794   3.853  0.00  0.00    +0.254 A 
ATOM     13  O   UNL     1       0.524   0.309   4.249  0.00  0.00    -0.268 OA
BRANCH   6  14
ATOM     14  O   UNL     1      -0.770  -6.940   2.779  0.00  0.00    -0.495 OA
ATOM     15  C   UNL     1      -0.211  -8.041   3.497  0.00  0.00    +0.277 C 
ENDBRANCH   6  14
ENDBRANCH   1   2
BRANCH   1  17
ATOM     16  N   UNL     1      -3.350   1.445   2.939  0.00  0.00    -0.222 N 
ATOM     17  C   UNL     1      -2.046   1.138   3.067  0.00  0.00    +0.174 A 
ATOM     18  N   UNL     1      -1.650   1.645   4.209  0.00  0.00    -0.111 NA
ATOM     19  N   UNL     1      -2.657   2.240   4.750  0.00  0.00    -0.023 NA
ATOM     20  N   UNL     1      -3.687   2.118   3.987  0.00  0.00    -0.043 NA
BRANCH  16  21
ATOM     21  C   UNL     1      -4.224   1.083   1.820  0.00  0.00    +0.062 C 
ATOM     22  C   UNL     1      -3.744   1.788   0.550  0.00  0.00    +0.036 C 
ATOM     23  C   UNL     1      -4.182  -0.432   1.609  0.00  0.00    +0.036 C 
BRANCH  21  25
ATOM     24  C   UNL     1      -6.571   1.136   0.964  0.00  0.00    +0.006 C 
ATOM     25  C   UNL     1      -5.658   1.514   2.132  0.00  0.00    +0.026 C 
ENDBRANCH  21  25
ENDBRANCH  16  21
ENDBRANCH   1  17
BRANCH   1  26
ATOM     26  N   UNL     1      -0.070   1.181   1.653  0.00  0.00    -0.282 NA
BRANCH  26  27
ATOM     27  C   UNL     1      -0.507   2.542   1.314  0.00  0.00    +0.128 C 
BRANCH  27  28
ATOM     28  C   UNL     1      -0.446   3.410   2.544  0.00  0.00    +0.004 A 
ATOM     29  C   UNL     1       0.586   3.604   3.402  0.00  0.00    +0.012 A 
ATOM     30  C   UNL     1       0.415   4.459   4.474  0.00  0.00    +0.008 A 
ATOM     31  C   UNL     1      -0.783   5.071   4.642  0.00  0.00    +0.045 A 
ATOM     32  S   UNL     1      -1.715   4.444   3.254  0.00  0.00    -0.100 S 
ENDBRANCH  27  28
ENDBRANCH  26  27
BRANCH  26  33
ATOM     33  C   UNL     1       0.630   0.556   0.523  0.00  0.00    +0.117 C 
BRANCH  33  34
ATOM     34  C   UNL     1       1.871  -0.178   1.034  0.00  0.00    +0.132 C 
ATOM     35  C   UNL     1       2.731  -0.671  -0.150  0.00  0.00    +0.035 C 
ATOM     36  C   UNL     1       3.268  -2.042   0.320  0.00  0.00    +0.031 C 
ATOM     37  C   UNL     1       2.669  -2.214   1.733  0.00  0.00    +0.160 C 
ATOM     38  O   UNL     1       1.490  -1.380   1.739  0.00  0.00    -0.375 OA
ENDBRANCH  33  34
ENDBRANCH  26  33
ENDBRANCH   1  26
TORSDOF 10
