REMARK  Name = ZINC16060105
REMARK  12 active torsions:
REMARK  status: ('A' for Active; 'I' for Inactive)
REMARK    1  A    between atoms: C_1  and  N_63
REMARK    2  A    between atoms: C_2  and  N_63
REMARK    3  A    between atoms: C_3  and  C_5
REMARK    4  A    between atoms: C_3  and  C_26
REMARK    5  A    between atoms: C_3  and  N_63
REMARK    6  A    between atoms: C_5  and  N_6
REMARK    7  A    between atoms: C_7  and  C_9
REMARK    8  A    between atoms: N_12  and  S_15
REMARK    9  A    between atoms: S_15  and  C_18
REMARK   10  A    between atoms: C_21  and  C_24
REMARK   11  A    between atoms: C_29  and  O_32
REMARK   12  A    between atoms: O_32  and  C_33
REMARK                            x       y       z     vdW  Elec       q    Type
REMARK                         _______ _______ _______ _____ _____    ______ ____
ROOT
ATOM      1  N   UNL     1      -4.940   0.244  -0.972  0.00  0.00    -0.316 N 
ATOM      2  C   UNL     1      -5.912   0.112  -1.896  0.00  0.00    +0.216 C 
ATOM      3  O   UNL     1      -5.735   0.515  -3.026  0.00  0.00    -0.276 OA
ATOM      4  H   UNL     1      -5.082  -0.079  -0.069  0.00  0.00    +0.149 HD
ENDROOT
BRANCH   2   5
ATOM      5  C   UNL     1      -7.221  -0.538  -1.524  0.00  0.00    +0.077 C 
ATOM      6  C   UNL     1      -6.963  -1.969  -1.049  0.00  0.00    +0.030 C 
ATOM      7  C   UNL     1      -8.290  -2.614  -0.640  0.00  0.00    +0.110 C 
ATOM      8  N   UNL     1      -9.232  -2.512  -1.763  0.00  0.00    -0.177 NA
ATOM      9  C   UNL     1      -9.484  -1.191  -2.356  0.00  0.00    +0.110 C 
ATOM     10  C   UNL     1      -8.143  -0.562  -2.746  0.00  0.00    +0.030 C 
BRANCH   8  11
ATOM     11  S   UNL     1      -9.996  -3.859  -2.350  0.00  0.00    +0.061 S 
ATOM     12  O   UNL     1     -10.009  -4.810  -1.294  0.00  0.00    -0.153 OA
ATOM     13  O   UNL     1     -11.185  -3.408  -2.984  0.00  0.00    -0.153 OA
BRANCH  11  14
ATOM     14  C   UNL     1      -8.971  -4.528  -3.618  0.00  0.00    +0.106 A 
ATOM     15  C   UNL     1      -9.141  -4.118  -4.928  0.00  0.00    +0.030 A 
ATOM     16  C   UNL     1      -8.339  -4.634  -5.925  0.00  0.00    +0.021 A 
ATOM     17  C   UNL     1      -7.362  -5.580  -5.611  0.00  0.00    +0.052 A 
ATOM     18  C   UNL     1      -7.199  -5.993  -4.287  0.00  0.00    +0.021 A 
ATOM     19  C   UNL     1      -8.005  -5.465  -3.299  0.00  0.00    +0.030 A 
BRANCH  17  20
ATOM     20  C   UNL     1      -6.529  -6.124  -6.641  0.00  0.00    +0.099 C 
ATOM     21  N   UNL     1      -5.869  -6.555  -7.458  0.00  0.00    -0.191 NA
ENDBRANCH  17  20
ENDBRANCH  11  14
ENDBRANCH   8  11
ENDBRANCH   2   5
BRANCH   1  22
ATOM     22  C   UNL     1      -3.668   0.875  -1.333  0.00  0.00    +0.093 C 
BRANCH  22  23
ATOM     23  C   UNL     1      -2.746   0.899  -0.112  0.00  0.00    -0.021 C 
BRANCH  23  24
ATOM     24  C   UNL     1      -1.487   1.657  -0.449  0.00  0.00    -0.059 A 
ATOM     25  C   UNL     1      -0.252   1.107  -0.157  0.00  0.00    +0.005 A 
ATOM     26  C   UNL     1       0.903   1.796  -0.469  0.00  0.00    +0.046 A 
ATOM     27  C   UNL     1       0.824   3.043  -1.072  0.00  0.00    +0.120 A 
ATOM     28  C   UNL     1      -0.416   3.595  -1.358  0.00  0.00    +0.046 A 
ATOM     29  C   UNL     1      -1.569   2.902  -1.044  0.00  0.00    +0.005 A 
BRANCH  27  30
ATOM     30  O   UNL     1       1.959   3.724  -1.381  0.00  0.00    -0.495 OA
ATOM     31  C   UNL     1       1.802   5.002  -1.999  0.00  0.00    +0.277 C 
ENDBRANCH  27  30
ENDBRANCH  23  24
BRANCH  23  34
ATOM     32  C   UNL     1      -2.647   1.453   2.243  0.00  0.00    -0.096 C 
ATOM     33  C   UNL     1      -3.722   2.965   0.688  0.00  0.00    -0.096 C 
ATOM     34  N   UNL     1      -3.456   1.548   1.010  0.00  0.00    +0.382 N 
ATOM     35  H   UNL     1      -4.351   1.066   1.161  0.00  0.00    -0.082 HD
ENDBRANCH  23  34
ENDBRANCH  22  23
ENDBRANCH   1  22
TORSDOF 9
