REMARK  Name = ZINC15709283
REMARK  9 active torsions:
REMARK  status: ('A' for Active; 'I' for Inactive)
REMARK    1  A    between atoms: C_1  and  C_2
REMARK    2  A    between atoms: C_5  and  S_8
REMARK    3  A    between atoms: S_8  and  N_11
REMARK    4  A    between atoms: N_11  and  C_12
REMARK    5  A    between atoms: C_22  and  N_24
REMARK    6  A    between atoms: C_29  and  C_31
REMARK    7  A    between atoms: C_34  and  N_37
REMARK    8  A    between atoms: N_37  and  C_38
REMARK    9  A    between atoms: N_37  and  C_39
REMARK                            x       y       z     vdW  Elec       q    Type
REMARK                         _______ _______ _______ _____ _____    ______ ____
ROOT
ATOM      1  C   UNL     1       1.675   9.407  -0.389  0.00  0.00    +0.133 C 
ATOM      2  C   UNL     1       2.334   9.152   0.985  0.00  0.00    +0.183 C 
ATOM      3  O   UNL     1       2.298   7.720   1.150  0.00  0.00    -0.370 OA
ATOM      4  C   UNL     1       1.018   7.290   0.640  0.00  0.00    +0.171 C 
ATOM      5  C   UNL     1       0.730   8.188  -0.588  0.00  0.00    +0.170 C 
ATOM      6  O   UNL     1       1.087   7.467  -1.763  0.00  0.00    -0.370 OA
ATOM      7  C   UNL     1       1.644   6.194  -1.424  0.00  0.00    +0.185 C 
ATOM      8  C   UNL     1       1.205   5.885   0.020  0.00  0.00    +0.130 C 
ENDROOT
BRANCH   8   9
ATOM      9  N   UNL     1      -0.059   5.144   0.028  0.00  0.00    -0.306 N 
ATOM     10  C   UNL     1      -0.048   3.760   0.022  0.00  0.00    +0.216 A 
ATOM     11  N   UNL     1       1.114   3.122   0.008  0.00  0.00    -0.223 NA
ATOM     12  C   UNL     1       1.166   1.800   0.001  0.00  0.00    +0.116 A 
ATOM     13  C   UNL     1      -0.013   1.076   0.008  0.00  0.00    +0.048 A 
ATOM     14  C   UNL     1      -1.223   1.775   0.017  0.00  0.00    +0.076 A 
ATOM     15  N   UNL     1      -1.199   3.106   0.029  0.00  0.00    -0.214 NA
ATOM     16  H   UNL     1      -0.902   5.622   0.039  0.00  0.00    +0.149 HD
BRANCH  14  17
ATOM     17  C   UNL     1      -2.513   1.045   0.020  0.00  0.00    +0.001 A 
ATOM     18  C   UNL     1      -2.527  -0.349   0.007  0.00  0.00    +0.012 A 
ATOM     19  C   UNL     1      -3.727  -1.026   0.015  0.00  0.00    +0.024 A 
ATOM     20  C   UNL     1      -4.925  -0.319   0.024  0.00  0.00    +0.029 A 
ATOM     21  C   UNL     1      -4.913   1.072   0.031  0.00  0.00    +0.024 A 
ATOM     22  C   UNL     1      -3.715   1.753   0.029  0.00  0.00    +0.012 A 
BRANCH  20  23
ATOM     23  N   UNL     1      -6.138  -1.004   0.025  0.00  0.00    -0.336 N 
ATOM     24  C   UNL     1      -7.400  -0.261   0.035  0.00  0.00    +0.129 C 
ATOM     25  C   UNL     1      -6.151  -2.470   0.018  0.00  0.00    +0.129 C 
ENDBRANCH  20  23
ENDBRANCH  14  17
ENDBRANCH   8   9
BRANCH   1  26
ATOM     26  N   UNL     1       0.895  10.647  -0.362  0.00  0.00    -0.182 NA
ATOM     27  H   UNL     1      -0.012  10.642  -0.019  0.00  0.00    +0.148 HD
BRANCH  26  28
ATOM     28  S   UNL     1       1.563  12.057  -0.917  0.00  0.00    +0.059 S 
ATOM     29  O   UNL     1       0.564  13.059  -0.786  0.00  0.00    -0.153 OA
ATOM     30  O   UNL     1       2.840  12.170  -0.305  0.00  0.00    -0.153 OA
BRANCH  28  35
ATOM     31  C   UNL     1       2.542  11.361  -6.830  0.00  0.00    +0.044 C 
ATOM     32  C   UNL     1       2.298  11.535  -5.353  0.00  0.00    -0.050 A 
ATOM     33  C   UNL     1       1.091  12.042  -4.907  0.00  0.00    +0.005 A 
ATOM     34  C   UNL     1       0.867  12.201  -3.553  0.00  0.00    +0.029 A 
ATOM     35  C   UNL     1       1.849  11.854  -2.644  0.00  0.00    +0.105 A 
ATOM     36  C   UNL     1       3.057  11.352  -3.090  0.00  0.00    +0.029 A 
ATOM     37  C   UNL     1       3.280  11.188  -4.444  0.00  0.00    +0.005 A 
ENDBRANCH  28  35
ENDBRANCH  26  28
ENDBRANCH   1  26
TORSDOF 6
