REMARK  Name = ZINC02256411
REMARK  6 active torsions:
REMARK  status: ('A' for Active; 'I' for Inactive)
REMARK    1  A    between atoms: C_1  and  O_2
REMARK    2  A    between atoms: O_2  and  C_3
REMARK    3  A    between atoms: C_6  and  C_9
REMARK    4  A    between atoms: C_12  and  C_27
REMARK    5  A    between atoms: C_17  and  N_19
REMARK    6  A    between atoms: C_20  and  C_22
REMARK                            x       y       z     vdW  Elec       q    Type
REMARK                         _______ _______ _______ _____ _____    ______ ____
ROOT
ATOM      1  C   UNL     1       2.587  -2.550   4.310  0.00  0.00    +0.156 C 
ATOM      2  C   UNL     1       1.532  -2.938   5.329  0.00  0.00    +0.030 C 
ATOM      3  C   UNL     1       1.432  -4.242   5.651  0.00  0.00    +0.073 C 
ATOM      4  N   UNL     1       2.240  -5.177   5.091  0.00  0.00    -0.217 NA
ATOM      5  C   UNL     1       3.173  -4.915   4.204  0.00  0.00    +0.211 C 
ATOM      6  N   UNL     1       3.405  -3.644   3.769  0.00  0.00    -0.180 N 
ATOM      7  N   UNL     1       4.446  -3.689   2.840  0.00  0.00    -0.140 NA
ATOM      8  C   UNL     1       4.832  -4.933   2.715  0.00  0.00    +0.241 C 
ATOM      9  N   UNL     1       4.065  -5.724   3.546  0.00  0.00    -0.254 N 
ATOM     10  H   UNL     1       4.143  -6.686   3.647  0.00  0.00    +0.158 HD
ENDROOT
BRANCH   3  11
ATOM     11  C   UNL     1       0.414  -4.668   6.644  0.00  0.00    +0.000 A 
ATOM     12  C   UNL     1      -0.430  -3.725   7.227  0.00  0.00    +0.011 A 
ATOM     13  C   UNL     1      -1.376  -4.125   8.149  0.00  0.00    +0.020 A 
ATOM     14  C   UNL     1      -1.487  -5.461   8.494  0.00  0.00    +0.041 A 
ATOM     15  C   UNL     1      -0.650  -6.402   7.918  0.00  0.00    +0.020 A 
ATOM     16  C   UNL     1       0.295  -6.012   6.991  0.00  0.00    +0.011 A 
ATOM     17 CL   UNL     1      -2.678  -5.958   9.655  0.00  0.00    -0.084 Cl
ENDBRANCH   3  11
BRANCH   1  21
ATOM     18  C   UNL     1       0.626  -0.618   1.042  0.00  0.00    +0.120 A 
ATOM     19  C   UNL     1       1.202   0.138   2.051  0.00  0.00    +0.046 A 
ATOM     20  C   UNL     1       1.835  -0.488   3.107  0.00  0.00    +0.009 A 
ATOM     21  C   UNL     1       1.895  -1.869   3.158  0.00  0.00    -0.021 A 
ATOM     22  C   UNL     1       1.322  -2.625   2.152  0.00  0.00    +0.009 A 
ATOM     23  C   UNL     1       0.682  -2.003   1.098  0.00  0.00    +0.046 A 
BRANCH  18  25
ATOM     24  C   UNL     1      -0.017   1.425   0.010  0.00  0.00    +0.277 C 
ATOM     25  O   UNL     1       0.002  -0.004   0.002  0.00  0.00    -0.495 OA
ENDBRANCH  18  25
ENDBRANCH   1  21
BRANCH   8  26
ATOM     26  N   UNL     1       5.825  -5.374   1.899  0.00  0.00    -0.171 NA
ATOM     27  C   UNL     1       6.489  -4.519   1.150  0.00  0.00    +0.316 C 
ATOM     28  O   UNL     1       6.183  -3.202   1.191  0.00  0.00    -0.262 OA
BRANCH  27  29
ATOM     29  C   UNL     1       7.560  -4.995   0.271  0.00  0.00    +0.194 A 
ATOM     30  C   UNL     1       8.328  -4.220  -0.551  0.00  0.00    +0.055 A 
ATOM     31  C   UNL     1       9.222  -5.085  -1.204  0.00  0.00    +0.042 A 
ATOM     32  C   UNL     1       8.963  -6.333  -0.758  0.00  0.00    +0.196 A 
ATOM     33  O   UNL     1       7.965  -6.275   0.135  0.00  0.00    -0.458 OA
ENDBRANCH  27  29
ENDBRANCH   8  26
TORSDOF 5
