REMARK  Name = ZINC57499866
REMARK  9 active torsions:
REMARK  status: ('A' for Active; 'I' for Inactive)
REMARK    1  A    between atoms: C_1  and  C_2
REMARK    2  A    between atoms: C_2  and  C_19
REMARK    3  A    between atoms: N_5  and  C_9
REMARK    4  A    between atoms: C_9  and  C_10
REMARK    5  A    between atoms: C_15  and  N_16
REMARK    6  A    between atoms: C_22  and  C_25
REMARK    7  A    between atoms: C_25  and  C_26
REMARK    8  A    between atoms: C_25  and  C_27
REMARK    9  A    between atoms: C_25  and  C_28
REMARK                            x       y       z     vdW  Elec       q    Type
REMARK                         _______ _______ _______ _____ _____    ______ ____
ROOT
ATOM      1  C   UNL     1       0.079   1.468   0.288  0.00  0.00    +0.047 C 
ATOM      2  C   UNL     1       0.102  -0.061   0.239  0.00  0.00    +0.135 C 
ATOM      3  C   UNL     1       0.848  -0.543  -0.989  0.00  0.00    +0.251 C 
ATOM      4  O   UNL     1       0.563  -0.335  -2.149  0.00  0.00    -0.272 OA
ATOM      5  N   UNL     1       1.896  -1.252  -0.524  0.00  0.00    -0.219 N 
ATOM      6  C   UNL     1       1.915  -1.284   0.814  0.00  0.00    +0.310 C 
ATOM      7  O   UNL     1       2.763  -1.862   1.464  0.00  0.00    -0.252 OA
ATOM      8  N   UNL     1       0.889  -0.605   1.359  0.00  0.00    -0.281 N 
ATOM      9  H   UNL     1       0.705  -0.494   2.304  0.00  0.00    +0.152 HD
ENDROOT
BRANCH   2  10
ATOM     10  C   UNL     1      -1.301  -0.611   0.261  0.00  0.00    -0.015 A 
ATOM     11  C   UNL     1      -1.971  -0.844  -0.926  0.00  0.00    +0.006 A 
ATOM     12  C   UNL     1      -3.258  -1.349  -0.906  0.00  0.00    +0.004 A 
ATOM     13  C   UNL     1      -3.874  -1.621   0.301  0.00  0.00    -0.042 A 
ATOM     14  C   UNL     1      -3.204  -1.389   1.487  0.00  0.00    +0.004 A 
ATOM     15  C   UNL     1      -1.916  -0.889   1.467  0.00  0.00    +0.006 A 
BRANCH  13  16
ATOM     16  C   UNL     1      -5.278  -2.171   0.323  0.00  0.00    -0.013 C 
ATOM     17  C   UNL     1      -5.314  -3.507  -0.421  0.00  0.00    +0.015 C 
ATOM     18  C   UNL     1      -5.720  -2.381   1.772  0.00  0.00    +0.015 C 
ATOM     19  C   UNL     1      -6.223  -1.181  -0.361  0.00  0.00    +0.015 C 
ENDBRANCH  13  16
ENDBRANCH   2  10
BRANCH   5  20
ATOM     20  C   UNL     1       2.890  -1.907  -1.377  0.00  0.00    +0.155 C 
BRANCH  20  21
ATOM     21  C   UNL     1       3.973  -0.921  -1.735  0.00  0.00    +0.001 A 
ATOM     22  C   UNL     1       3.932   0.364  -1.227  0.00  0.00    +0.007 A 
ATOM     23  C   UNL     1       4.924   1.268  -1.556  0.00  0.00    +0.000 A 
ATOM     24  C   UNL     1       5.958   0.887  -2.391  0.00  0.00    +0.002 A 
ATOM     25  C   UNL     1       5.999  -0.398  -2.898  0.00  0.00    +0.033 A 
ATOM     26  C   UNL     1       5.009  -1.304  -2.566  0.00  0.00    +0.131 A 
BRANCH  26  27
ATOM     27  N   UNL     1       5.055  -2.682  -3.104  0.00  0.00    +0.057 N 
ATOM     28  O   UNL     1       6.013  -3.049  -3.744  0.00  0.00    -0.126 OA
ATOM     29  O   UNL     1       4.135  -3.440  -2.904  0.00  0.00    -0.126 OA
ENDBRANCH  26  27
ENDBRANCH  20  21
ENDBRANCH   5  20
TORSDOF 5
