REMARK  Name = ZINC01117640
REMARK  10 active torsions:
REMARK  status: ('A' for Active; 'I' for Inactive)
REMARK    1  A    between atoms: C_1  and  C_2
REMARK    2  A    between atoms: C_5  and  C_27
REMARK    3  A    between atoms: C_6  and  N_8
REMARK    4  A    between atoms: N_8  and  C_9
REMARK    5  A    between atoms: N_8  and  S_23
REMARK    6  A    between atoms: C_9  and  C_10
REMARK    7  A    between atoms: N_12  and  C_13
REMARK    8  A    between atoms: C_17  and  N_20
REMARK    9  A    between atoms: C_18  and  C_19
REMARK   10  A    between atoms: S_23  and  C_26
REMARK                            x       y       z     vdW  Elec       q    Type
REMARK                         _______ _______ _______ _____ _____    ______ ____
ROOT
ATOM      1  C   UNL     1       0.332   0.539   0.331  0.00  0.00    +0.227 C 
ENDROOT
BRANCH   1   2
ATOM      2  C   UNL     1       0.832  -0.083   1.609  0.00  0.00    +0.236 C 
ATOM      3  O   UNL     1       1.047   0.614   2.579  0.00  0.00    -0.274 OA
ATOM      4  N   UNL     1       1.038  -1.413   1.676  0.00  0.00    -0.284 N 
ATOM      5  H   UNL     1       0.927  -1.962   0.883  0.00  0.00    +0.155 HD
BRANCH   4   6
ATOM      6  C   UNL     1       1.414  -2.003   2.888  0.00  0.00    +0.039 A 
ATOM      7  C   UNL     1       2.106  -1.262   3.837  0.00  0.00    +0.024 A 
ATOM      8  C   UNL     1       2.475  -1.847   5.033  0.00  0.00    +0.004 A 
ATOM      9  C   UNL     1       2.157  -3.169   5.284  0.00  0.00    +0.033 A 
ATOM     10  C   UNL     1       1.468  -3.909   4.341  0.00  0.00    +0.131 A 
ATOM     11  C   UNL     1       1.092  -3.329   3.146  0.00  0.00    +0.001 A 
ATOM     12  C   UNL     1       0.336  -4.134   2.121  0.00  0.00    +0.048 C 
BRANCH  10  13
ATOM     13  N   UNL     1       1.131  -5.324   4.614  0.00  0.00    +0.057 N 
ATOM     14  O   UNL     1       1.353  -5.802   5.713  0.00  0.00    -0.126 OA
ATOM     15  O   UNL     1       0.630  -6.011   3.741  0.00  0.00    -0.126 OA
ENDBRANCH  10  13
ENDBRANCH   4   6
ENDBRANCH   1   2
BRANCH   1  16
ATOM     16  N   UNL     1       0.116   1.973   0.537  0.00  0.00    -0.199 N 
BRANCH  16  22
ATOM     17  C   UNL     1       4.040   4.267   2.405  0.00  0.00    +0.044 C 
ATOM     18  C   UNL     1       3.093   4.001   1.264  0.00  0.00    -0.049 A 
ATOM     19  C   UNL     1       3.271   4.647   0.054  0.00  0.00    +0.004 A 
ATOM     20  C   UNL     1       2.404   4.406  -0.996  0.00  0.00    +0.005 A 
ATOM     21  C   UNL     1       1.356   3.520  -0.839  0.00  0.00    -0.028 A 
ATOM     22  C   UNL     1       1.174   2.870   0.375  0.00  0.00    +0.055 A 
ATOM     23  C   UNL     1       2.045   3.117   1.429  0.00  0.00    +0.028 A 
ATOM     24  C   UNL     1       0.411   3.258  -1.984  0.00  0.00    +0.046 C 
ENDBRANCH  16  22
BRANCH  16  25
ATOM     25  S   UNL     1      -1.386   2.532   0.957  0.00  0.00    +0.043 S 
ATOM     26  O   UNL     1      -1.459   3.834   0.391  0.00  0.00    -0.155 OA
ATOM     27  O   UNL     1      -2.282   1.510   0.542  0.00  0.00    -0.155 OA
ATOM     28  C   UNL     1      -1.355   2.639   2.767  0.00  0.00    +0.218 C 
ENDBRANCH  16  25
ENDBRANCH   1  16
TORSDOF 6
