REMARK  Name = ZINC66774089
REMARK  7 active torsions:
REMARK  status: ('A' for Active; 'I' for Inactive)
REMARK    1  A    between atoms: C_1  and  C_2
REMARK    2  A    between atoms: C_2  and  C_3
REMARK    3  A    between atoms: C_2  and  C_4
REMARK    4  A    between atoms: C_4  and  C_6
REMARK    5  A    between atoms: C_4  and  N_9
REMARK    6  A    between atoms: C_10  and  C_12
REMARK    7  A    between atoms: C_15  and  C_17
REMARK                            x       y       z     vdW  Elec       q    Type
REMARK                         _______ _______ _______ _____ _____    ______ ____
ROOT
ATOM      1  C   UNL     1       0.990   0.443   4.914  0.00  0.00    +0.133 A 
ATOM      2  C   UNL     1       1.962   0.621   5.862  0.00  0.00    +0.080 A 
ATOM      3  S   UNL     1       1.069   1.053   7.221  0.00  0.00    -0.075 S 
ATOM      4  C   UNL     1      -0.557   0.983   6.490  0.00  0.00    +0.109 A 
ATOM      5  N   UNL     1      -0.279   0.635   5.247  0.00  0.00    -0.234 NA
ENDROOT
BRANCH   4   6
ATOM      6  C   UNL     1      -1.871   1.251   7.112  0.00  0.00    +0.011 A 
ATOM      7  C   UNL     1      -3.040   1.133   6.358  0.00  0.00    +0.014 A 
ATOM      8  C   UNL     1      -4.264   1.384   6.940  0.00  0.00    +0.050 A 
ATOM      9  C   UNL     1      -4.340   1.754   8.277  0.00  0.00    +0.162 A 
ATOM     10  C   UNL     1      -3.179   1.871   9.035  0.00  0.00    +0.163 A 
ATOM     11  C   UNL     1      -1.948   1.617   8.457  0.00  0.00    +0.060 A 
ATOM     12  O   UNL     1      -3.238   2.225  10.348  0.00  0.00    -0.485 OA
ATOM     13  C   UNL     1      -4.456   2.828  10.798  0.00  0.00    +0.270 C 
ATOM     14  C   UNL     1      -5.630   2.000  10.259  0.00  0.00    +0.270 C 
ATOM     15  O   UNL     1      -5.559   2.001   8.829  0.00  0.00    -0.485 OA
ENDBRANCH   4   6
BRANCH   1  17
ATOM     16  N   UNL     1       0.387  -0.120   2.613  0.00  0.00    -0.299 N 
ATOM     17  C   UNL     1       1.350   0.048   3.541  0.00  0.00    +0.264 C 
ATOM     18  O   UNL     1       2.517  -0.126   3.244  0.00  0.00    -0.268 OA
ATOM     19  H   UNL     1      -0.544   0.019   2.850  0.00  0.00    +0.150 HD
BRANCH  16  20
ATOM     20  C   UNL     1       0.745  -0.512   1.248  0.00  0.00    +0.161 C 
BRANCH  20  21
ATOM     21  C   UNL     1       0.876  -2.011   1.174  0.00  0.00    +0.231 C 
ATOM     22  O   UNL     1       0.315  -2.710   1.991  0.00  0.00    -0.274 OA
ATOM     23  N   UNL     1       1.616  -2.575   0.199  0.00  0.00    -0.328 N 
ATOM     24  H   UNL     1       2.005  -2.022  -0.496  0.00  0.00    +0.145 HD
ATOM     25  H   UNL     1       1.761  -3.534   0.194  0.00  0.00    +0.145 HD
ENDBRANCH  20  21
BRANCH  20  27
ATOM     26  C   UNL     1      -1.683  -0.675   0.681  0.00  0.00    +0.009 C 
ATOM     27  C   UNL     1      -0.347  -0.047   0.281  0.00  0.00    +0.012 C 
ATOM     28  C   UNL     1      -0.463   1.478   0.338  0.00  0.00    +0.009 C 
ENDBRANCH  20  27
ENDBRANCH  16  20
ENDBRANCH   1  17
TORSDOF 5
