REMARK  Name = ZINC02143393
REMARK  4 active torsions:
REMARK  status: ('A' for Active; 'I' for Inactive)
REMARK    1  A    between atoms: C_9  and  O_23
REMARK    2  A    between atoms: C_10  and  C_11
REMARK    3  A    between atoms: N_12  and  C_13
REMARK    4  A    between atoms: C_17  and  N_19
REMARK                            x       y       z     vdW  Elec       q    Type
REMARK                         _______ _______ _______ _____ _____    ______ ____
ROOT
ATOM      1  C   UNL     1      -0.016   1.358   0.009  0.00  0.00    +0.001 A 
ATOM      2  C   UNL     1       1.167   2.091   0.002  0.00  0.00    +0.001 A 
ATOM      3  C   UNL     1       2.378   1.464  -0.013  0.00  0.00    +0.009 A 
ATOM      4  C   UNL     1       2.434   0.066  -0.021  0.00  0.00    -0.006 A 
ATOM      5  C   UNL     1       1.232  -0.682  -0.013  0.00  0.00    -0.017 A 
ATOM      6  C   UNL     1       0.002  -0.004   0.002  0.00  0.00    +0.008 A 
ATOM      7  C   UNL     1       1.290  -2.088  -0.021  0.00  0.00    +0.012 A 
ATOM      8  C   UNL     1       2.485  -2.736  -0.035  0.00  0.00    +0.046 A 
ATOM      9  C   UNL     1       3.696  -2.044  -0.044  0.00  0.00    +0.126 A 
ATOM     10  C   UNL     1       3.712  -0.647  -0.037  0.00  0.00    +0.042 A 
ENDROOT
BRANCH  10  11
ATOM     11  C   UNL     1       4.979   0.088  -0.046  0.00  0.00    +0.123 C 
ATOM     12  N   UNL     1       6.111  -0.563  -0.060  0.00  0.00    -0.255 NA
BRANCH  12  13
ATOM     13  C   UNL     1       7.295   0.123  -0.068  0.00  0.00    +0.066 A 
ATOM     14  C   UNL     1       7.463   1.222  -0.915  0.00  0.00    +0.029 A 
ATOM     15  C   UNL     1       8.659   1.909  -0.918  0.00  0.00    +0.024 A 
ATOM     16  C   UNL     1       9.691   1.511  -0.085  0.00  0.00    +0.071 A 
ATOM     17  C   UNL     1       9.531   0.423   0.756  0.00  0.00    +0.146 A 
ATOM     18  C   UNL     1       8.338  -0.269   0.774  0.00  0.00    +0.062 A 
ATOM     19 CL   UNL     1      11.194   2.381  -0.095  0.00  0.00    -0.081 Cl
BRANCH  17  20
ATOM     20  N   UNL     1      10.641   0.005   1.642  0.00  0.00    +0.058 N 
ATOM     21  O   UNL     1      10.502  -0.945   2.377  0.00  0.00    -0.126 OA
ATOM     22  O   UNL     1      11.685   0.613   1.631  0.00  0.00    -0.126 OA
ENDBRANCH  17  20
ENDBRANCH  12  13
ENDBRANCH  10  11
BRANCH   9  23
ATOM     23  O   UNL     1       4.865  -2.732  -0.058  0.00  0.00    -0.506 OA
ATOM     24  H   UNL     1       5.196  -2.927  -0.945  0.00  0.00    +0.292 HD
ENDBRANCH   9  23
TORSDOF 4
