REMARK  Name = ZINC26280662
REMARK  6 active torsions:
REMARK  status: ('A' for Active; 'I' for Inactive)
REMARK    1  A    between atoms: C_1  and  C_2
REMARK    2  A    between atoms: C_2  and  C_4
REMARK    3  A    between atoms: C_2  and  O_17
REMARK    4  A    between atoms: O_17  and  C_18
REMARK    5  A    between atoms: C_18  and  C_20
REMARK    6  A    between atoms: C_23  and  C_25
REMARK                            x       y       z     vdW  Elec       q    Type
REMARK                         _______ _______ _______ _____ _____    ______ ____
ROOT
ATOM      1  C   UNL     1      -0.019   1.526   0.010  0.00  0.00    +0.062 C 
ATOM      2  C   UNL     1       0.002  -0.004   0.002  0.00  0.00    +0.259 C 
ENDROOT
BRANCH   2   3
ATOM      3  C   UNL     1       0.731  -0.503   1.223  0.00  0.00    +0.259 C 
ATOM      4  O   UNL     1       1.774  -1.109   1.101  0.00  0.00    -0.271 OA
ATOM      5  N   UNL     1       0.223  -0.277   2.451  0.00  0.00    -0.266 N 
ATOM      6  C   UNL     1       0.896  -0.737   3.577  0.00  0.00    +0.154 A 
ATOM      7  C   UNL     1       0.381  -0.516   4.855  0.00  0.00    +0.126 A 
ATOM      8  C   UNL     1       1.097  -1.001   5.962  0.00  0.00    +0.183 A 
ATOM      9  N   UNL     1       0.396  -0.660   7.060  0.00  0.00    -0.216 NA
ATOM     10  H   UNL     1      -1.437   0.544   4.856  0.00  0.00    +0.167 HD
ATOM     11  C   UNL     1      -0.680  -0.012   6.712  0.00  0.00    +0.199 A 
ATOM     12  N   UNL     1      -0.739   0.105   5.366  0.00  0.00    -0.340 N 
ATOM     13  N   UNL     1       2.243  -1.655   5.748  0.00  0.00    -0.214 NA
ATOM     14  C   UNL     1       2.688  -1.839   4.525  0.00  0.00    +0.225 A 
ATOM     15  N   UNL     1       2.041  -1.403   3.460  0.00  0.00    -0.218 NA
ATOM     16  H   UNL     1      -0.611   0.208   2.548  0.00  0.00    +0.156 HD
ENDBRANCH   2   3
BRANCH   2  17
ATOM     17  O   UNL     1       0.671  -0.465  -1.174  0.00  0.00    -0.448 OA
BRANCH  17  18
ATOM     18  C   UNL     1      -0.088  -0.673  -2.268  0.00  0.00    +0.359 C 
ATOM     19  O   UNL     1      -1.286  -0.469  -2.224  0.00  0.00    -0.243 OA
BRANCH  18  20
ATOM     20  C   UNL     1       0.532  -1.148  -3.515  0.00  0.00    +0.155 A 
ATOM     21  C   UNL     1      -0.232  -1.360  -4.644  0.00  0.00    +0.082 A 
ATOM     22  S   UNL     1       0.911  -1.882  -5.763  0.00  0.00    -0.075 S 
ATOM     23  C   UNL     1       2.352  -1.804  -4.713  0.00  0.00    +0.109 A 
ATOM     24  N   UNL     1       1.838  -1.374  -3.576  0.00  0.00    -0.232 NA
BRANCH  23  25
ATOM     25  C   UNL     1       3.758  -2.131  -5.035  0.00  0.00    +0.007 A 
ATOM     26  C   UNL     1       4.747  -2.008  -4.059  0.00  0.00    +0.012 A 
ATOM     27  C   UNL     1       6.056  -2.315  -4.364  0.00  0.00    +0.020 A 
ATOM     28  C   UNL     1       6.390  -2.745  -5.638  0.00  0.00    +0.041 A 
ATOM     29  C   UNL     1       5.413  -2.869  -6.611  0.00  0.00    +0.020 A 
ATOM     30  C   UNL     1       4.099  -2.570  -6.315  0.00  0.00    +0.012 A 
ATOM     31 CL   UNL     1       8.040  -3.129  -6.015  0.00  0.00    -0.084 Cl
ENDBRANCH  23  25
ENDBRANCH  18  20
ENDBRANCH  17  18
ENDBRANCH   2  17
TORSDOF 5
