REMARK  Name = ZINC66253057
REMARK  5 active torsions:
REMARK  status: ('A' for Active; 'I' for Inactive)
REMARK    1  A    between atoms: C_1  and  C_2
REMARK    2  A    between atoms: C_2  and  C_3
REMARK    3  A    between atoms: N_12  and  S_13
REMARK    4  A    between atoms: S_13  and  C_16
REMARK    5  A    between atoms: C_19  and  C_22
REMARK                            x       y       z     vdW  Elec       q    Type
REMARK                         _______ _______ _______ _____ _____    ______ ____
ROOT
ATOM      1  C   UNL     1      -1.433  -0.534   0.013  0.00  0.00    -0.006 C 
ATOM      2  C   UNL     1      -1.419  -2.060  -0.112  0.00  0.00    +0.010 C 
ATOM      3  C   UNL     1      -2.841  -2.575  -0.338  0.00  0.00    +0.054 C 
ATOM      4  C   UNL     1      -3.751  -2.018   0.754  0.00  0.00    +0.028 A 
ATOM      5  C   UNL     1      -3.376  -0.946   1.464  0.00  0.00    +0.013 A 
ATOM      6  S   UNL     1      -4.725  -0.677   2.585  0.00  0.00    -0.053 S 
ATOM      7  C   UNL     1      -5.751  -2.036   2.045  0.00  0.00    +0.192 A 
ATOM      8  N   UNL     1      -4.974  -2.581   1.052  0.00  0.00    -0.336 N 
ATOM      9  N   UNL     1      -6.929  -2.413   2.480  0.00  0.00    -0.103 NA
ATOM     10  C   UNL     1      -2.113  -0.154   1.337  0.00  0.00    +0.047 C 
ATOM     11  H   UNL     1      -5.284  -3.358   0.562  0.00  0.00    +0.168 HD
ENDROOT
BRANCH   9  12
ATOM     12  S   UNL     1      -7.681  -3.724   1.804  0.00  0.00    +0.101 S 
ATOM     13  O   UNL     1      -7.985  -3.371   0.462  0.00  0.00    -0.146 OA
ATOM     14  O   UNL     1      -6.891  -4.859   2.133  0.00  0.00    -0.146 OA
BRANCH  12  15
ATOM     15  C   UNL     1      -9.222  -3.925   2.633  0.00  0.00    +0.113 A 
ATOM     16  C   UNL     1      -9.297  -4.717   3.766  0.00  0.00    +0.030 A 
ATOM     17  C   UNL     1     -10.501  -4.879   4.420  0.00  0.00    +0.021 A 
ATOM     18  C   UNL     1     -11.645  -4.241   3.937  0.00  0.00    +0.052 A 
ATOM     19  C   UNL     1     -11.563  -3.444   2.794  0.00  0.00    +0.021 A 
ATOM     20  C   UNL     1     -10.351  -3.287   2.152  0.00  0.00    +0.030 A 
BRANCH  18  21
ATOM     21  C   UNL     1     -12.898  -4.405   4.611  0.00  0.00    +0.099 C 
ATOM     22  N   UNL     1     -13.892  -4.535   5.145  0.00  0.00    -0.191 NA
ENDBRANCH  18  21
ENDBRANCH  12  15
ENDBRANCH   9  12
BRANCH   1  24
ATOM     23  C   UNL     1      -0.019   1.526   0.010  0.00  0.00    +0.004 C 
ATOM     24  C   UNL     1       0.002  -0.004   0.002  0.00  0.00    +0.000 C 
ENDBRANCH   1  24
TORSDOF 4
