REMARK  Name = ZINC33924993
REMARK  9 active torsions:
REMARK  status: ('A' for Active; 'I' for Inactive)
REMARK    1  A    between atoms: C_4  and  C_7
REMARK    2  A    between atoms: C_7  and  N_8
REMARK    3  A    between atoms: N_8  and  C_9
REMARK    4  A    between atoms: C_9  and  C_10
REMARK    5  A    between atoms: C_10  and  N_11
REMARK    6  A    between atoms: C_16  and  C_28
REMARK    7  A    between atoms: CA_19  and  C_25
REMARK    8  A    between atoms: C_31  and  O_34
REMARK    9  A    between atoms: O_34  and  C_35
REMARK                            x       y       z     vdW  Elec       q    Type
REMARK                         _______ _______ _______ _____ _____    ______ ____
ROOT
ATOM      1  N   UNL     1       5.365  -3.080   2.034  0.00  0.00    -0.244 N 
ATOM      2  C   UNL     1       5.850  -4.357   2.170  0.00  0.00    +0.224 C 
ATOM      3  O   UNL     1       5.257  -5.398   1.984  0.00  0.00    -0.275 OA
ATOM      4  C   UNL     1       7.223  -4.184   2.583  0.00  0.00    +0.077 C 
ATOM      5  C   UNL     1       8.485  -4.933   2.645  0.00  0.00    -0.027 C 
ATOM      6  N   UNL     1       9.539  -3.874   2.777  0.00  0.00    +0.394 N 
ATOM      7  CA  UNL     1       8.859  -2.543   2.662  0.00  0.00    +0.057 C 
ATOM      8  C   UNL     1       7.635  -2.883   1.784  0.00  0.00    +0.083 C 
ATOM      9  C   UNL     1       6.353  -2.137   2.033  0.00  0.00    +0.224 C 
ATOM     10  O   UNL     1       6.224  -0.943   2.201  0.00  0.00    -0.275 OA
ATOM     11  H1  UNL     1       9.991  -3.951   3.676  0.00  0.00    -0.084 HD
ATOM     12  H2  UNL     1      10.221  -3.975   2.040  0.00  0.00    -0.084 HD
ENDROOT
BRANCH   5  13
ATOM     13  C   UNL     1       8.689  -5.728   1.381  0.00  0.00    -0.060 A 
ATOM     14  C   UNL     1       9.174  -5.107   0.245  0.00  0.00    +0.005 A 
ATOM     15  C   UNL     1       9.361  -5.833  -0.915  0.00  0.00    +0.046 A 
ATOM     16  C   UNL     1       9.063  -7.188  -0.940  0.00  0.00    +0.128 A 
ATOM     17  C   UNL     1       8.576  -7.809   0.202  0.00  0.00    +0.046 A 
ATOM     18  C   UNL     1       8.395  -7.079   1.360  0.00  0.00    +0.005 A 
BRANCH  16  19
ATOM     19  O   UNL     1       9.246  -7.904  -2.079  0.00  0.00    -0.456 OA
BRANCH  19  20
ATOM     20  C   UNL     1       9.732  -7.255  -3.170  0.00  0.00    +0.128 A 
ATOM     21  C   UNL     1      11.101  -7.185  -3.384  0.00  0.00    +0.046 A 
ATOM     22  C   UNL     1      11.592  -6.524  -4.493  0.00  0.00    +0.004 A 
ATOM     23  C   UNL     1      10.721  -5.934  -5.390  0.00  0.00    +0.000 A 
ATOM     24  C   UNL     1       9.356  -6.002  -5.179  0.00  0.00    +0.004 A 
ATOM     25  C   UNL     1       8.859  -6.667  -4.074  0.00  0.00    +0.046 A 
ENDBRANCH  19  20
ENDBRANCH  16  19
ENDBRANCH   5  13
BRANCH   7  26
ATOM     26  C   UNL     1       8.453  -2.032   4.020  0.00  0.00    +0.343 C 
ATOM     27  O   UNL     1       8.717  -2.679   5.019  0.00  0.00    -0.248 OA
ATOM     28  OXT UNL     1       7.860  -0.971   4.119  0.00  0.00    -0.248 OA
ENDBRANCH   7  26
BRANCH   1  29
ATOM     29  C   UNL     1       3.941  -2.763   1.898  0.00  0.00    +0.097 C 
BRANCH  29  30
ATOM     30  C   UNL     1       3.556  -2.769   0.417  0.00  0.00    -0.062 C 
BRANCH  30  31
ATOM     31  N   UNL     1       2.128  -2.451   0.281  0.00  0.00    +0.383 N 
ATOM     32  H   UNL     1       1.948  -1.539   0.671  0.00  0.00    -0.085 HD
ATOM     33  H   UNL     1       1.582  -3.142   0.773  0.00  0.00    -0.085 HD
BRANCH  31  34
ATOM     34  C   UNL     1       1.759  -2.457  -1.141  0.00  0.00    -0.047 C 
BRANCH  34  38
ATOM     35  C   UNL     1      -2.392  -1.534  -1.540  0.00  0.00    +0.000 A 
ATOM     36  C   UNL     1      -1.455  -0.518  -1.548  0.00  0.00    +0.000 A 
ATOM     37  C   UNL     1      -0.111  -0.817  -1.419  0.00  0.00    +0.002 A 
ATOM     38  C   UNL     1       0.294  -2.131  -1.281  0.00  0.00    -0.064 A 
ATOM     39  C   UNL     1      -0.643  -3.147  -1.272  0.00  0.00    +0.002 A 
ATOM     40  C   UNL     1      -1.987  -2.848  -1.403  0.00  0.00    +0.000 A 
ENDBRANCH  34  38
ENDBRANCH  31  34
ENDBRANCH  30  31
ENDBRANCH  29  30
ENDBRANCH   1  29
TORSDOF 9
