REMARK  Name = ZINC23523773
REMARK  8 active torsions:
REMARK  status: ('A' for Active; 'I' for Inactive)
REMARK    1  A    between atoms: C_1  and  C_2
REMARK    2  A    between atoms: C_3  and  O_32
REMARK    3  A    between atoms: C_12  and  C_13
REMARK    4  A    between atoms: C_13  and  S_14
REMARK    5  A    between atoms: S_14  and  C_15
REMARK    6  A    between atoms: C_18  and  C_27
REMARK    7  A    between atoms: N_19  and  C_20
REMARK    8  A    between atoms: C_20  and  C_21
REMARK                            x       y       z     vdW  Elec       q    Type
REMARK                         _______ _______ _______ _____ _____    ______ ____
ROOT
ATOM      1  S   UNL     1      -1.110   1.572   7.026  0.00  0.00    -0.081 S 
ENDROOT
BRANCH   1   2
ATOM      2  C   UNL     1      -1.847   2.408   8.392  0.00  0.00    +0.192 A 
ATOM      3  N   UNL     1      -1.931   3.709   8.555  0.00  0.00    -0.122 NA
ATOM      4  N   UNL     1      -2.531   3.978   9.659  0.00  0.00    -0.128 NA
ATOM      5  C   UNL     1      -2.860   2.864  10.275  0.00  0.00    +0.172 A 
ATOM      6  N   UNL     1      -2.432   1.823   9.480  0.00  0.00    -0.299 N 
BRANCH   5   7
ATOM      7  C   UNL     1      -3.555   2.749  11.567  0.00  0.00    +0.056 A 
ATOM      8  C   UNL     1      -3.755   3.707  12.529  0.00  0.00    +0.019 A 
ATOM      9  C   UNL     1      -4.447   3.365  13.669  0.00  0.00    +0.008 A 
ATOM     10  C   UNL     1      -4.899   2.092  13.812  0.00  0.00    +0.046 A 
ATOM     11  S   UNL     1      -4.351   1.327  12.295  0.00  0.00    -0.094 S 
ENDBRANCH   5   7
BRANCH   6  12
ATOM     12  C   UNL     1      -2.573   0.389   9.747  0.00  0.00    +0.157 C 
BRANCH  12  13
ATOM     13  C   UNL     1      -1.351  -0.107  10.523  0.00  0.00    +0.138 C 
ATOM     14  C   UNL     1      -1.522  -1.602  10.894  0.00  0.00    +0.035 C 
ATOM     15  C   UNL     1      -0.038  -2.039  11.044  0.00  0.00    +0.031 C 
ATOM     16  C   UNL     1       0.668  -1.176   9.976  0.00  0.00    +0.160 C 
ATOM     17  O   UNL     1      -0.179  -0.056   9.695  0.00  0.00    -0.375 OA
ENDBRANCH  12  13
ENDBRANCH   6  12
ENDBRANCH   1   2
BRANCH   1  18
ATOM     18  C   UNL     1      -0.581   2.993   6.037  0.00  0.00    +0.113 C 
BRANCH  18  30
ATOM     19  C   UNL     1      -0.013   1.086   0.008  0.00  0.00    +0.051 C 
ATOM     20  C   UNL     1      -0.718   1.572   1.248  0.00  0.00    +0.034 A 
ATOM     21  C   UNL     1      -2.086   1.790   1.229  0.00  0.00    +0.123 A 
ATOM     22  C   UNL     1      -2.748   2.235   2.371  0.00  0.00    +0.046 A 
ATOM     23  C   UNL     1      -2.056   2.471   3.524  0.00  0.00    +0.015 A 
ATOM     24  C   UNL     1      -0.673   2.261   3.559  0.00  0.00    +0.022 A 
ATOM     25  C   UNL     1       0.001   1.807   2.410  0.00  0.00    +0.146 A 
ATOM     26  O   UNL     1       1.335   1.606   2.448  0.00  0.00    -0.422 OA
ATOM     27  C   UNL     1       2.045   1.829   3.565  0.00  0.00    +0.338 A 
ATOM     28  O   UNL     1       3.248   1.633   3.553  0.00  0.00    -0.245 OA
ATOM     29  C   UNL     1       1.435   2.284   4.753  0.00  0.00    +0.097 A 
ATOM     30  C   UNL     1       0.096   2.506   4.782  0.00  0.00    -0.020 A 
BRANCH  21  31
ATOM     31  O   UNL     1      -2.788   1.565   0.089  0.00  0.00    -0.506 OA
ATOM     32  H   UNL     1      -3.874   1.737   0.069  0.00  0.00    +0.292 HD
ENDBRANCH  21  31
ENDBRANCH  18  30
ENDBRANCH   1  18
TORSDOF 7
