REMARK  Name = ZINC40066141
REMARK  10 active torsions:
REMARK  status: ('A' for Active; 'I' for Inactive)
REMARK    1  A    between atoms: C_1  and  C_2
REMARK    2  A    between atoms: C_12  and  C_13
REMARK    3  A    between atoms: N_16  and  C_30
REMARK    4  A    between atoms: C_17  and  C_19
REMARK    5  A    between atoms: C_22  and  O_25
REMARK    6  A    between atoms: O_25  and  C_26
REMARK    7  A    between atoms: C_26  and  C_27
REMARK    8  A    between atoms: C_30  and  C_31
REMARK    9  A    between atoms: C_34  and  O_37
REMARK   10  A    between atoms: O_37  and  C_38
REMARK                            x       y       z     vdW  Elec       q    Type
REMARK                         _______ _______ _______ _____ _____    ______ ____
ROOT
ATOM      1  C   UNL     1      -0.018   1.503   0.010  0.00  0.00    +0.044 C 
ATOM      2  C   UNL     1       0.002  -0.004   0.002  0.00  0.00    -0.044 A 
ATOM      3  C   UNL     1       0.005  -0.683  -1.209  0.00  0.00    +0.004 A 
ATOM      4  C   UNL     1       0.021  -2.050  -1.232  0.00  0.00    +0.015 A 
ATOM      5  C   UNL     1       0.033  -2.761  -0.032  0.00  0.00    +0.065 A 
ATOM      6  C   UNL     1       0.036  -4.246  -0.038  0.00  0.00    +0.199 A 
ATOM      7  O   UNL     1       0.200  -4.908  -1.047  0.00  0.00    -0.287 OA
ATOM      8  C   UNL     1      -0.176  -4.839   1.286  0.00  0.00    +0.072 A 
ATOM      9  C   UNL     1      -0.158  -4.068   2.414  0.00  0.00    +0.199 A 
ATOM     10  O   UNL     1       0.060  -2.739   2.383  0.00  0.00    -0.449 OA
ATOM     11  C   UNL     1       0.036  -2.085   1.199  0.00  0.00    +0.143 A 
ATOM     12  C   UNL     1       0.023  -0.690   1.195  0.00  0.00    -0.005 A 
ATOM     13  C   UNL     1       0.025   0.066   2.499  0.00  0.00    +0.048 C 
ATOM     14  C   UNL     1      -0.408  -4.941   3.575  0.00  0.00    +0.283 C 
ATOM     15  O   UNL     1      -0.459  -4.566   4.729  0.00  0.00    -0.267 OA
ATOM     16  N   UNL     1      -0.571  -6.217   3.168  0.00  0.00    -0.279 N 
ATOM     17  C   UNL     1      -0.436  -6.249   1.703  0.00  0.00    +0.145 C 
ENDROOT
BRANCH  17  18
ATOM     18  C   UNL     1      -1.711  -6.750   1.075  0.00  0.00    -0.022 A 
ATOM     19  C   UNL     1      -2.933  -6.379   1.604  0.00  0.00    +0.009 A 
ATOM     20  C   UNL     1      -4.104  -6.837   1.030  0.00  0.00    +0.046 A 
ATOM     21  C   UNL     1      -4.052  -7.670  -0.078  0.00  0.00    +0.121 A 
ATOM     22  C   UNL     1      -2.824  -8.041  -0.607  0.00  0.00    +0.046 A 
ATOM     23  C   UNL     1      -1.657  -7.576  -0.033  0.00  0.00    +0.009 A 
BRANCH  21  24
ATOM     24  O   UNL     1      -5.202  -8.122  -0.644  0.00  0.00    -0.483 OA
BRANCH  24  25
ATOM     25  C   UNL     1      -5.072  -8.976  -1.782  0.00  0.00    +0.324 C 
BRANCH  25  26
ATOM     26  C   UNL     1      -6.441  -9.375  -2.269  0.00  0.00    +0.248 C 
ATOM     27  O   UNL     1      -7.431  -8.967  -1.698  0.00  0.00    -0.272 OA
ATOM     28  N   UNL     1      -6.567 -10.184  -3.340  0.00  0.00    -0.327 N 
ATOM     29  H   UNL     1      -5.775 -10.509  -3.797  0.00  0.00    +0.145 HD
ATOM     30  H   UNL     1      -7.448 -10.440  -3.654  0.00  0.00    +0.145 HD
ENDBRANCH  25  26
ENDBRANCH  24  25
ENDBRANCH  21  24
ENDBRANCH  17  18
BRANCH  16  31
ATOM     31  C   UNL     1      -0.834  -7.369   4.034  0.00  0.00    +0.144 C 
BRANCH  31  32
ATOM     32  C   UNL     1      -2.322  -7.544   4.198  0.00  0.00    -0.030 A 
ATOM     33  C   UNL     1      -2.982  -6.903   5.230  0.00  0.00    +0.009 A 
ATOM     34  C   UNL     1      -4.346  -7.062   5.383  0.00  0.00    +0.046 A 
ATOM     35  C   UNL     1      -5.053  -7.865   4.500  0.00  0.00    +0.120 A 
ATOM     36  C   UNL     1      -4.388  -8.507   3.465  0.00  0.00    +0.046 A 
ATOM     37  C   UNL     1      -3.025  -8.340   3.314  0.00  0.00    +0.009 A 
BRANCH  35  38
ATOM     38  O   UNL     1      -6.395  -8.023   4.649  0.00  0.00    -0.495 OA
ATOM     39  C   UNL     1      -7.057  -8.864   3.703  0.00  0.00    +0.277 C 
ENDBRANCH  35  38
ENDBRANCH  31  32
ENDBRANCH  16  31
TORSDOF 7
