REMARK  Name = ZINC49615472
REMARK  4 active torsions:
REMARK  status: ('A' for Active; 'I' for Inactive)
REMARK    1  A    between atoms: C_7  and  C_18
REMARK    2  A    between atoms: N_9  and  C_10
REMARK    3  A    between atoms: C_10  and  C_11
REMARK    4  A    between atoms: C_28  and  C_30
REMARK                            x       y       z     vdW  Elec       q    Type
REMARK                         _______ _______ _______ _____ _____    ______ ____
ROOT
ATOM      1  C   UNL     1       0.762  -3.208  -0.057  0.00  0.00    +0.026 C 
ATOM      2  C   UNL     1       1.178  -4.424   0.454  0.00  0.00    +0.079 C 
ATOM      3  C   UNL     1       2.501  -4.585   1.117  0.00  0.00    +0.132 C 
ATOM      4  N   UNL     1       3.073  -3.639   1.816  0.00  0.00    -0.385 N 
ATOM      5  N   UNL     1       3.078  -5.857   0.916  0.00  0.00    -0.153 N 
ATOM      6  C   UNL     1       2.228  -6.899   0.612  0.00  0.00    +0.181 C 
ATOM      7  N   UNL     1       0.940  -6.839   0.389  0.00  0.00    -0.152 NA
ATOM      8  C   UNL     1       0.328  -5.635   0.375  0.00  0.00    +0.273 C 
ATOM      9  O   UNL     1      -0.887  -5.545   0.296  0.00  0.00    -0.268 OA
ATOM     10  S   UNL     1       3.335  -8.285   0.586  0.00  0.00    -0.029 S 
ATOM     11  C   UNL     1       4.849  -7.380   0.878  0.00  0.00    +0.202 C 
ATOM     12  N   UNL     1       4.420  -6.158   1.009  0.00  0.00    -0.160 NA
ATOM     13  H   UNL     1       2.596  -2.814   1.997  0.00  0.00    +0.157 HD
ATOM     14  H   UNL     1       3.974  -3.763   2.154  0.00  0.00    +0.157 HD
ENDROOT
BRANCH   1  21
ATOM     15  C   UNL     1       0.168   1.405  -0.011  0.00  0.00    +0.001 A 
ATOM     16  C   UNL     1       1.377   2.079  -0.103  0.00  0.00    +0.002 A 
ATOM     17  C   UNL     1       2.563   1.385  -0.195  0.00  0.00    +0.026 A 
ATOM     18  C   UNL     1       2.556  -0.006  -0.195  0.00  0.00    +0.050 A 
ATOM     19  C   UNL     1       1.333  -0.686  -0.100  0.00  0.00    +0.007 A 
ATOM     20  C   UNL     1       0.141   0.027  -0.009  0.00  0.00    +0.010 A 
ATOM     21  C   UNL     1       1.667  -2.124  -0.127  0.00  0.00    +0.001 A 
ATOM     22  C   UNL     1       3.043  -2.197  -0.233  0.00  0.00    +0.095 A 
ATOM     23  N   UNL     1       3.558  -0.953  -0.273  0.00  0.00    -0.342 N 
BRANCH  23  24
ATOM     24  C   UNL     1       4.987  -0.646  -0.383  0.00  0.00    +0.157 C 
BRANCH  24  25
ATOM     25  C   UNL     1       5.560  -0.420   0.992  0.00  0.00    -0.028 A 
ATOM     26  C   UNL     1       5.560   0.848   1.541  0.00  0.00    +0.007 A 
ATOM     27  C   UNL     1       6.086   1.056   2.803  0.00  0.00    +0.020 A 
ATOM     28  C   UNL     1       6.611  -0.007   3.516  0.00  0.00    +0.041 A 
ATOM     29  C   UNL     1       6.610  -1.276   2.966  0.00  0.00    +0.020 A 
ATOM     30  C   UNL     1       6.079  -1.484   1.707  0.00  0.00    +0.007 A 
ATOM     31 CL   UNL     1       7.272   0.253   5.100  0.00  0.00    -0.084 Cl
ENDBRANCH  24  25
ENDBRANCH  23  24
ENDBRANCH   1  21
BRANCH  11  32
ATOM     32  C   UNL     1       6.262  -7.900   0.953  0.00  0.00    +0.442 C 
ATOM     33  F   UNL     1       7.137  -6.837   1.200  0.00  0.00    -0.164 F 
ATOM     34  F   UNL     1       6.360  -8.835   1.989  0.00  0.00    -0.164 F 
ATOM     35  F   UNL     1       6.599  -8.510  -0.259  0.00  0.00    -0.164 F 
ENDBRANCH  11  32
TORSDOF 4
