REMARK  Name = ZINC31044809
REMARK  6 active torsions:
REMARK  status: ('A' for Active; 'I' for Inactive)
REMARK    1  A    between atoms: C_3  and  C_6
REMARK    2  A    between atoms: C_6  and  N_7
REMARK    3  A    between atoms: C_8  and  C_10
REMARK    4  A    between atoms: N_15  and  C_17
REMARK    5  A    between atoms: C_17  and  C_18
REMARK    6  A    between atoms: C_20  and  C_23
REMARK                            x       y       z     vdW  Elec       q    Type
REMARK                         _______ _______ _______ _____ _____    ______ ____
ROOT
ATOM      1  C   UNL     1      -3.112  -2.443  -2.852  0.00  0.00    +0.058 C 
ATOM      2  C   UNL     1      -1.931  -2.797  -3.760  0.00  0.00    +0.009 C 
ATOM      3  C   UNL     1      -0.873  -1.695  -3.661  0.00  0.00    -0.018 C 
ATOM      4  C   UNL     1      -0.437  -1.543  -2.202  0.00  0.00    -0.078 C 
ATOM      5  N   UNL     1      -1.601  -1.204  -1.374  0.00  0.00    +0.386 N 
ATOM      6  C   UNL     1      -2.611  -2.270  -1.416  0.00  0.00    -0.065 C 
ATOM      7  H   UNL     1      -2.056  -0.294  -1.792  0.00  0.00    -0.081 HD
ENDROOT
BRANCH   1   9
ATOM      8  N   UNL     1      -4.715  -3.882  -4.068  0.00  0.00    -0.308 N 
ATOM      9  C   UNL     1      -4.133  -3.550  -2.898  0.00  0.00    +0.215 C 
ATOM     10  O   UNL     1      -4.430  -4.144  -1.883  0.00  0.00    -0.276 OA
ATOM     11  H   UNL     1      -4.445  -3.344  -4.989  0.00  0.00    +0.149 HD
BRANCH   8  12
ATOM     12  C   UNL     1      -5.707  -4.959  -4.113  0.00  0.00    +0.178 C 
BRANCH  12  15
ATOM     13  C   UNL     1      -6.434  -5.787  -7.630  0.00  0.00    +0.041 A 
ATOM     14  C   UNL     1      -5.660  -5.937  -6.457  0.00  0.00    +0.046 A 
ATOM     15  C   UNL     1      -6.200  -5.129  -5.527  0.00  0.00    +0.122 A 
ATOM     16  O   UNL     1      -7.249  -4.495  -6.074  0.00  0.00    -0.466 OA
ATOM     17  C   UNL     1      -7.396  -4.890  -7.350  0.00  0.00    +0.195 A 
ENDBRANCH  12  15
ENDBRANCH   8  12
ENDBRANCH   1   9
BRANCH   5  18
ATOM     18  C   UNL     1      -1.198  -0.915   0.009  0.00  0.00    +0.022 C 
BRANCH  18  19
ATOM     19  C   UNL     1       0.002  -0.004   0.002  0.00  0.00    +0.211 A 
ATOM     20  N   UNL     1      -0.016   1.306   0.009  0.00  0.00    -0.193 NA
ATOM     21  C   UNL     1       1.282   1.686  -0.001  0.00  0.00    +0.202 A 
ATOM     22  N   UNL     1       2.004   0.596  -0.014  0.00  0.00    -0.056 NA
ATOM     23  O   UNL     1       1.285  -0.380  -0.012  0.00  0.00    -0.340 OA
BRANCH  21  24
ATOM     24  C   UNL     1       1.791   3.080   0.001  0.00  0.00    +0.023 A 
ATOM     25  C   UNL     1       0.898   4.150   0.008  0.00  0.00    +0.013 A 
ATOM     26  C   UNL     1       1.376   5.445   0.015  0.00  0.00    +0.021 A 
ATOM     27  C   UNL     1       2.740   5.681   0.004  0.00  0.00    +0.041 A 
ATOM     28  C   UNL     1       3.631   4.622  -0.010  0.00  0.00    +0.021 A 
ATOM     29  C   UNL     1       3.163   3.324  -0.011  0.00  0.00    +0.013 A 
ATOM     30 CL   UNL     1       3.336   7.312   0.006  0.00  0.00    -0.084 Cl
ENDBRANCH  21  24
ENDBRANCH  18  19
ENDBRANCH   5  18
TORSDOF 6
