REMARK  Name = ZINC03376897
REMARK  12 active torsions:
REMARK  status: ('A' for Active; 'I' for Inactive)
REMARK    1  A    between atoms: C_1  and  C_2
REMARK    2  A    between atoms: C_2  and  C_3
REMARK    3  A    between atoms: C_2  and  C_4
REMARK    4  A    between atoms: C_4  and  C_6
REMARK    5  A    between atoms: C_4  and  N_23
REMARK    6  A    between atoms: C_6  and  O_8
REMARK    7  A    between atoms: O_8  and  C_9
REMARK    8  A    between atoms: C_9  and  C_10
REMARK    9  A    between atoms: N_12  and  C_13
REMARK   10  A    between atoms: C_13  and  C_14
REMARK   11  A    between atoms: N_23  and  S_24
REMARK   12  A    between atoms: S_24  and  C_27
REMARK                            x       y       z     vdW  Elec       q    Type
REMARK                         _______ _______ _______ _____ _____    ______ ____
ROOT
ATOM      1  C   UNL     1       4.544   0.070  -2.555  0.00  0.00    +0.187 C 
ENDROOT
BRANCH   1   3
ATOM      2  C   UNL     1       6.671   0.525  -1.326  0.00  0.00    +0.009 C 
ATOM      3  C   UNL     1       6.048   0.312  -2.707  0.00  0.00    +0.012 C 
ATOM      4  C   UNL     1       6.695  -0.902  -3.376  0.00  0.00    +0.009 C 
ENDBRANCH   1   3
BRANCH   1   5
ATOM      5  C   UNL     1       3.912  -0.026  -3.920  0.00  0.00    +0.327 C 
ATOM      6  O   UNL     1       3.334  -1.036  -4.248  0.00  0.00    -0.249 OA
BRANCH   5   7
ATOM      7  O   UNL     1       3.990   1.009  -4.771  0.00  0.00    -0.454 OA
BRANCH   7   8
ATOM      8  C   UNL     1       3.357   0.845  -6.067  0.00  0.00    +0.327 C 
BRANCH   8   9
ATOM      9  C   UNL     1       3.547   2.100  -6.880  0.00  0.00    +0.251 C 
ATOM     10  O   UNL     1       4.155   3.039  -6.413  0.00  0.00    -0.272 OA
ATOM     11  N   UNL     1       3.041   2.178  -8.127  0.00  0.00    -0.308 N 
ATOM     12  H   UNL     1       2.554   1.427  -8.501  0.00  0.00    +0.149 HD
BRANCH  11  13
ATOM     13  C   UNL     1       3.225   3.398  -8.917  0.00  0.00    +0.139 C 
BRANCH  13  14
ATOM     14  C   UNL     1       2.568   3.228 -10.263  0.00  0.00    -0.027 A 
ATOM     15  C   UNL     1       3.292   2.715 -11.324  0.00  0.00    +0.009 A 
ATOM     16  C   UNL     1       2.692   2.552 -12.559  0.00  0.00    +0.050 A 
ATOM     17  C   UNL     1       1.368   2.915 -12.740  0.00  0.00    +0.166 A 
ATOM     18  C   UNL     1       0.640   3.437 -11.673  0.00  0.00    +0.167 A 
ATOM     19  C   UNL     1       1.246   3.592 -10.436  0.00  0.00    +0.054 A 
ATOM     20  O   UNL     1      -0.626   3.713 -12.102  0.00  0.00    -0.453 OA
ATOM     21  C   UNL     1      -0.548   3.737 -13.539  0.00  0.00    +0.466 C 
ATOM     22  O   UNL     1       0.557   2.863 -13.837  0.00  0.00    -0.453 OA
ENDBRANCH  13  14
ENDBRANCH  11  13
ENDBRANCH   8   9
ENDBRANCH   7   8
ENDBRANCH   5   7
ENDBRANCH   1   5
BRANCH   1  23
ATOM     23  N   UNL     1       4.322  -1.179  -1.824  0.00  0.00    -0.176 NA
ATOM     24  H   UNL     1       4.721  -2.005  -2.141  0.00  0.00    +0.149 HD
BRANCH  23  25
ATOM     25  S   UNL     1       3.388  -1.183  -0.456  0.00  0.00    +0.059 S 
ATOM     26  O   UNL     1       3.881  -0.141   0.375  0.00  0.00    -0.153 OA
ATOM     27  O   UNL     1       3.312  -2.534  -0.021  0.00  0.00    -0.153 OA
BRANCH  25  28
ATOM     28  C   UNL     1       1.759  -0.716  -0.936  0.00  0.00    +0.109 A 
ATOM     29  C   UNL     1       0.847  -1.684  -1.314  0.00  0.00    +0.032 A 
ATOM     30  C   UNL     1      -0.432  -1.321  -1.692  0.00  0.00    +0.051 A 
ATOM     31  C   UNL     1      -0.804   0.015  -1.693  0.00  0.00    +0.162 A 
ATOM     32  C   UNL     1       0.112   0.987  -1.311  0.00  0.00    +0.164 A 
ATOM     33  C   UNL     1       1.394   0.617  -0.934  0.00  0.00    +0.078 A 
ATOM     34  O   UNL     1      -0.235   2.304  -1.297  0.00  0.00    -0.485 OA
ATOM     35  C   UNL     1      -1.405   2.669  -2.036  0.00  0.00    +0.270 C 
ATOM     36  C   UNL     1      -2.517   1.664  -1.703  0.00  0.00    +0.270 C 
ATOM     37  O   UNL     1      -2.065   0.357  -2.076  0.00  0.00    -0.485 OA
ENDBRANCH  25  28
ENDBRANCH  23  25
ENDBRANCH   1  23
TORSDOF 10
