REMARK  Name = ZINC08223383
REMARK  6 active torsions:
REMARK  status: ('A' for Active; 'I' for Inactive)
REMARK    1  A    between atoms: C_1  and  C_2
REMARK    2  A    between atoms: C_2  and  C_4
REMARK    3  A    between atoms: C_2  and  O_19
REMARK    4  A    between atoms: N_6  and  N_7
REMARK    5  A    between atoms: N_10  and  C_11
REMARK    6  A    between atoms: O_19  and  C_20
REMARK                            x       y       z     vdW  Elec       q    Type
REMARK                         _______ _______ _______ _____ _____    ______ ____
ROOT
ATOM      1  C   UNL     1      -4.752   4.110  -0.265  0.00  0.00    +0.270 C 
ATOM      2  O   UNL     1      -5.794   3.497  -0.367  0.00  0.00    -0.270 OA
ATOM      3  N   UNL     1      -3.585   3.444  -0.170  0.00  0.00    -0.230 N 
ATOM      4  H   UNL     1      -2.752   3.934  -0.087  0.00  0.00    +0.173 HD
ENDROOT
BRANCH   3   5
ATOM      5  N   UNL     1      -3.574   2.043  -0.189  0.00  0.00    -0.218 N 
ATOM      6  C   UNL     1      -2.407   1.376  -0.094  0.00  0.00    +0.320 C 
ATOM      7  O   UNL     1      -2.398   0.161  -0.111  0.00  0.00    -0.251 OA
ATOM      8  N   UNL     1      -1.249   2.057   0.020  0.00  0.00    -0.266 N 
ATOM      9  H   UNL     1      -4.407   1.553  -0.271  0.00  0.00    +0.174 HD
ATOM     10  H   UNL     1      -1.262   3.022   0.118  0.00  0.00    +0.157 HD
BRANCH   8  11
ATOM     11  C   UNL     1      -0.027   1.371  -0.004  0.00  0.00    +0.070 A 
ATOM     12  C   UNL     1       0.065   0.138  -0.632  0.00  0.00    +0.029 A 
ATOM     13  C   UNL     1       1.272  -0.535  -0.660  0.00  0.00    +0.040 A 
ATOM     14  C   UNL     1       2.390   0.021  -0.061  0.00  0.00    +0.126 A 
ATOM     15  C   UNL     1       2.302   1.252   0.567  0.00  0.00    +0.078 A 
ATOM     16  C   UNL     1       1.096   1.928   0.597  0.00  0.00    +0.147 A 
ATOM     17  F   UNL     1       1.010   3.129   1.210  0.00  0.00    -0.203 F 
ATOM     18  F   UNL     1       3.569  -0.639  -0.090  0.00  0.00    -0.205 F 
ENDBRANCH   8  11
ENDBRANCH   3   5
BRANCH   1  20
ATOM     19  C   UNL     1      -4.043   6.150  -1.484  0.00  0.00    +0.062 C 
ATOM     20  C   UNL     1      -4.764   5.617  -0.243  0.00  0.00    +0.257 C 
BRANCH  20  21
ATOM     21  O   UNL     1      -6.114   6.083  -0.240  0.00  0.00    -0.480 OA
BRANCH  21  22
ATOM     22  C   UNL     1      -6.339   7.319   0.280  0.00  0.00    +0.122 A 
ATOM     23  C   UNL     1      -5.284   8.023   0.867  0.00  0.00    +0.046 A 
ATOM     24  C   UNL     1      -5.478   9.261   1.395  0.00  0.00    +0.012 A 
ATOM     25  C   UNL     1      -6.756   9.845   1.353  0.00  0.00    -0.018 A 
ATOM     26  C   UNL     1      -6.991  11.122   1.889  0.00  0.00    +0.008 A 
ATOM     27  C   UNL     1      -8.241  11.657   1.831  0.00  0.00    +0.001 A 
ATOM     28  C   UNL     1      -9.295  10.957   1.246  0.00  0.00    +0.001 A 
ATOM     29  C   UNL     1      -9.105   9.718   0.717  0.00  0.00    +0.008 A 
ATOM     30  C   UNL     1      -7.827   9.133   0.758  0.00  0.00    -0.014 A 
ATOM     31  C   UNL     1      -7.592   7.858   0.217  0.00  0.00    +0.054 A 
ENDBRANCH  21  22
ENDBRANCH  20  21
ENDBRANCH   1  20
TORSDOF 5
