REMARK  Name = ZINC09441978
REMARK  11 active torsions:
REMARK  status: ('A' for Active; 'I' for Inactive)
REMARK    1  A    between atoms: C_1  and  C_2
REMARK    2  A    between atoms: C_2  and  O_3
REMARK    3  A    between atoms: O_3  and  C_4
REMARK    4  A    between atoms: C_4  and  C_6
REMARK    5  A    between atoms: C_7  and  C_15
REMARK    6  A    between atoms: C_12  and  C_14
REMARK    7  A    between atoms: C_15  and  O_16
REMARK    8  A    between atoms: O_16  and  C_17
REMARK    9  A    between atoms: C_17  and  C_19
REMARK   10  A    between atoms: C_19  and  C_20
REMARK   11  A    between atoms: C_20  and  C_21
REMARK                            x       y       z     vdW  Elec       q    Type
REMARK                         _______ _______ _______ _____ _____    ______ ____
ROOT
ATOM      1  C   UNL     1      -2.598   9.222   0.133  0.00  0.00    +0.308 C 
ATOM      2  O   UNL     1      -1.788  10.118   0.134  0.00  0.00    -0.251 OA
ENDROOT
BRANCH   1   3
ATOM      3  O   UNL     1      -3.911   9.503   0.129  0.00  0.00    -0.459 OA
BRANCH   3   4
ATOM      4  C   UNL     1      -4.285  10.906   0.126  0.00  0.00    +0.283 C 
BRANCH   4   6
ATOM      5  C   UNL     1      -6.356  12.246   0.216  0.00  0.00    +0.077 C 
ATOM      6  C   UNL     1      -5.787  11.025   0.121  0.00  0.00    +0.061 C 
ATOM      7  N   UNL     1      -6.550   9.898   0.015  0.00  0.00    -0.269 N 
ATOM      8  C   UNL     1      -7.889   9.906   0.007  0.00  0.00    +0.304 C 
ATOM      9  O   UNL     1      -8.482   8.849  -0.086  0.00  0.00    -0.252 OA
ATOM     10  N   UNL     1      -8.600  11.047   0.094  0.00  0.00    -0.292 N 
ATOM     11  C   UNL     1      -7.870  12.321   0.207  0.00  0.00    +0.110 C 
ATOM     12  C   UNL     1      -8.291  13.211  -0.964  0.00  0.00    +0.033 C 
ATOM     13  H   UNL     1      -6.097   9.043  -0.055  0.00  0.00    +0.156 HD
ATOM     14  H   UNL     1      -9.570  11.030   0.083  0.00  0.00    +0.151 HD
BRANCH   5  15
ATOM     15  C   UNL     1      -5.567  13.415   0.321  0.00  0.00    +0.339 C 
ATOM     16  O   UNL     1      -4.356  13.343   0.220  0.00  0.00    -0.245 OA
BRANCH  15  17
ATOM     17  O   UNL     1      -6.156  14.610   0.534  0.00  0.00    -0.462 OA
BRANCH  17  19
ATOM     18  C   UNL     1      -6.140  17.004   0.869  0.00  0.00    +0.048 C 
ATOM     19  C   UNL     1      -5.298  15.749   0.629  0.00  0.00    +0.229 C 
ENDBRANCH  17  19
ENDBRANCH  15  17
ENDBRANCH   5  15
ENDBRANCH   4   6
ENDBRANCH   3   4
ENDBRANCH   1   3
BRANCH   1  20
ATOM     20  C   UNL     1      -2.135   7.788   0.136  0.00  0.00    +0.128 C 
BRANCH  20  21
ATOM     21  C   UNL     1      -0.605   7.746   0.141  0.00  0.00    +0.085 C 
BRANCH  21  22
ATOM     22  C   UNL     1      -0.141   6.312   0.144  0.00  0.00    +0.111 A 
ATOM     23  N   UNL     1       1.190   6.064   0.148  0.00  0.00    -0.310 N 
ATOM     24  H   UNL     1       1.801   6.817   0.150  0.00  0.00    +0.170 HD
ATOM     25  C   UNL     1       1.708   4.812   0.151  0.00  0.00    +0.260 A 
ATOM     26  O   UNL     1       2.910   4.608   0.155  0.00  0.00    -0.267 OA
ATOM     27  C   UNL     1       0.752   3.742   0.149  0.00  0.00    +0.075 A 
ATOM     28  C   UNL     1       1.038   2.319   0.151  0.00  0.00    -0.023 A 
ATOM     29  C   UNL     1      -0.029   1.485   0.147  0.00  0.00    -0.004 A 
ATOM     30  S   UNL     1      -1.450   2.549   0.136  0.00  0.00    -0.073 S 
ATOM     31  C   UNL     1      -0.614   4.103   0.145  0.00  0.00    +0.116 A 
ATOM     32  N   UNL     1      -1.048   5.360   0.143  0.00  0.00    -0.227 NA
ATOM     33  C   UNL     1      -0.010  -0.012   0.147  0.00  0.00    +0.043 C 
ATOM     34  C   UNL     1       1.405  -0.481  -0.224  0.00  0.00    +0.005 C 
ATOM     35  C   UNL     1       2.416   0.303   0.618  0.00  0.00    +0.005 C 
ATOM     36  C   UNL     1       2.458   1.759   0.156  0.00  0.00    +0.037 C 
ENDBRANCH  21  22
ENDBRANCH  20  21
ENDBRANCH   1  20
TORSDOF 9
