REMARK  Name = ZINC24175637
REMARK  9 active torsions:
REMARK  status: ('A' for Active; 'I' for Inactive)
REMARK    1  A    between atoms: C_1  and  C_2
REMARK    2  A    between atoms: C_3  and  N_9
REMARK    3  A    between atoms: C_10  and  C_12
REMARK    4  A    between atoms: C_12  and  N_13
REMARK    5  A    between atoms: C_14  and  C_16
REMARK    6  A    between atoms: C_16  and  O_17
REMARK    7  A    between atoms: O_17  and  C_18
REMARK    8  A    between atoms: C_18  and  C_20
REMARK    9  A    between atoms: N_34  and  C_35
REMARK                            x       y       z     vdW  Elec       q    Type
REMARK                         _______ _______ _______ _____ _____    ______ ____
ROOT
ATOM      1  O   UNL     1       1.093   2.303   2.673  0.00  0.00    -0.453 OA
ENDROOT
BRANCH   1   2
ATOM      2  C   UNL     1       0.057   2.661   1.898  0.00  0.00    +0.351 C 
ATOM      3  O   UNL     1      -0.230   3.828   1.774  0.00  0.00    -0.246 OA
BRANCH   2   4
ATOM      4  C   UNL     1      -0.749   1.607   1.184  0.00  0.00    +0.210 C 
ATOM      5  C   UNL     1       0.028   1.097  -0.034  0.00  0.00    +0.067 C 
ATOM      6  C   UNL     1      -0.767   1.637  -1.238  0.00  0.00    +0.101 C 
ATOM      7  C   UNL     1      -1.958   2.357  -0.654  0.00  0.00    +0.222 C 
ATOM      8  O   UNL     1      -2.763   2.994  -1.300  0.00  0.00    -0.275 OA
ATOM      9  N   UNL     1      -2.003   2.196   0.670  0.00  0.00    -0.239 N 
ATOM     10  C   UNL     1      -3.058   2.490   1.536  0.00  0.00    +0.051 A 
ATOM     11  C   UNL     1      -3.949   3.521   1.329  0.00  0.00    +0.024 A 
ATOM     12  C   UNL     1      -4.954   3.747   2.254  0.00  0.00    +0.002 A 
ATOM     13  C   UNL     1      -5.066   2.946   3.379  0.00  0.00    +0.001 A 
ATOM     14  C   UNL     1      -4.184   1.906   3.595  0.00  0.00    +0.015 A 
ATOM     15  C   UNL     1      -3.173   1.662   2.671  0.00  0.00    +0.058 A 
ATOM     16  C   UNL     1      -2.223   0.545   2.822  0.00  0.00    +0.250 C 
ATOM     17  O   UNL     1      -2.469  -0.358   3.599  0.00  0.00    -0.270 OA
ATOM     18  N   UNL     1      -1.079   0.520   2.102  0.00  0.00    -0.270 N 
ATOM     19  C   UNL     1      -0.158  -0.610   2.245  0.00  0.00    +0.135 C 
ENDBRANCH   2   4
ENDBRANCH   1   2
BRANCH   1  20
ATOM     20  C   UNL     1       1.824   3.372   3.330  0.00  0.00    +0.327 C 
BRANCH  20  22
ATOM     21  N   UNL     1       3.761   3.592   4.853  0.00  0.00    -0.304 N 
ATOM     22  C   UNL     1       2.944   2.783   4.150  0.00  0.00    +0.251 C 
ATOM     23  O   UNL     1       3.109   1.582   4.178  0.00  0.00    -0.272 OA
ATOM     24  H   UNL     1       3.611   4.682   4.829  0.00  0.00    +0.149 HD
BRANCH  21  25
ATOM     25  C   UNL     1       4.849   3.020   5.650  0.00  0.00    +0.200 C 
BRANCH  25  27
ATOM     26  N   UNL     1       6.659   3.838   7.125  0.00  0.00    -0.284 N 
ATOM     27  C   UNL     1       5.608   4.129   6.333  0.00  0.00    +0.234 C 
ATOM     28  O   UNL     1       5.273   5.283   6.170  0.00  0.00    -0.274 OA
ATOM     29  H   UNL     1       6.908   2.789   7.346  0.00  0.00    +0.155 HD
BRANCH  26  32
ATOM     30  C   UNL     1       8.088   3.325   9.532  0.00  0.00    +0.047 C 
ATOM     31  C   UNL     1       8.148   4.662   8.839  0.00  0.00    -0.011 A 
ATOM     32  C   UNL     1       7.435   4.870   7.665  0.00  0.00    +0.038 A 
ATOM     33  C   UNL     1       7.488   6.105   7.033  0.00  0.00    +0.023 A 
ATOM     34  C   UNL     1       8.254   7.122   7.569  0.00  0.00    +0.003 A 
ATOM     35  C   UNL     1       8.967   6.911   8.734  0.00  0.00    +0.020 A 
ATOM     36  C   UNL     1       8.917   5.681   9.367  0.00  0.00    +0.046 A 
ATOM     37 CL   UNL     1       9.815   5.421  10.830  0.00  0.00    -0.083 Cl
ENDBRANCH  26  32
ENDBRANCH  25  27
ENDBRANCH  21  25
ENDBRANCH  20  22
ENDBRANCH   1  20
TORSDOF 7
