REMARK  Name = ZINC39544501
REMARK  12 active torsions:
REMARK  status: ('A' for Active; 'I' for Inactive)
REMARK    1  A    between atoms: C_1  and  C_2
REMARK    2  A    between atoms: C_2  and  C_3
REMARK    3  A    between atoms: C_3  and  C_4
REMARK    4  A    between atoms: C_3  and  C_5
REMARK    5  A    between atoms: C_3  and  C_6
REMARK    6  A    between atoms: N_14  and  C_18
REMARK    7  A    between atoms: C_18  and  C_19
REMARK    8  A    between atoms: N_21  and  C_22
REMARK    9  A    between atoms: C_24  and  O_30
REMARK   10  A    between atoms: C_26  and  O_28
REMARK   11  A    between atoms: O_28  and  C_29
REMARK   12  A    between atoms: O_30  and  C_31
REMARK                            x       y       z     vdW  Elec       q    Type
REMARK                         _______ _______ _______ _____ _____    ______ ____
ROOT
ATOM      1  C   UNL     1       0.729  -2.035  -1.256  0.00  0.00    -0.005 C 
ATOM      2  C   UNL     1       1.477  -2.536  -0.019  0.00  0.00    +0.006 C 
ATOM      3  C   UNL     1       1.492  -4.067  -0.019  0.00  0.00    +0.035 C 
ATOM      4  C   UNL     1       2.176  -4.569  -1.286  0.00  0.00    +0.113 C 
ATOM      5  C   UNL     1       1.453  -4.060  -2.528  0.00  0.00    +0.035 C 
ATOM      6  C   UNL     1       1.438  -2.529  -2.519  0.00  0.00    +0.006 C 
ATOM      7  C   UNL     1       2.234  -6.080  -1.291  0.00  0.00    +0.247 C 
ATOM      8  O   UNL     1       1.297  -6.850  -1.280  0.00  0.00    -0.273 OA
ATOM      9  N   UNL     1       3.546  -6.390  -1.313  0.00  0.00    -0.215 N 
ATOM     10  C   UNL     1       4.312  -5.292  -1.321  0.00  0.00    +0.310 C 
ATOM     11  O   UNL     1       5.527  -5.316  -1.341  0.00  0.00    -0.252 OA
ATOM     12  N   UNL     1       3.586  -4.159  -1.307  0.00  0.00    -0.285 N 
ATOM     13  H   UNL     1       3.926  -3.250  -1.309  0.00  0.00    +0.151 HD
ENDROOT
BRANCH   1  14
ATOM     14  C   UNL     1       0.704  -0.505  -1.251  0.00  0.00    -0.032 C 
ATOM     15  C   UNL     1      -0.046  -0.003  -2.487  0.00  0.00    +0.011 C 
ATOM     16  C   UNL     1       2.137   0.029  -1.273  0.00  0.00    +0.011 C 
BRANCH  14  18
ATOM     17  C   UNL     1      -0.031   1.519   0.016  0.00  0.00    +0.004 C 
ATOM     18  C   UNL     1      -0.005  -0.011   0.011  0.00  0.00    +0.003 C 
ENDBRANCH  14  18
ENDBRANCH   1  14
BRANCH   9  19
ATOM     19  C   UNL     1       4.069  -7.759  -1.324  0.00  0.00    +0.214 C 
BRANCH  19  20
ATOM     20  C   UNL     1       4.226  -8.225  -2.749  0.00  0.00    +0.235 C 
ATOM     21  O   UNL     1       3.930  -7.486  -3.664  0.00  0.00    -0.274 OA
ATOM     22  N   UNL     1       4.694  -9.462  -3.005  0.00  0.00    -0.284 N 
ATOM     23  H   UNL     1       4.993 -10.028  -2.276  0.00  0.00    +0.155 HD
BRANCH  22  24
ATOM     24  C   UNL     1       4.749  -9.930  -4.323  0.00  0.00    +0.040 A 
ATOM     25  C   UNL     1       4.504 -11.269  -4.595  0.00  0.00    +0.069 A 
ATOM     26  C   UNL     1       4.559 -11.732  -5.900  0.00  0.00    +0.125 A 
ATOM     27  C   UNL     1       4.858 -10.858  -6.934  0.00  0.00    +0.091 A 
ATOM     28  C   UNL     1       5.103  -9.520  -6.663  0.00  0.00    +0.125 A 
ATOM     29  C   UNL     1       5.043  -9.055  -5.359  0.00  0.00    +0.069 A 
BRANCH  28  30
ATOM     30  O   UNL     1       5.397  -8.665  -7.677  0.00  0.00    -0.495 OA
ATOM     31  C   UNL     1       5.437  -9.212  -8.997  0.00  0.00    +0.277 C 
ENDBRANCH  28  30
BRANCH  26  32
ATOM     32  O   UNL     1       4.319 -13.043  -6.167  0.00  0.00    -0.495 OA
ATOM     33  C   UNL     1       4.392 -13.451  -7.534  0.00  0.00    +0.277 C 
ENDBRANCH  26  32
ENDBRANCH  22  24
ENDBRANCH  19  20
ENDBRANCH   9  19
TORSDOF 7
