REMARK  Name = ZINC13233707
REMARK  6 active torsions:
REMARK  status: ('A' for Active; 'I' for Inactive)
REMARK    1  A    between atoms: C_5  and  N_9
REMARK    2  A    between atoms: C_6  and  C_7
REMARK    3  A    between atoms: C_10  and  C_12
REMARK    4  A    between atoms: C_12  and  S_13
REMARK    5  A    between atoms: S_13  and  C_14
REMARK    6  A    between atoms: N_18  and  C_19
REMARK                            x       y       z     vdW  Elec       q    Type
REMARK                         _______ _______ _______ _____ _____    ______ ____
ROOT
ATOM      1  N   UNL     1      -0.075   0.849   0.471  0.00  0.00    -0.283 N 
ATOM      2  C   UNL     1       0.953   1.362  -0.234  0.00  0.00    +0.228 C 
ATOM      3  O   UNL     1       0.748   2.219  -1.068  0.00  0.00    -0.275 OA
ATOM      4  H   UNL     1       0.081   0.124   1.098  0.00  0.00    +0.155 HD
ENDROOT
BRANCH   1   9
ATOM      5  C   UNL     1      -3.674   1.043  -0.346  0.00  0.00    +0.037 A 
ATOM      6  C   UNL     1      -3.926   2.366  -0.050  0.00  0.00    +0.043 A 
ATOM      7  C   UNL     1      -2.910   3.185   0.417  0.00  0.00    +0.042 A 
ATOM      8  C   UNL     1      -1.635   2.684   0.596  0.00  0.00    +0.064 A 
ATOM      9  C   UNL     1      -1.361   1.355   0.297  0.00  0.00    +0.066 A 
ATOM     10  C   UNL     1      -2.388   0.523  -0.175  0.00  0.00    +0.087 A 
ATOM     11 CL   UNL     1      -0.372   3.717   1.188  0.00  0.00    -0.082 Cl
ATOM     12 CL   UNL     1      -5.525   3.009  -0.262  0.00  0.00    -0.083 Cl
BRANCH  10  13
ATOM     13  C   UNL     1      -2.112  -0.890  -0.490  0.00  0.00    +0.388 C 
ATOM     14  O   UNL     1      -0.972  -1.308  -0.453  0.00  0.00    -0.241 OA
ATOM     15  O   UNL     1      -3.123  -1.717  -0.819  0.00  0.00    -0.241 OA
ENDBRANCH  10  13
ENDBRANCH   1   9
BRANCH   2  16
ATOM     16  C   UNL     1       2.356   0.871   0.013  0.00  0.00    +0.173 C 
BRANCH  16  17
ATOM     17  S   UNL     1       3.502   1.745  -1.082  0.00  0.00    -0.075 S 
BRANCH  17  18
ATOM     18  C   UNL     1       5.021   0.997  -0.595  0.00  0.00    +0.210 A 
ATOM     19  N   UNL     1       5.176   0.070   0.327  0.00  0.00    -0.101 NA
ATOM     20  N   UNL     1       6.413  -0.259   0.430  0.00  0.00    -0.022 NA
ATOM     21  N   UNL     1       7.129   0.426  -0.394  0.00  0.00    -0.043 NA
ATOM     22  N   UNL     1       6.249   1.271  -1.094  0.00  0.00    -0.217 N 
BRANCH  22  23
ATOM     23  C   UNL     1       6.589   2.240  -2.139  0.00  0.00    +0.112 C 
ATOM     24  C   UNL     1       7.246   1.514  -3.314  0.00  0.00    +0.027 C 
ATOM     25  C   UNL     1       7.601   2.526  -4.405  0.00  0.00    +0.002 C 
ATOM     26  C   UNL     1       8.572   3.565  -3.840  0.00  0.00    +0.000 C 
ATOM     27  C   UNL     1       7.914   4.292  -2.665  0.00  0.00    +0.002 C 
ATOM     28  C   UNL     1       7.560   3.279  -1.574  0.00  0.00    +0.027 C 
ENDBRANCH  22  23
ENDBRANCH  17  18
ENDBRANCH  16  17
ENDBRANCH   2  16
TORSDOF 6
