REMARK  Name = ZINC21348540
REMARK  7 active torsions:
REMARK  status: ('A' for Active; 'I' for Inactive)
REMARK    1  A    between atoms: C_1  and  C_2
REMARK    2  A    between atoms: C_5  and  N_9
REMARK    3  A    between atoms: C_11  and  C_16
REMARK    4  A    between atoms: N_18  and  C_19
REMARK    5  A    between atoms: C_22  and  N_27
REMARK    6  A    between atoms: C_24  and  O_25
REMARK    7  A    between atoms: O_25  and  C_26
REMARK                            x       y       z     vdW  Elec       q    Type
REMARK                         _______ _______ _______ _____ _____    ______ ____
ROOT
ATOM      1  C   UNL     1       4.414   6.893   0.171  0.00  0.00    +0.222 C 
ATOM      2  O   UNL     1       3.695   7.502   0.934  0.00  0.00    -0.275 OA
ATOM      3  N   UNL     1       5.669   7.326  -0.064  0.00  0.00    -0.282 N 
ATOM      4  H   UNL     1       6.299   6.812  -0.805  0.00  0.00    +0.155 HD
ENDROOT
BRANCH   1   7
ATOM      5  N   UNL     1       2.361   3.883  -0.027  0.00  0.00    -0.271 N 
ATOM      6  C   UNL     1       2.450   5.347  -0.098  0.00  0.00    +0.127 C 
ATOM      7  C   UNL     1       3.905   5.652  -0.516  0.00  0.00    +0.102 C 
ATOM      8  C   UNL     1       4.649   4.394  -0.009  0.00  0.00    +0.110 C 
ATOM      9  C   UNL     1       3.581   3.323   0.035  0.00  0.00    +0.221 C 
ATOM     10  O   UNL     1       3.795   2.132   0.113  0.00  0.00    -0.275 OA
BRANCH   5  15
ATOM     11  C   UNL     1      -2.508   0.971   0.014  0.00  0.00    +0.045 C 
ATOM     12  C   UNL     1      -1.215   1.744   0.000  0.00  0.00    -0.032 A 
ATOM     13  C   UNL     1      -1.237   3.126   0.041  0.00  0.00    +0.006 A 
ATOM     14  C   UNL     1      -0.053   3.838   0.034  0.00  0.00    +0.024 A 
ATOM     15  C   UNL     1       1.161   3.165  -0.019  0.00  0.00    +0.038 A 
ATOM     16  C   UNL     1       1.180   1.777  -0.065  0.00  0.00    +0.043 A 
ATOM     17  C   UNL     1      -0.007   1.070  -0.058  0.00  0.00    +0.046 A 
ATOM     18 CL   UNL     1       0.015  -0.665  -0.115  0.00  0.00    -0.083 Cl
ENDBRANCH   5  15
ENDBRANCH   1   7
BRANCH   3  19
ATOM     19  C   UNL     1       6.171   8.432   0.636  0.00  0.00    +0.076 A 
ATOM     20  C   UNL     1       5.301   9.386   1.145  0.00  0.00    +0.029 A 
ATOM     21  C   UNL     1       5.798  10.472   1.841  0.00  0.00    +0.035 A 
ATOM     22  C   UNL     1       7.162  10.617   2.021  0.00  0.00    +0.130 A 
ATOM     23  C   UNL     1       8.034   9.673   1.511  0.00  0.00    +0.080 A 
ATOM     24  C   UNL     1       7.544   8.578   0.818  0.00  0.00    +0.143 A 
BRANCH  22  25
ATOM     25  N   UNL     1       7.688  11.785   2.761  0.00  0.00    +0.057 N 
ATOM     26  O   UNL     1       8.889  11.915   2.921  0.00  0.00    -0.126 OA
ATOM     27  O   UNL     1       6.921  12.617   3.211  0.00  0.00    -0.126 OA
ENDBRANCH  22  25
BRANCH  24  28
ATOM     28  O   UNL     1       8.401   7.649   0.317  0.00  0.00    -0.493 OA
ATOM     29  C   UNL     1       9.795   7.865   0.542  0.00  0.00    +0.277 C 
ENDBRANCH  24  28
ENDBRANCH   3  19
TORSDOF 5
