REMARK  Name = ZINC40172477
REMARK  12 active torsions:
REMARK  status: ('A' for Active; 'I' for Inactive)
REMARK    1  A    between atoms: C_1  and  C_2
REMARK    2  A    between atoms: C_2  and  C_3
REMARK    3  A    between atoms: C_3  and  C_5
REMARK    4  A    between atoms: C_3  and  N_27
REMARK    5  A    between atoms: N_7  and  C_8
REMARK    6  A    between atoms: C_9  and  C_23
REMARK    7  A    between atoms: C_10  and  C_13
REMARK    8  A    between atoms: C_23  and  O_25
REMARK    9  A    between atoms: O_25  and  C_26
REMARK   10  A    between atoms: C_31  and  S_32
REMARK   11  A    between atoms: S_32  and  C_33
REMARK   12  A    between atoms: C_33  and  C_34
REMARK                            x       y       z     vdW  Elec       q    Type
REMARK                         _______ _______ _______ _____ _____    ______ ____
ROOT
ATOM      1  C   UNL     1      -2.671   1.181  -3.050  0.00  0.00    +0.086 A 
ATOM      2  C   UNL     1      -2.862   2.415  -3.650  0.00  0.00    +0.095 A 
ATOM      3  C   UNL     1      -3.411   2.405  -4.995  0.00  0.00    +0.005 A 
ATOM      4  C   UNL     1      -3.673   1.176  -5.509  0.00  0.00    +0.056 A 
ATOM      5  S   UNL     1      -3.180   0.073  -4.202  0.00  0.00    -0.080 S 
ENDROOT
BRANCH   3   6
ATOM      6  C   UNL     1      -3.668   3.652  -5.755  0.00  0.00    -0.013 A 
ATOM      7  C   UNL     1      -4.377   4.697  -5.164  0.00  0.00    +0.012 A 
ATOM      8  C   UNL     1      -4.616   5.856  -5.874  0.00  0.00    +0.050 A 
ATOM      9  C   UNL     1      -4.152   5.987  -7.175  0.00  0.00    +0.162 A 
ATOM     10  C   UNL     1      -3.441   4.949  -7.769  0.00  0.00    +0.163 A 
ATOM     11  C   UNL     1      -3.196   3.785  -7.059  0.00  0.00    +0.058 A 
ATOM     12  O   UNL     1      -2.971   5.065  -9.041  0.00  0.00    -0.485 OA
ATOM     13  C   UNL     1      -3.550   6.095  -9.850  0.00  0.00    +0.270 C 
ATOM     14  C   UNL     1      -3.602   7.385  -9.019  0.00  0.00    +0.270 C 
ATOM     15  O   UNL     1      -4.402   7.138  -7.858  0.00  0.00    -0.485 OA
ENDBRANCH   3   6
BRANCH   1  18
ATOM     16  C   UNL     1      -2.040  -0.353  -1.360  0.00  0.00    +0.241 C 
ATOM     17  O   UNL     1      -2.452  -1.265  -2.045  0.00  0.00    -0.273 OA
ATOM     18  N   UNL     1      -2.166   0.920  -1.786  0.00  0.00    -0.278 N 
ATOM     19  H   UNL     1      -1.903   1.653  -1.208  0.00  0.00    +0.155 HD
BRANCH  16  20
ATOM     20  C   UNL     1      -1.389  -0.642  -0.033  0.00  0.00    +0.178 C 
BRANCH  20  21
ATOM     21  N   UNL     1      -1.287  -2.091   0.156  0.00  0.00    -0.279 N 
ATOM     22  C   UNL     1      -0.608  -2.960  -0.649  0.00  0.00    +0.216 A 
ATOM     23  N   UNL     1      -0.749  -4.166  -0.155  0.00  0.00    -0.113 NA
ATOM     24  N   UNL     1      -1.540  -4.071   0.997  0.00  0.00    -0.121 NA
ATOM     25  C   UNL     1      -1.852  -2.810   1.173  0.00  0.00    +0.194 A 
ATOM     26  N   UNL     1       0.108  -2.625  -1.791  0.00  0.00    -0.328 N 
ATOM     27  H   UNL     1       0.156  -1.700  -2.080  0.00  0.00    +0.145 HD
ATOM     28  H   UNL     1       0.561  -3.316  -2.300  0.00  0.00    +0.145 HD
BRANCH  25  29
ATOM     29  S   UNL     1      -2.829  -2.157   2.485  0.00  0.00    -0.086 S 
BRANCH  29  30
ATOM     30  C   UNL     1      -3.262  -3.613   3.477  0.00  0.00    +0.074 C 
ATOM     31  C   UNL     1      -4.122  -3.183   4.666  0.00  0.00    +0.016 C 
ENDBRANCH  29  30
ENDBRANCH  25  29
ENDBRANCH  20  21
BRANCH  20  33
ATOM     32  C   UNL     1       0.619  -0.197   1.387  0.00  0.00    +0.006 C 
ATOM     33  C   UNL     1       0.011  -0.025  -0.007  0.00  0.00    +0.031 C 
ENDBRANCH  20  33
ENDBRANCH  16  20
ENDBRANCH   1  18
BRANCH   2  34
ATOM     34  C   UNL     1      -2.530   3.664  -2.965  0.00  0.00    +0.342 C 
ATOM     35  O   UNL     1      -1.417   4.142  -3.077  0.00  0.00    -0.245 OA
BRANCH  34  36
ATOM     36  O   UNL     1      -3.457   4.285  -2.208  0.00  0.00    -0.464 OA
ATOM     37  C   UNL     1      -3.064   5.500  -1.567  0.00  0.00    +0.280 C 
ENDBRANCH  34  36
ENDBRANCH   2  34
TORSDOF 9
