REMARK  Name = ZINC62133020
REMARK  4 active torsions:
REMARK  status: ('A' for Active; 'I' for Inactive)
REMARK    1  A    between atoms: C_3  and  S_16
REMARK    2  A    between atoms: C_6  and  N_7
REMARK    3  A    between atoms: C_10  and  C_13
REMARK    4  A    between atoms: S_16  and  C_19
REMARK                            x       y       z     vdW  Elec       q    Type
REMARK                         _______ _______ _______ _____ _____    ______ ____
ROOT
ATOM      1  C   UNL     1      -0.017   1.378   0.010  0.00  0.00    +0.023 A 
ATOM      2  C   UNL     1       1.171   2.086   0.002  0.00  0.00    +0.029 A 
ATOM      3  C   UNL     1       2.377   1.411  -0.013  0.00  0.00    +0.098 A 
ATOM      4  C   UNL     1       2.396   0.029  -0.020  0.00  0.00    +0.029 A 
ATOM      5  C   UNL     1       1.208  -0.679  -0.012  0.00  0.00    +0.023 A 
ATOM      6  C   UNL     1       0.002  -0.004   0.002  0.00  0.00    +0.014 A 
ENDROOT
BRANCH   6   7
ATOM      7  N   UNL     1      -1.199  -0.720   0.010  0.00  0.00    -0.393 NA
ATOM      8  C   UNL     1      -1.255  -1.635  -1.151  0.00  0.00    +0.086 C 
ATOM      9  C   UNL     1      -1.982  -2.910  -0.685  0.00  0.00    +0.033 C 
ATOM     10  C   UNL     1      -2.300  -2.671   0.809  0.00  0.00    +0.119 C 
ATOM     11  C   UNL     1      -1.270  -1.587   1.214  0.00  0.00    +0.100 C 
ATOM     12  H   UNL     1      -1.983  -0.084  -0.008  0.00  0.00    +0.126 HD
BRANCH  10  13
ATOM     13  C   UNL     1      -2.094  -3.933   1.607  0.00  0.00    +0.361 C 
ATOM     14  O   UNL     1      -1.749  -4.959   1.046  0.00  0.00    -0.246 OA
ATOM     15  O   UNL     1      -2.273  -3.927   2.813  0.00  0.00    -0.246 OA
ENDBRANCH  10  13
ENDBRANCH   6   7
BRANCH   3  16
ATOM     16  S   UNL     1       3.891   2.312  -0.024  0.00  0.00    +0.091 S 
ATOM     17  O   UNL     1       4.828   1.440  -0.640  0.00  0.00    -0.161 OA
ATOM     18  O   UNL     1       3.565   3.562  -0.618  0.00  0.00    -0.161 OA
BRANCH  16  19
ATOM     19  C   UNL     1       4.309   2.543   1.726  0.00  0.00    +0.526 C 
ATOM     20  F   UNL     1       4.455   1.294   2.339  0.00  0.00    -0.150 F 
ATOM     21  F   UNL     1       5.508   3.256   1.829  0.00  0.00    -0.150 F 
ATOM     22  F   UNL     1       3.286   3.256   2.360  0.00  0.00    -0.150 F 
ENDBRANCH  16  19
ENDBRANCH   3  16
TORSDOF 4
