REMARK  Name = ZINC30709965
REMARK  9 active torsions:
REMARK  status: ('A' for Active; 'I' for Inactive)
REMARK    1  A    between atoms: C_1  and  C_2
REMARK    2  A    between atoms: C_3  and  S_29
REMARK    3  A    between atoms: C_8  and  C_10
REMARK    4  A    between atoms: C_13  and  N_19
REMARK    5  A    between atoms: C_14  and  N_16
REMARK    6  A    between atoms: C_21  and  C_28
REMARK    7  A    between atoms: C_24  and  C_27
REMARK    8  A    between atoms: S_29  and  C_30
REMARK    9  A    between atoms: C_30  and  C_31
REMARK                            x       y       z     vdW  Elec       q    Type
REMARK                         _______ _______ _______ _____ _____    ______ ____
ROOT
ATOM      1  C   UNL     1       1.657 -11.416   0.912  0.00  0.00    +0.067 C 
ATOM      2  C   UNL     1       1.154 -10.391  -0.071  0.00  0.00    +0.061 A 
ATOM      3  C   UNL     1       0.476 -10.792  -1.349  0.00  0.00    +0.070 A 
ATOM      4  S   UNL     1       0.129  -9.183  -2.050  0.00  0.00    -0.045 S 
ATOM      5  C   UNL     1       0.836  -8.200  -0.736  0.00  0.00    +0.166 A 
ATOM      6  N   UNL     1       1.289  -9.139   0.140  0.00  0.00    -0.229 NA
ATOM      7  N   UNL     1       0.907  -6.860  -0.638  0.00  0.00    -0.261 N 
ATOM      8  C   UNL     1       0.403  -6.085  -1.618  0.00  0.00    +0.250 C 
ATOM      9  O   UNL     1      -0.117  -6.596  -2.590  0.00  0.00    -0.270 OA
ATOM     10  H   UNL     1       1.378  -6.397   0.242  0.00  0.00    +0.157 HD
ENDROOT
BRANCH   8  11
ATOM     11  C   UNL     1       0.481  -4.617  -1.510  0.00  0.00    +0.039 A 
ATOM     12  C   UNL     1       1.079  -4.027  -0.392  0.00  0.00    +0.015 A 
ATOM     13  C   UNL     1       1.151  -2.667  -0.292  0.00  0.00    +0.026 A 
ATOM     14  C   UNL     1       0.630  -1.862  -1.303  0.00  0.00    +0.060 A 
ATOM     15  C   UNL     1       0.029  -2.441  -2.418  0.00  0.00    +0.148 A 
ATOM     16  C   UNL     1      -0.042  -3.811  -2.527  0.00  0.00    +0.047 A 
BRANCH  14  17
ATOM     17  N   UNL     1       0.706  -0.479  -1.196  0.00  0.00    -0.328 N 
ATOM     18  C   UNL     1       0.002  -0.004   0.002  0.00  0.00    +0.108 C 
ATOM     19  C   UNL     1      -0.019   1.526   0.010  0.00  0.00    +0.003 C 
ATOM     20  C   UNL     1       1.420   2.051  -0.001  0.00  0.00    +0.009 C 
ATOM     21  C   UNL     1       2.145   1.503  -1.232  0.00  0.00    +0.003 C 
ATOM     22  C   UNL     1       2.103  -0.026  -1.205  0.00  0.00    +0.108 C 
ATOM     23  C   UNL     1       3.601   1.975  -1.220  0.00  0.00    +0.009 C 
ATOM     24  C   UNL     1      -0.733   2.020   1.270  0.00  0.00    +0.009 C 
ENDBRANCH  14  17
BRANCH  15  25
ATOM     25  N   UNL     1      -0.529  -1.583  -3.487  0.00  0.00    +0.058 N 
ATOM     26  O   UNL     1      -1.098  -2.131  -4.541  0.00  0.00    -0.126 OA
ATOM     27  O   UNL     1      -0.457  -0.272  -3.385  0.00  0.00    -0.126 OA
ENDBRANCH  15  25
ENDBRANCH   8  11
BRANCH   3  28
ATOM     28  S   UNL     1       0.129 -12.352  -1.962  0.00  0.00    -0.107 S 
BRANCH  28  29
ATOM     29  C   UNL     1      -0.683 -11.906  -3.517  0.00  0.00    +0.170 C 
BRANCH  29  30
ATOM     30  C   UNL     1      -1.087 -13.158  -4.250  0.00  0.00    +0.221 C 
ATOM     31  O   UNL     1      -0.850 -14.246  -3.769  0.00  0.00    -0.275 OA
ATOM     32  N   UNL     1      -1.713 -13.070  -5.441  0.00  0.00    -0.329 N 
ATOM     33  H   UNL     1      -2.008 -13.984  -5.976  0.00  0.00    +0.145 HD
ATOM     34  H   UNL     1      -1.928 -12.083  -5.877  0.00  0.00    +0.145 HD
ENDBRANCH  29  30
ENDBRANCH  28  29
ENDBRANCH   3  28
TORSDOF 6
