REMARK  Name = ZINC25445526
REMARK  10 active torsions:
REMARK  status: ('A' for Active; 'I' for Inactive)
REMARK    1  A    between atoms: C_1  and  C_2
REMARK    2  A    between atoms: C_5  and  S_11
REMARK    3  A    between atoms: C_7  and  N_8
REMARK    4  A    between atoms: S_11  and  N_14
REMARK    5  A    between atoms: N_14  and  C_15
REMARK    6  A    between atoms: C_18  and  C_21
REMARK    7  A    between atoms: C_27  and  C_29
REMARK    8  A    between atoms: C_29  and  C_30
REMARK    9  A    between atoms: C_30  and  C_31
REMARK   10  A    between atoms: C_30  and  C_32
REMARK                            x       y       z     vdW  Elec       q    Type
REMARK                         _______ _______ _______ _____ _____    ______ ____
ROOT
ATOM      1  C   UNL     1       1.453   1.994  -0.107  0.00  0.00    +0.074 A 
ATOM      2  C   UNL     1       2.443   1.278   0.561  0.00  0.00    +0.027 A 
ATOM      3  C   UNL     1       3.757   1.677   0.479  0.00  0.00    +0.015 A 
ATOM      4  C   UNL     1       4.097   2.810  -0.268  0.00  0.00    +0.037 A 
ATOM      5  C   UNL     1       3.099   3.530  -0.932  0.00  0.00    +0.015 A 
ATOM      6  C   UNL     1       1.788   3.122  -0.851  0.00  0.00    +0.027 A 
ENDROOT
BRANCH   4   7
ATOM      7  C   UNL     1       5.503   3.244  -0.353  0.00  0.00    +0.250 C 
ATOM      8  O   UNL     1       5.797   4.230  -1.002  0.00  0.00    -0.270 OA
ATOM      9  N   UNL     1       6.463   2.549   0.288  0.00  0.00    -0.259 N 
ATOM     10  C   UNL     1       7.789   2.959   0.208  0.00  0.00    +0.188 A 
ATOM     11  N   UNL     1       8.327   3.988  -0.433  0.00  0.00    -0.126 NA
ATOM     12  N   UNL     1       9.566   4.218  -0.399  0.00  0.00    -0.145 NA
ATOM     13  C   UNL     1      10.405   3.453   0.272  0.00  0.00    +0.104 A 
ATOM     14  S   UNL     1       9.260   2.253   0.947  0.00  0.00    -0.035 S 
ATOM     15  H   UNL     1       6.198   1.658   0.876  0.00  0.00    +0.157 HD
BRANCH  13  16
ATOM     16  C   UNL     1      11.899   3.562   0.431  0.00  0.00    +0.068 C 
BRANCH  16  17
ATOM     17  C   UNL     1      12.220   4.424   1.654  0.00  0.00    -0.011 C 
ATOM     18  C   UNL     1      13.732   4.432   1.889  0.00  0.00    +0.007 C 
ATOM     19  C   UNL     1      11.734   5.854   1.412  0.00  0.00    +0.007 C 
ENDBRANCH  16  17
ENDBRANCH  13  16
ENDBRANCH   4   7
BRANCH   1  20
ATOM     20  N   UNL     1       0.127   1.585  -0.025  0.00  0.00    -0.098 NA
BRANCH  20  21
ATOM     21  S   UNL     1      -0.260  -0.014  -0.214  0.00  0.00    +0.092 S 
ATOM     22  O   UNL     1       0.580  -0.742   0.671  0.00  0.00    -0.148 OA
ATOM     23  O   UNL     1      -1.677  -0.099  -0.162  0.00  0.00    -0.148 OA
BRANCH  21  28
ATOM     24  C   UNL     1       1.357  -1.591  -5.809  0.00  0.00    +0.046 C 
ATOM     25  C   UNL     1       0.953  -1.198  -4.412  0.00  0.00    -0.020 A 
ATOM     26  C   UNL     1      -0.278  -0.609  -4.188  0.00  0.00    +0.007 A 
ATOM     27  C   UNL     1      -0.650  -0.252  -2.905  0.00  0.00    +0.029 A 
ATOM     28  C   UNL     1       0.212  -0.475  -1.848  0.00  0.00    +0.113 A 
ATOM     29  C   UNL     1       1.442  -1.064  -2.072  0.00  0.00    +0.061 A 
ATOM     30  C   UNL     1       1.813  -1.426  -3.354  0.00  0.00    +0.131 A 
BRANCH  30  31
ATOM     31  N   UNL     1       3.130  -2.057  -3.594  0.00  0.00    +0.057 N 
ATOM     32  O   UNL     1       3.934  -2.152  -2.684  0.00  0.00    -0.126 OA
ATOM     33  O   UNL     1       3.410  -2.481  -4.701  0.00  0.00    -0.126 OA
ENDBRANCH  30  31
ENDBRANCH  21  28
ENDBRANCH  20  21
ENDBRANCH   1  20
TORSDOF 7
