REMARK  Name = ZINC21079537
REMARK  8 active torsions:
REMARK  status: ('A' for Active; 'I' for Inactive)
REMARK    1  A    between atoms: C_1  and  C_2
REMARK    2  A    between atoms: C_2  and  C_23
REMARK    3  A    between atoms: N_3  and  N_4
REMARK    4  A    between atoms: C_7  and  S_10
REMARK    5  A    between atoms: S_10  and  C_11
REMARK    6  A    between atoms: C_11  and  C_12
REMARK    7  A    between atoms: C_12  and  C_13
REMARK    8  A    between atoms: N_15  and  C_16
REMARK                            x       y       z     vdW  Elec       q    Type
REMARK                         _______ _______ _______ _____ _____    ______ ____
ROOT
ATOM      1  N   UNL     1      -3.692  -1.004   0.022  0.00  0.00    -0.205 N 
ATOM      2  C   UNL     1      -3.677  -2.392   0.013  0.00  0.00    +0.232 A 
ATOM      3  N   UNL     1      -4.774  -3.208   0.021  0.00  0.00    -0.186 NA
ATOM      4  C   UNL     1      -4.337  -4.502   0.007  0.00  0.00    +0.210 A 
ATOM      5  N   UNL     1      -3.026  -4.487  -0.009  0.00  0.00    -0.144 NA
ATOM      6  N   UNL     1      -2.608  -3.150  -0.011  0.00  0.00    -0.245 N 
ATOM      7  H   UNL     1      -4.651  -0.465   0.037  0.00  0.00    +0.177 HD
ATOM      8  H   UNL     1      -1.608  -2.692  -0.027  0.00  0.00    +0.192 HD
ENDROOT
BRANCH   1  11
ATOM      9  C   UNL     1      -3.814   1.747   0.041  0.00  0.00    +0.068 C 
ATOM     10  C   UNL     1      -2.501   1.008   0.020  0.00  0.00    +0.063 C 
ATOM     11  N   UNL     1      -2.487  -0.290   0.012  0.00  0.00    -0.184 NA
BRANCH  10  12
ATOM     12  C   UNL     1      -1.233   1.759   0.009  0.00  0.00    +0.001 A 
ATOM     13  C   UNL     1      -1.246   3.156   0.025  0.00  0.00    +0.013 A 
ATOM     14  C   UNL     1      -0.058   3.857   0.009  0.00  0.00    +0.050 A 
ATOM     15  C   UNL     1       1.152   3.179  -0.017  0.00  0.00    +0.166 A 
ATOM     16  C   UNL     1       1.173   1.785  -0.026  0.00  0.00    +0.167 A 
ATOM     17  C   UNL     1      -0.014   1.076  -0.010  0.00  0.00    +0.059 A 
ATOM     18  O   UNL     1       2.473   1.369  -0.051  0.00  0.00    -0.453 OA
ATOM     19  C   UNL     1       3.236   2.515  -0.470  0.00  0.00    +0.466 C 
ATOM     20  O   UNL     1       2.440   3.634  -0.036  0.00  0.00    -0.453 OA
ENDBRANCH  10  12
ENDBRANCH   1  11
BRANCH   4  21
ATOM     21  S   UNL     1      -5.357  -5.939   0.011  0.00  0.00    -0.084 S 
BRANCH  21  22
ATOM     22  C   UNL     1      -4.176  -7.316  -0.014  0.00  0.00    +0.086 C 
BRANCH  22  23
ATOM     23  C   UNL     1      -4.939  -8.642  -0.013  0.00  0.00    +0.107 C 
BRANCH  23  24
ATOM     24  C   UNL     1      -3.957  -9.786  -0.033  0.00  0.00    +0.218 C 
ATOM     25  O   UNL     1      -2.765  -9.562  -0.047  0.00  0.00    -0.275 OA
ATOM     26  N   UNL     1      -4.404 -11.057  -0.036  0.00  0.00    -0.285 N 
ATOM     27  H   UNL     1      -5.481 -11.261   0.053  0.00  0.00    +0.155 HD
BRANCH  26  28
ATOM     28  C   UNL     1      -3.498 -12.117  -0.152  0.00  0.00    +0.034 A 
ATOM     29  C   UNL     1      -3.855 -13.264  -0.849  0.00  0.00    +0.023 A 
ATOM     30  C   UNL     1      -2.958 -14.307  -0.966  0.00  0.00    +0.003 A 
ATOM     31  C   UNL     1      -1.707 -14.214  -0.383  0.00  0.00    +0.015 A 
ATOM     32  C   UNL     1      -1.349 -13.075   0.316  0.00  0.00    +0.020 A 
ATOM     33  C   UNL     1      -2.242 -12.026   0.432  0.00  0.00    +0.038 A 
ATOM     34 BR   UNL     1       0.361 -12.952   1.112  0.00  0.00    -0.050 Br
ENDBRANCH  26  28
ENDBRANCH  23  24
ENDBRANCH  22  23
ENDBRANCH  21  22
ENDBRANCH   4  21
TORSDOF 7
