REMARK  Name = ZINC09220602
REMARK  7 active torsions:
REMARK  status: ('A' for Active; 'I' for Inactive)
REMARK    1  A    between atoms: C_4  and  C_7
REMARK    2  A    between atoms: C_10  and  S_19
REMARK    3  A    between atoms: N_11  and  C_12
REMARK    4  A    between atoms: S_19  and  C_20
REMARK    5  A    between atoms: C_20  and  C_21
REMARK    6  A    between atoms: N_23  and  C_24
REMARK    7  A    between atoms: C_25  and  C_32
REMARK                            x       y       z     vdW  Elec       q    Type
REMARK                         _______ _______ _______ _____ _____    ______ ____
ROOT
ATOM      1  S   UNL     1      -0.860   1.669   1.497  0.00  0.00    -0.076 S 
ENDROOT
BRANCH   1   5
ATOM      2  C   UNL     1       1.053   0.360   4.646  0.00  0.00    +0.169 A 
ATOM      3  N   UNL     1       1.760  -0.127   3.653  0.00  0.00    -0.128 NA
ATOM      4  N   UNL     1       1.245   0.226   2.530  0.00  0.00    -0.122 NA
ATOM      5  C   UNL     1       0.174   0.961   2.735  0.00  0.00    +0.197 A 
ATOM      6  N   UNL     1       0.016   1.077   4.089  0.00  0.00    -0.270 N 
BRANCH   6   7
ATOM      7  C   UNL     1      -0.991   1.778   4.768  0.00  0.00    +0.051 A 
ATOM      8  C   UNL     1      -0.666   2.880   5.548  0.00  0.00    +0.029 A 
ATOM      9  C   UNL     1      -1.660   3.572   6.212  0.00  0.00    +0.040 A 
ATOM     10  C   UNL     1      -2.978   3.161   6.109  0.00  0.00    +0.124 A 
ATOM     11  C   UNL     1      -3.303   2.060   5.335  0.00  0.00    +0.040 A 
ATOM     12  C   UNL     1      -2.313   1.369   4.665  0.00  0.00    +0.029 A 
ATOM     13  F   UNL     1      -3.948   3.836   6.764  0.00  0.00    -0.205 F 
ENDBRANCH   6   7
BRANCH   2  17
ATOM     14  C   UNL     1       1.822  -0.160   8.790  0.00  0.00    +0.000 A 
ATOM     15  C   UNL     1       2.805  -0.461   7.864  0.00  0.00    +0.001 A 
ATOM     16  C   UNL     1       2.562  -0.294   6.516  0.00  0.00    +0.011 A 
ATOM     17  C   UNL     1       1.320   0.179   6.088  0.00  0.00    +0.020 A 
ATOM     18  C   UNL     1       0.335   0.485   7.028  0.00  0.00    +0.011 A 
ATOM     19  C   UNL     1       0.590   0.309   8.372  0.00  0.00    +0.001 A 
ENDBRANCH   2  17
ENDBRANCH   1   5
BRANCH   1  20
ATOM     20  C   UNL     1      -0.013   1.086   0.008  0.00  0.00    +0.173 C 
BRANCH  20  21
ATOM     21  C   UNL     1      -0.742   1.585  -1.213  0.00  0.00    +0.228 C 
ATOM     22  O   UNL     1      -1.736   2.268  -1.088  0.00  0.00    -0.275 OA
ATOM     23  N   UNL     1      -0.288   1.272  -2.443  0.00  0.00    -0.279 N 
ATOM     24  H   UNL     1       0.507   0.726  -2.543  0.00  0.00    +0.155 HD
BRANCH  23  25
ATOM     25  C   UNL     1      -0.959   1.732  -3.566  0.00  0.00    +0.084 A 
ATOM     26  C   UNL     1      -0.648   1.523  -4.899  0.00  0.00    +0.068 A 
ATOM     27  C   UNL     1      -1.530   2.121  -5.902  0.00  0.00    -0.023 A 
ATOM     28  C   UNL     1      -2.560   2.829  -5.406  0.00  0.00    -0.004 A 
ATOM     29  S   UNL     1      -2.384   2.711  -3.643  0.00  0.00    -0.077 S 
ATOM     30  C   UNL     1      -3.418   3.414  -6.496  0.00  0.00    +0.043 C 
ATOM     31  C   UNL     1      -3.035   2.617  -7.762  0.00  0.00    +0.010 C 
ATOM     32  C   UNL     1      -1.598   2.168  -7.429  0.00  0.00    +0.037 C 
BRANCH  26  33
ATOM     33  C   UNL     1       0.520   0.729  -5.292  0.00  0.00    +0.244 C 
ATOM     34  O   UNL     1       0.412  -0.472  -5.457  0.00  0.00    -0.270 OA
ATOM     35  N   UNL     1       1.714   1.329  -5.469  0.00  0.00    -0.325 N 
ATOM     36  H   UNL     1       1.800   2.286  -5.337  0.00  0.00    +0.145 HD
ATOM     37  H   UNL     1       2.487   0.803  -5.728  0.00  0.00    +0.145 HD
ENDBRANCH  26  33
ENDBRANCH  23  25
ENDBRANCH  20  21
ENDBRANCH   1  20
TORSDOF 7
