REMARK  Name = ZINC04127346
REMARK  8 active torsions:
REMARK  status: ('A' for Active; 'I' for Inactive)
REMARK    1  A    between atoms: C_1  and  N_2
REMARK    2  A    between atoms: N_7  and  C_10
REMARK    3  A    between atoms: C_13  and  C_22
REMARK    4  A    between atoms: N_14  and  C_17
REMARK    5  A    between atoms: C_17  and  C_18
REMARK    6  A    between atoms: C_18  and  C_19
REMARK    7  A    between atoms: C_19  and  C_20
REMARK    8  A    between atoms: C_20  and  O_21
REMARK                            x       y       z     vdW  Elec       q    Type
REMARK                         _______ _______ _______ _____ _____    ______ ____
ROOT
ATOM      1  C   UNL     1      -2.358   1.931  -0.434  0.00  0.00    +0.155 C 
ATOM      2  N   UNL     1      -0.995   2.299  -0.043  0.00  0.00    -0.280 N 
ATOM      3  C   UNL     1       0.014   1.348  -0.068  0.00  0.00    +0.170 A 
ATOM      4  C   UNL     1       1.304   1.727   0.303  0.00  0.00    +0.157 A 
ATOM      5  C   UNL     1       1.541   3.055   0.694  0.00  0.00    +0.283 A 
ATOM      6  O   UNL     1       2.660   3.409   1.022  0.00  0.00    -0.265 OA
ATOM      7  N   UNL     1       0.518   3.934   0.702  0.00  0.00    -0.262 N 
ATOM      8  C   UNL     1      -0.722   3.560   0.342  0.00  0.00    +0.333 A 
ATOM      9  O   UNL     1      -1.618   4.381   0.361  0.00  0.00    -0.246 OA
ATOM     10  C   UNL     1       0.762   5.320   1.109  0.00  0.00    +0.157 C 
ATOM     11  N   UNL     1       2.094   0.594   0.180  0.00  0.00    -0.277 N 
ATOM     12  C   UNL     1       3.373   0.085   0.321  0.00  0.00    +0.117 A 
ATOM     13  C   UNL     1       3.351  -1.202  -0.014  0.00  0.00    +0.045 A 
ATOM     14  N   UNL     1       2.058  -1.531  -0.374  0.00  0.00    -0.313 N 
ATOM     15  C   UNL     1       1.287  -0.406  -0.248  0.00  0.00    +0.218 A 
ATOM     16  N   UNL     1       0.054   0.058  -0.391  0.00  0.00    -0.193 NA
ENDROOT
BRANCH  13  17
ATOM     17  C   UNL     1       4.532  -2.138  -0.004  0.00  0.00    +0.013 C 
ATOM     18  C   UNL     1       4.636  -2.842  -1.358  0.00  0.00    +0.016 C 
ATOM     19  C   UNL     1       5.835  -3.793  -1.348  0.00  0.00    -0.010 C 
ATOM     20  C   UNL     1       7.115  -2.997  -1.087  0.00  0.00    +0.007 C 
ATOM     21  C   UNL     1       7.011  -2.292   0.267  0.00  0.00    -0.010 C 
ATOM     22  C   UNL     1       5.812  -1.341   0.257  0.00  0.00    +0.016 C 
ATOM     23  C   UNL     1       6.825  -3.335   1.371  0.00  0.00    +0.007 C 
ATOM     24  C   UNL     1       5.545  -4.131   1.111  0.00  0.00    -0.010 C 
ATOM     25  C   UNL     1       5.649  -4.835  -0.243  0.00  0.00    +0.007 C 
ATOM     26  C   UNL     1       4.346  -3.180   1.101  0.00  0.00    +0.016 C 
ENDBRANCH  13  17
BRANCH  14  27
ATOM     27  C   UNL     1       1.594  -2.850  -0.812  0.00  0.00    +0.125 C 
BRANCH  27  28
ATOM     28  C   UNL     1       1.575  -2.902  -2.341  0.00  0.00    +0.024 C 
BRANCH  28  29
ATOM     29  C   UNL     1       0.979  -4.235  -2.798  0.00  0.00    +0.029 C 
BRANCH  29  30
ATOM     30  C   UNL     1       0.960  -4.287  -4.327  0.00  0.00    +0.156 C 
BRANCH  30  31
ATOM     31  O   UNL     1       0.404  -5.532  -4.755  0.00  0.00    -0.395 OA
ATOM     32  H   UNL     1       0.361  -5.634  -5.715  0.00  0.00    +0.209 HD
ENDBRANCH  30  31
ENDBRANCH  29  30
ENDBRANCH  28  29
ENDBRANCH  27  28
ENDBRANCH  14  27
TORSDOF 6
