REMARK  Name = ZINC57841837
REMARK  9 active torsions:
REMARK  status: ('A' for Active; 'I' for Inactive)
REMARK    1  A    between atoms: C_1  and  C_2
REMARK    2  A    between atoms: C_2  and  C_3
REMARK    3  A    between atoms: C_2  and  C_4
REMARK    4  A    between atoms: C_2  and  O_5
REMARK    5  A    between atoms: O_5  and  C_6
REMARK    6  A    between atoms: N_8  and  C_9
REMARK    7  A    between atoms: C_12  and  C_15
REMARK    8  A    between atoms: C_20  and  C_23
REMARK    9  A    between atoms: C_26  and  O_29
REMARK                            x       y       z     vdW  Elec       q    Type
REMARK                         _______ _______ _______ _____ _____    ______ ____
ROOT
ATOM      1  C   UNL     1       7.893   1.287  -3.474  0.00  0.00    +0.247 C 
ATOM      2  O   UNL     1       8.313   2.294  -2.937  0.00  0.00    -0.270 OA
ATOM      3  N   UNL     1       8.685   0.588  -4.311  0.00  0.00    -0.293 N 
ATOM      4  C   UNL     1      10.023   1.078  -4.686  0.00  0.00    +0.113 C 
ATOM      5  C   UNL     1      11.054   0.062  -4.188  0.00  0.00    +0.054 C 
ATOM      6  C   UNL     1      10.618  -1.333  -4.524  0.00  0.00    -0.041 C 
ATOM      7  C   UNL     1       9.387  -1.673  -4.824  0.00  0.00    -0.004 C 
ATOM      8  C   UNL     1       8.252  -0.696  -4.880  0.00  0.00    +0.135 C 
ENDROOT
BRANCH   1  12
ATOM      9  C   UNL     1       3.926  -0.025  -2.714  0.00  0.00    +0.036 A 
ATOM     10  C   UNL     1       4.633   0.654  -1.728  0.00  0.00    +0.024 A 
ATOM     11  C   UNL     1       5.919   1.081  -1.971  0.00  0.00    +0.015 A 
ATOM     12  C   UNL     1       6.514   0.831  -3.210  0.00  0.00    +0.037 A 
ATOM     13  C   UNL     1       5.801   0.148  -4.199  0.00  0.00    +0.015 A 
ATOM     14  C   UNL     1       4.517  -0.280  -3.948  0.00  0.00    +0.024 A 
BRANCH   9  17
ATOM     15  C   UNL     1       1.800   0.292  -1.704  0.00  0.00    +0.405 C 
ATOM     16  O   UNL     1       2.217   1.298  -1.166  0.00  0.00    -0.226 OA
ATOM     17  N   UNL     1       2.623  -0.456  -2.465  0.00  0.00    -0.251 N 
ATOM     18  H   UNL     1       2.310  -1.294  -2.839  0.00  0.00    +0.158 HD
BRANCH  15  19
ATOM     19  O   UNL     1       0.515  -0.076  -1.540  0.00  0.00    -0.444 OA
BRANCH  19  21
ATOM     20  C   UNL     1      -0.349   2.171  -1.321  0.00  0.00    +0.055 C 
ATOM     21  C   UNL     1      -0.301   0.764  -0.721  0.00  0.00    +0.107 C 
ATOM     22  C   UNL     1       0.291   0.831   0.689  0.00  0.00    +0.055 C 
ATOM     23  C   UNL     1      -1.717   0.190  -0.652  0.00  0.00    +0.055 C 
ENDBRANCH  19  21
ENDBRANCH  15  19
ENDBRANCH   9  17
ENDBRANCH   1  12
BRANCH   6  24
ATOM     24  C   UNL     1      11.645  -2.396  -4.519  0.00  0.00    -0.022 A 
ATOM     25  C   UNL     1      12.277  -2.752  -3.326  0.00  0.00    +0.012 A 
ATOM     26  C   UNL     1      13.235  -3.744  -3.325  0.00  0.00    +0.046 A 
ATOM     27  C   UNL     1      13.570  -4.389  -4.508  0.00  0.00    +0.117 A 
ATOM     28  C   UNL     1      12.943  -4.038  -5.697  0.00  0.00    +0.046 A 
ATOM     29  C   UNL     1      11.980  -3.051  -5.705  0.00  0.00    +0.012 A 
BRANCH  27  30
ATOM     30  O   UNL     1      14.514  -5.367  -4.503  0.00  0.00    -0.507 OA
ATOM     31  H   UNL     1      14.161  -6.254  -4.349  0.00  0.00    +0.292 HD
ENDBRANCH  27  30
ENDBRANCH   6  24
TORSDOF 6
