REMARK  Name = ZINC41006296
REMARK  7 active torsions:
REMARK  status: ('A' for Active; 'I' for Inactive)
REMARK    1  A    between atoms: C_1  and  C_2
REMARK    2  A    between atoms: C_5  and  O_8
REMARK    3  A    between atoms: O_8  and  C_9
REMARK    4  A    between atoms: C_9  and  C_10
REMARK    5  A    between atoms: C_19  and  C_21
REMARK    6  A    between atoms: C_21  and  O_22
REMARK    7  A    between atoms: O_22  and  C_23
REMARK                            x       y       z     vdW  Elec       q    Type
REMARK                         _______ _______ _______ _____ _____    ______ ____
ROOT
ATOM      1  C   UNL     1       0.090  -6.277   1.043  0.00  0.00    +0.193 A 
ATOM      2  N   UNL     1      -0.956  -7.049   0.939  0.00  0.00    -0.128 NA
ATOM      3  N   UNL     1      -0.586  -8.271   0.769  0.00  0.00    -0.120 NA
ATOM      4  C   UNL     1       0.711  -8.331   0.759  0.00  0.00    +0.220 A 
ATOM      5  N   UNL     1       1.216  -7.066   0.927  0.00  0.00    -0.185 N 
ATOM      6  N   UNL     1       2.599  -6.945   0.934  0.00  0.00    -0.140 NA
ATOM      7  C   UNL     1       3.370  -7.988   0.785  0.00  0.00    +0.188 A 
ATOM      8  S   UNL     1       2.184  -9.313   0.621  0.00  0.00    -0.011 S 
ATOM      9  N   UNL     1       4.758  -8.052   0.767  0.00  0.00    -0.260 N 
ATOM     10  C   UNL     1       5.376  -9.238   0.599  0.00  0.00    +0.256 C 
ATOM     11  O   UNL     1       4.721 -10.250   0.464  0.00  0.00    -0.272 OA
ATOM     12  H   UNL     1       5.282  -7.243   0.875  0.00  0.00    +0.157 HD
ENDROOT
BRANCH   1  13
ATOM     13  C   UNL     1       0.072  -4.785   1.249  0.00  0.00    +0.307 C 
BRANCH  13  14
ATOM     14  O   UNL     1       0.057  -4.129  -0.021  0.00  0.00    -0.484 OA
BRANCH  14  19
ATOM     15  C   UNL     1      -0.018   1.503   0.010  0.00  0.00    +0.044 C 
ATOM     16  C   UNL     1       0.002  -0.004   0.002  0.00  0.00    -0.050 A 
ATOM     17  C   UNL     1       0.006  -0.688  -1.200  0.00  0.00    +0.007 A 
ATOM     18  C   UNL     1       0.024  -2.069  -1.210  0.00  0.00    +0.046 A 
ATOM     19  C   UNL     1       0.039  -2.770  -0.013  0.00  0.00    +0.121 A 
ATOM     20  C   UNL     1       0.036  -2.082   1.191  0.00  0.00    +0.046 A 
ATOM     21  C   UNL     1       0.023  -0.701   1.196  0.00  0.00    +0.007 A 
ENDBRANCH  14  19
ENDBRANCH  13  14
ENDBRANCH   1  13
BRANCH  10  22
ATOM     22  C   UNL     1       6.881  -9.308   0.580  0.00  0.00    +0.324 C 
BRANCH  22  23
ATOM     23  O   UNL     1       7.293 -10.663   0.390  0.00  0.00    -0.483 OA
BRANCH  23  24
ATOM     24  C   UNL     1       8.631 -10.901   0.348  0.00  0.00    +0.121 A 
ATOM     25  C   UNL     1       9.528  -9.853   0.492  0.00  0.00    +0.047 A 
ATOM     26  C   UNL     1      10.887 -10.097   0.450  0.00  0.00    +0.023 A 
ATOM     27  C   UNL     1      11.354 -11.386   0.262  0.00  0.00    +0.041 A 
ATOM     28  C   UNL     1      10.460 -12.433   0.117  0.00  0.00    +0.023 A 
ATOM     29  C   UNL     1       9.101 -12.194   0.166  0.00  0.00    +0.047 A 
ATOM     30 CL   UNL     1      13.062 -11.690   0.208  0.00  0.00    -0.084 Cl
ENDBRANCH  23  24
ENDBRANCH  22  23
ENDBRANCH  10  22
TORSDOF 6
