REMARK  Name = ZINC10385976
REMARK  12 active torsions:
REMARK  status: ('A' for Active; 'I' for Inactive)
REMARK    1  A    between atoms: C_1  and  C_2
REMARK    2  A    between atoms: C_2  and  C_3
REMARK    3  A    between atoms: C_3  and  C_4
REMARK    4  A    between atoms: C_4  and  N_5
REMARK    5  A    between atoms: N_10  and  C_11
REMARK    6  A    between atoms: C_11  and  C_12
REMARK    7  A    between atoms: C_12  and  C_14
REMARK    8  A    between atoms: C_12  and  O_23
REMARK    9  A    between atoms: C_14  and  O_15
REMARK   10  A    between atoms: O_15  and  C_16
REMARK   11  A    between atoms: N_26  and  C_31
REMARK   12  A    between atoms: N_29  and  C_30
REMARK                            x       y       z     vdW  Elec       q    Type
REMARK                         _______ _______ _______ _____ _____    ______ ____
ROOT
ATOM      1  N   UNL     1       2.050   6.965   0.019  0.00  0.00    -0.315 N 
ATOM      2  C   UNL     1       1.446   5.728   0.019  0.00  0.00    +0.198 A 
ATOM      3  N   UNL     1       0.146   5.516   0.030  0.00  0.00    -0.196 NA
ATOM      4  C   UNL     1      -0.102   4.205   0.026  0.00  0.00    +0.170 A 
ATOM      5  C   UNL     1       1.123   3.547   0.010  0.00  0.00    +0.153 A 
ATOM      6  N   UNL     1       2.098   4.535   0.006  0.00  0.00    -0.304 N 
ATOM      7  C   UNL     1       1.147   2.141   0.003  0.00  0.00    +0.282 A 
ATOM      8  O   UNL     1       2.209   1.543  -0.011  0.00  0.00    -0.265 OA
ATOM      9  N   UNL     1      -0.018   1.461   0.010  0.00  0.00    -0.262 N 
ATOM     10  C   UNL     1      -1.197   2.107   0.019  0.00  0.00    +0.333 A 
ATOM     11  O   UNL     1      -2.227   1.461   0.020  0.00  0.00    -0.246 OA
ATOM     12  N   UNL     1      -1.264   3.451   0.033  0.00  0.00    -0.280 N 
ATOM     13  C   UNL     1      -2.569   4.118   0.049  0.00  0.00    +0.155 C 
ATOM     14  C   UNL     1       0.002  -0.004   0.002  0.00  0.00    +0.157 C 
ATOM     15  H   UNL     1       3.018   7.032   0.010  0.00  0.00    +0.149 HD
ENDROOT
BRANCH   1  16
ATOM     16  C   UNL     1       1.232   8.180   0.034  0.00  0.00    +0.104 C 
BRANCH  16  17
ATOM     17  C   UNL     1       2.143   9.408   0.031  0.00  0.00    +0.018 C 
BRANCH  17  19
ATOM     18  C   UNL     1       2.200  11.906   0.043  0.00  0.00    +0.004 C 
ATOM     19  C   UNL     1       1.288  10.677   0.046  0.00  0.00    -0.002 C 
ENDBRANCH  17  19
ENDBRANCH  16  17
ENDBRANCH   1  16
BRANCH   6  20
ATOM     20  C   UNL     1       3.549   4.332  -0.009  0.00  0.00    +0.160 C 
BRANCH  20  21
ATOM     21  C   UNL     1       4.040   4.269  -1.456  0.00  0.00    +0.172 C 
BRANCH  21  22
ATOM     22  O   UNL     1       3.490   3.116  -2.096  0.00  0.00    -0.387 OA
ATOM     23  H   UNL     1       3.733   2.280  -1.676  0.00  0.00    +0.210 HD
ENDBRANCH  21  22
BRANCH  21  24
ATOM     24  C   UNL     1       5.568   4.183  -1.473  0.00  0.00    +0.262 C 
BRANCH  24  25
ATOM     25  O   UNL     1       6.033   4.241  -2.823  0.00  0.00    -0.489 OA
BRANCH  25  26
ATOM     26  C   UNL     1       7.377   4.176  -3.015  0.00  0.00    +0.121 A 
ATOM     27  C   UNL     1       8.230   4.064  -1.927  0.00  0.00    +0.047 A 
ATOM     28  C   UNL     1       9.595   3.993  -2.125  0.00  0.00    +0.023 A 
ATOM     29  C   UNL     1      10.113   4.045  -3.407  0.00  0.00    +0.041 A 
ATOM     30  C   UNL     1       9.264   4.162  -4.494  0.00  0.00    +0.023 A 
ATOM     31  C   UNL     1       7.898   4.227  -4.300  0.00  0.00    +0.047 A 
ATOM     32 CL   UNL     1      11.829   3.961  -3.653  0.00  0.00    -0.084 Cl
ENDBRANCH  25  26
ENDBRANCH  24  25
ENDBRANCH  21  24
ENDBRANCH  20  21
ENDBRANCH   6  20
TORSDOF 9
