REMARK  Name = ZINC12884161
REMARK  11 active torsions:
REMARK  status: ('A' for Active; 'I' for Inactive)
REMARK    1  A    between atoms: C_1  and  C_2
REMARK    2  A    between atoms: C_2  and  C_3
REMARK    3  A    between atoms: C_3  and  C_4
REMARK    4  A    between atoms: C_4  and  N_5
REMARK    5  A    between atoms: C_6  and  N_34
REMARK    6  A    between atoms: C_7  and  N_14
REMARK    7  A    between atoms: N_14  and  C_15
REMARK    8  A    between atoms: C_15  and  C_16
REMARK    9  A    between atoms: C_17  and  C_19
REMARK   10  A    between atoms: N_24  and  S_26
REMARK   11  A    between atoms: S_26  and  C_29
REMARK                            x       y       z     vdW  Elec       q    Type
REMARK                         _______ _______ _______ _____ _____    ______ ____
ROOT
ATOM      1  N   UNL     1      -3.808   8.419   4.917  0.00  0.00    -0.264 N 
ATOM      2  C   UNL     1      -3.251   7.652   3.957  0.00  0.00    +0.224 C 
ATOM      3  O   UNL     1      -3.925   6.835   3.365  0.00  0.00    -0.275 OA
ENDROOT
BRANCH   1   6
ATOM      4  N   UNL     1      -2.571  11.739   5.891  0.00  0.00    -0.280 N 
ATOM      5  C   UNL     1      -3.325  10.767   5.275  0.00  0.00    +0.127 A 
ATOM      6  C   UNL     1      -3.053   9.439   5.533  0.00  0.00    +0.140 A 
ATOM      7  C   UNL     1      -2.012   9.120   6.425  0.00  0.00    +0.277 A 
ATOM      8  O   UNL     1      -1.754   7.955   6.675  0.00  0.00    -0.266 OA
ATOM      9  N   UNL     1      -1.301  10.110   6.998  0.00  0.00    -0.273 N 
ATOM     10  H   UNL     1      -0.556   9.884   7.626  0.00  0.00    +0.173 HD
ATOM     11  C   UNL     1      -1.580  11.399   6.735  0.00  0.00    +0.331 A 
ATOM     12  O   UNL     1      -0.925  12.273   7.269  0.00  0.00    -0.246 OA
BRANCH   5  13
ATOM     13  N   UNL     1      -4.338  11.115   4.413  0.00  0.00    -0.343 N 
ATOM     14  H   UNL     1      -4.801  10.429   3.908  0.00  0.00    +0.144 HD
ATOM     15  H   UNL     1      -4.589  12.046   4.311  0.00  0.00    +0.144 HD
ENDBRANCH   5  13
BRANCH   4  16
ATOM     16  C   UNL     1      -2.850  13.153   5.627  0.00  0.00    +0.128 C 
BRANCH  16  17
ATOM     17  C   UNL     1      -3.877  13.668   6.637  0.00  0.00    +0.021 C 
BRANCH  17  19
ATOM     18  C   UNL     1      -5.195  15.660   7.371  0.00  0.00    +0.004 C 
ATOM     19  C   UNL     1      -4.168  15.145   6.361  0.00  0.00    -0.002 C 
ENDBRANCH  17  19
ENDBRANCH  16  17
ENDBRANCH   4  16
ENDBRANCH   1   6
BRANCH   2  20
ATOM     20  C   UNL     1      -1.790   7.811   3.620  0.00  0.00    +0.091 C 
ATOM     21  C   UNL     1      -1.641   8.760   2.429  0.00  0.00    +0.015 C 
ATOM     22  C   UNL     1      -0.157   8.948   2.106  0.00  0.00    +0.018 C 
ATOM     23  C   UNL     1       0.454   7.599   1.730  0.00  0.00    +0.109 C 
ATOM     24  N   UNL     1       0.187   6.636   2.806  0.00  0.00    -0.175 NA
ATOM     25  C   UNL     1      -1.198   6.446   3.256  0.00  0.00    +0.122 C 
BRANCH  24  26
ATOM     26  S   UNL     1       1.425   5.785   3.503  0.00  0.00    +0.067 S 
ATOM     27  O   UNL     1       0.981   5.411   4.800  0.00  0.00    -0.152 OA
ATOM     28  O   UNL     1       2.608   6.543   3.292  0.00  0.00    -0.152 OA
BRANCH  26  29
ATOM     29  C   UNL     1       1.613   4.292   2.585  0.00  0.00    +0.143 A 
ATOM     30  C   UNL     1       2.396   4.046   1.506  0.00  0.00    +0.036 A 
ATOM     31  C   UNL     1       2.380   2.785   0.940  0.00  0.00    +0.010 A 
ATOM     32  C   UNL     1       1.590   1.829   1.486  0.00  0.00    +0.047 A 
ATOM     33  S   UNL     1       0.827   2.710   2.839  0.00  0.00    -0.077 S 
ENDBRANCH  26  29
ENDBRANCH  24  26
ENDBRANCH   2  20
BRANCH   1  34
ATOM     34  C   UNL     1      -5.199   8.192   5.320  0.00  0.00    +0.110 C 
ATOM     35  C   UNL     1      -5.248   7.095   6.385  0.00  0.00    +0.025 C 
ENDBRANCH   1  34
TORSDOF 9
