REMARK  Name = ZINC32542482
REMARK  11 active torsions:
REMARK  status: ('A' for Active; 'I' for Inactive)
REMARK    1  A    between atoms: C_1  and  C_2
REMARK    2  A    between atoms: C_2  and  C_4
REMARK    3  A    between atoms: C_2  and  N_14
REMARK    4  A    between atoms: C_7  and  S_10
REMARK    5  A    between atoms: S_10  and  N_13
REMARK    6  A    between atoms: N_14  and  C_15
REMARK    7  A    between atoms: N_14  and  C_16
REMARK    8  A    between atoms: C_16  and  C_17
REMARK    9  A    between atoms: N_22  and  C_23
REMARK   10  A    between atoms: C_26  and  O_29
REMARK   11  A    between atoms: O_29  and  C_30
REMARK                            x       y       z     vdW  Elec       q    Type
REMARK                         _______ _______ _______ _____ _____    ______ ____
ROOT
ATOM      1  N   UNL     1      -3.531   4.481   4.779  0.00  0.00    +0.388 N 
ATOM      2  C   UNL     1      -4.285   4.718   3.540  0.00  0.00    -0.095 C 
ATOM      3  H   UNL     1      -2.610   5.080   4.733  0.00  0.00    -0.081 HD
ENDROOT
BRANCH   1   5
ATOM      4  C   UNL     1      -2.282   2.880   6.146  0.00  0.00    -0.008 C 
ATOM      5  C   UNL     1      -3.147   3.068   4.898  0.00  0.00    -0.041 C 
BRANCH   5   6
ATOM      6  C   UNL     1      -2.365   2.655   3.678  0.00  0.00    -0.061 A 
ATOM      7  C   UNL     1      -2.574   1.412   3.112  0.00  0.00    +0.004 A 
ATOM      8  C   UNL     1      -1.857   1.033   1.992  0.00  0.00    +0.029 A 
ATOM      9  C   UNL     1      -0.931   1.897   1.439  0.00  0.00    +0.105 A 
ATOM     10  C   UNL     1      -0.718   3.139   2.009  0.00  0.00    +0.029 A 
ATOM     11  C   UNL     1      -1.439   3.520   3.125  0.00  0.00    +0.004 A 
BRANCH   9  12
ATOM     12  S   UNL     1      -0.017   1.415   0.012  0.00  0.00    +0.056 S 
ATOM     13  O   UNL     1      -0.005  -0.006  -0.001  0.00  0.00    -0.153 OA
ATOM     14  O   UNL     1       1.176   2.187   0.013  0.00  0.00    -0.153 OA
BRANCH  12  15
ATOM     15  N   UNL     1      -0.889   1.892  -1.313  0.00  0.00    -0.204 NA
ATOM     16  H   UNL     1      -0.350   1.607  -2.228  0.00  0.00    +0.144 HD
ATOM     17  H   UNL     1      -1.022   2.983  -1.290  0.00  0.00    +0.144 HD
ENDBRANCH  12  15
ENDBRANCH   9  12
ENDBRANCH   5   6
ENDBRANCH   1   5
BRANCH   1  18
ATOM     18  C   UNL     1      -4.297   4.920   5.953  0.00  0.00    +0.019 C 
BRANCH  18  19
ATOM     19  C   UNL     1      -4.461   6.417   5.915  0.00  0.00    +0.204 C 
ATOM     20  O   UNL     1      -3.988   7.056   4.999  0.00  0.00    -0.277 OA
ATOM     21  N   UNL     1      -5.135   7.047   6.898  0.00  0.00    -0.241 N 
ATOM     22  C   UNL     1      -5.282   8.386   6.863  0.00  0.00    +0.310 C 
ATOM     23  O   UNL     1      -4.808   9.026   5.946  0.00  0.00    -0.252 OA
ATOM     24  N   UNL     1      -5.956   9.015   7.847  0.00  0.00    -0.269 N 
ATOM     25  H   UNL     1      -5.564   6.467   7.728  0.00  0.00    +0.159 HD
ATOM     26  H   UNL     1      -6.450   8.430   8.636  0.00  0.00    +0.156 HD
BRANCH  24  27
ATOM     27  C   UNL     1      -6.027  10.415   7.863  0.00  0.00    +0.035 A 
ATOM     28  C   UNL     1      -6.029  11.096   9.073  0.00  0.00    +0.027 A 
ATOM     29  C   UNL     1      -6.095  12.475   9.088  0.00  0.00    +0.047 A 
ATOM     30  C   UNL     1      -6.168  13.180   7.895  0.00  0.00    +0.120 A 
ATOM     31  C   UNL     1      -6.170  12.499   6.686  0.00  0.00    +0.047 A 
ATOM     32  C   UNL     1      -6.099  11.120   6.670  0.00  0.00    +0.027 A 
BRANCH  30  33
ATOM     33  O   UNL     1      -6.237  14.537   7.911  0.00  0.00    -0.495 OA
ATOM     34  C   UNL     1      -6.230  15.173   9.191  0.00  0.00    +0.277 C 
ENDBRANCH  30  33
ENDBRANCH  24  27
ENDBRANCH  18  19
ENDBRANCH   1  18
TORSDOF 8
