REMARK  Name = ZINC63435296
REMARK  9 active torsions:
REMARK  status: ('A' for Active; 'I' for Inactive)
REMARK    1  A    between atoms: C_1  and  C_2
REMARK    2  A    between atoms: C_6  and  C_8
REMARK    3  A    between atoms: C_8  and  C_9
REMARK    4  A    between atoms: C_8  and  C_10
REMARK    5  A    between atoms: C_8  and  C_11
REMARK    6  A    between atoms: C_11  and  N_12
REMARK    7  A    between atoms: C_13  and  C_15
REMARK    8  A    between atoms: N_17  and  C_18
REMARK    9  A    between atoms: C_22  and  N_24
REMARK                            x       y       z     vdW  Elec       q    Type
REMARK                         _______ _______ _______ _____ _____    ______ ____
ROOT
ATOM      1  C   UNL     1       0.106  -7.199   4.736  0.00  0.00    +0.303 C 
ATOM      2  O   UNL     1       0.124  -6.593   5.787  0.00  0.00    -0.265 OA
ATOM      3  N   UNL     1       0.120  -8.547   4.735  0.00  0.00    -0.278 N 
ATOM      4  H   UNL     1       0.041  -9.032   3.899  0.00  0.00    +0.155 HD
ENDROOT
BRANCH   3   5
ATOM      5  C   UNL     1       0.250  -9.245   5.938  0.00  0.00    +0.036 A 
ATOM      6  C   UNL     1      -0.338  -8.750   7.097  0.00  0.00    +0.023 A 
ATOM      7  C   UNL     1      -0.209  -9.440   8.287  0.00  0.00    +0.004 A 
ATOM      8  C   UNL     1       0.503 -10.623   8.329  0.00  0.00    +0.024 A 
ATOM      9  C   UNL     1       1.093 -11.123   7.176  0.00  0.00    +0.040 A 
ATOM     10  C   UNL     1       0.962 -10.436   5.978  0.00  0.00    +0.047 A 
BRANCH   9  11
ATOM     11  N   UNL     1       1.815 -12.321   7.220  0.00  0.00    -0.254 N 
ATOM     12  C   UNL     1       1.923 -13.208   8.389  0.00  0.00    +0.134 C 
ATOM     13  C   UNL     1       2.818 -14.361   7.896  0.00  0.00    +0.125 C 
ATOM     14  N   UNL     1       3.120 -14.002   6.502  0.00  0.00    -0.297 N 
ATOM     15  C   UNL     1       2.512 -12.846   6.204  0.00  0.00    +0.307 C 
ATOM     16  O   UNL     1       2.590 -12.318   5.111  0.00  0.00    -0.252 OA
ATOM     17  H   UNL     1       3.668 -14.521   5.894  0.00  0.00    +0.150 HD
ENDBRANCH   9  11
ENDBRANCH   3   5
BRANCH   1  19
ATOM     18  N   UNL     1       0.053  -5.104   3.444  0.00  0.00    -0.307 N 
ATOM     19  C   UNL     1       0.067  -6.452   3.443  0.00  0.00    +0.299 C 
ATOM     20  O   UNL     1       0.049  -7.058   2.392  0.00  0.00    -0.265 OA
ATOM     21  H   UNL     1       0.067  -4.620   4.284  0.00  0.00    +0.149 HD
BRANCH  18  22
ATOM     22  C   UNL     1       0.015  -4.371   2.176  0.00  0.00    +0.115 C 
BRANCH  22  23
ATOM     23  C   UNL     1       0.005  -2.867   2.457  0.00  0.00    +0.006 C 
ATOM     24  C   UNL     1       1.269  -2.484   3.230  0.00  0.00    +0.017 C 
ATOM     25  C   UNL     1      -1.229  -2.511   3.289  0.00  0.00    +0.017 C 
BRANCH  23  31
ATOM     26  C   UNL     1      -0.104   1.468  -0.042  0.00  0.00    +0.044 C 
ATOM     27  C   UNL     1      -0.087  -0.039  -0.043  0.00  0.00    -0.050 A 
ATOM     28  C   UNL     1      -0.106  -0.730  -1.240  0.00  0.00    +0.003 A 
ATOM     29  C   UNL     1      -0.091  -2.112  -1.241  0.00  0.00    +0.001 A 
ATOM     30  C   UNL     1      -0.054  -2.804  -0.044  0.00  0.00    +0.004 A 
ATOM     31  C   UNL     1      -0.034  -2.113   1.153  0.00  0.00    -0.040 A 
ATOM     32  C   UNL     1      -0.045  -0.731   1.153  0.00  0.00    +0.007 A 
ENDBRANCH  23  31
ENDBRANCH  22  23
ENDBRANCH  18  22
ENDBRANCH   1  19
TORSDOF 6
