REMARK  Name = ZINC01291841
REMARK  8 active torsions:
REMARK  status: ('A' for Active; 'I' for Inactive)
REMARK    1  A    between atoms: C_1  and  C_2
REMARK    2  A    between atoms: C_2  and  O_3
REMARK    3  A    between atoms: O_3  and  C_4
REMARK    4  A    between atoms: C_7  and  C_10
REMARK    5  A    between atoms: C_12  and  C_21
REMARK    6  A    between atoms: C_13  and  C_20
REMARK    7  A    between atoms: C_21  and  O_23
REMARK    8  A    between atoms: O_23  and  C_24
REMARK                            x       y       z     vdW  Elec       q    Type
REMARK                         _______ _______ _______ _____ _____    ______ ____
ROOT
ATOM      1  C   UNL     1      -0.068   0.105   0.031  0.00  0.00    +0.181 C 
ATOM      2  C   UNL     1       0.043   1.607   0.029  0.00  0.00    +0.082 C 
ATOM      3  C   UNL     1       1.218   2.255  -0.004  0.00  0.00    +0.020 C 
ATOM      4  N   UNL     1       2.421   1.593  -0.028  0.00  0.00    -0.286 N 
ATOM      5  C   UNL     1       2.404   0.232   0.242  0.00  0.00    +0.240 A 
ATOM      6  N   UNL     1       1.246  -0.477   0.279  0.00  0.00    -0.201 N 
ATOM      7  N   UNL     1       1.617  -1.785   0.584  0.00  0.00    -0.042 NA
ATOM      8  N   UNL     1       2.906  -1.783   0.701  0.00  0.00    -0.021 NA
ATOM      9  N   UNL     1       3.374  -0.599   0.500  0.00  0.00    -0.092 NA
ATOM     10  C   UNL     1       1.218   3.762  -0.015  0.00  0.00    +0.061 C 
ATOM     11  H   UNL     1       3.248   2.058  -0.225  0.00  0.00    +0.155 HD
ENDROOT
BRANCH   1  15
ATOM     12  C   UNL     1      -1.525  -1.221  -3.761  0.00  0.00    +0.121 A 
ATOM     13  C   UNL     1      -2.239  -1.501  -2.605  0.00  0.00    +0.046 A 
ATOM     14  C   UNL     1      -1.766  -1.072  -1.380  0.00  0.00    +0.009 A 
ATOM     15  C   UNL     1      -0.582  -0.362  -1.306  0.00  0.00    -0.018 A 
ATOM     16  C   UNL     1       0.129  -0.076  -2.457  0.00  0.00    +0.009 A 
ATOM     17  C   UNL     1      -0.337  -0.509  -3.683  0.00  0.00    +0.046 A 
BRANCH  12  18
ATOM     18  O   UNL     1      -1.989  -1.642  -4.967  0.00  0.00    -0.492 OA
BRANCH  18  20
ATOM     19  C   UNL     1      -1.878  -1.870  -7.370  0.00  0.00    +0.048 C 
ATOM     20  C   UNL     1      -1.201  -1.317  -6.114  0.00  0.00    +0.225 C 
ENDBRANCH  18  20
ENDBRANCH  12  18
ENDBRANCH   1  15
BRANCH   2  21
ATOM     21  C   UNL     1      -1.145   2.370   0.058  0.00  0.00    +0.339 C 
ATOM     22  O   UNL     1      -1.089   3.582   0.161  0.00  0.00    -0.245 OA
BRANCH  21  23
ATOM     23  O   UNL     1      -2.344   1.756  -0.030  0.00  0.00    -0.458 OA
BRANCH  23  24
ATOM     24  C   UNL     1      -3.504   2.589   0.005  0.00  0.00    +0.177 C 
ATOM     25  C   UNL     1      -3.961   2.766   1.455  0.00  0.00    +0.044 C 
ATOM     26  C   UNL     1      -5.204   3.658   1.492  0.00  0.00    +0.004 C 
ATOM     27  C   UNL     1      -6.324   3.006   0.680  0.00  0.00    +0.000 C 
ATOM     28  C   UNL     1      -5.867   2.830  -0.769  0.00  0.00    +0.004 C 
ATOM     29  C   UNL     1      -4.625   1.938  -0.807  0.00  0.00    +0.044 C 
ENDBRANCH  23  24
ENDBRANCH  21  23
ENDBRANCH   2  21
TORSDOF 6
