REMARK  Name = ZINC43223201
REMARK  9 active torsions:
REMARK  status: ('A' for Active; 'I' for Inactive)
REMARK    1  A    between atoms: C_1  and  C_2
REMARK    2  A    between atoms: C_2  and  C_4
REMARK    3  A    between atoms: C_2  and  N_10
REMARK    4  A    between atoms: C_11  and  C_13
REMARK    5  A    between atoms: C_18  and  C_20
REMARK    6  A    between atoms: N_22  and  C_23
REMARK    7  A    between atoms: C_28  and  O_30
REMARK    8  A    between atoms: O_30  and  C_31
REMARK    9  A    between atoms: C_31  and  C_32
REMARK                            x       y       z     vdW  Elec       q    Type
REMARK                         _______ _______ _______ _____ _____    ______ ____
ROOT
ATOM      1  C   UNL     1       2.736  -1.073  -2.455  0.00  0.00    +0.068 C 
ATOM      2  C   UNL     1       2.501  -0.093  -3.624  0.00  0.00    -0.069 C 
ATOM      3  N   UNL     1       3.685   0.804  -3.605  0.00  0.00    +0.380 N 
ATOM      4  C   UNL     1       4.822  -0.099  -3.291  0.00  0.00    -0.069 C 
ATOM      5  C   UNL     1       4.263  -1.079  -2.235  0.00  0.00    +0.068 C 
ATOM      6  H   UNL     1       3.816   1.236  -4.507  0.00  0.00    -0.086 HD
ATOM      7  H   UNL     1       3.584   1.506  -2.887  0.00  0.00    -0.086 HD
ENDROOT
BRANCH   1   9
ATOM      8  N   UNL     1       0.688  -0.476  -1.203  0.00  0.00    -0.309 N 
ATOM      9  C   UNL     1       2.031  -0.587  -1.215  0.00  0.00    +0.215 C 
ATOM     10  O   UNL     1       2.672  -0.295  -0.228  0.00  0.00    -0.276 OA
ATOM     11  H   UNL     1       0.175  -0.710  -1.993  0.00  0.00    +0.149 HD
BRANCH   8  13
ATOM     12  C   UNL     1      -0.019   1.526   0.010  0.00  0.00    +0.033 C 
ATOM     13  C   UNL     1       0.002  -0.004   0.002  0.00  0.00    +0.100 C 
BRANCH  13  14
ATOM     14  C   UNL     1      -1.412  -0.526   0.013  0.00  0.00    -0.027 A 
ATOM     15  C   UNL     1      -2.141  -0.569  -1.161  0.00  0.00    +0.005 A 
ATOM     16  C   UNL     1      -3.438  -1.047  -1.151  0.00  0.00    +0.000 A 
ATOM     17  C   UNL     1      -4.005  -1.483   0.032  0.00  0.00    +0.000 A 
ATOM     18  C   UNL     1      -3.275  -1.441   1.205  0.00  0.00    +0.000 A 
ATOM     19  C   UNL     1      -1.977  -0.966   1.195  0.00  0.00    +0.005 A 
ENDBRANCH  13  14
ENDBRANCH   8  13
ENDBRANCH   1   9
BRANCH   5  20
ATOM     20  C   UNL     1       4.818  -2.463  -2.456  0.00  0.00    +0.215 C 
ATOM     21  O   UNL     1       4.076  -3.372  -2.762  0.00  0.00    -0.276 OA
ATOM     22  N   UNL     1       6.139  -2.690  -2.314  0.00  0.00    -0.310 N 
ATOM     23  H   UNL     1       6.732  -1.963  -2.070  0.00  0.00    +0.149 HD
BRANCH  22  24
ATOM     24  C   UNL     1       6.678  -4.035  -2.530  0.00  0.00    +0.102 C 
ATOM     25  C   UNL     1       7.008  -4.239  -4.019  0.00  0.00    +0.025 C 
ATOM     26  C   UNL     1       8.522  -4.523  -4.101  0.00  0.00    +0.004 C 
ATOM     27  C   UNL     1       9.097  -3.889  -2.810  0.00  0.00    +0.033 C 
ATOM     28  C   UNL     1       8.003  -4.203  -1.758  0.00  0.00    +0.139 C 
BRANCH  28  29
ATOM     29  O   UNL     1       8.071  -3.275  -0.673  0.00  0.00    -0.370 OA
BRANCH  29  30
ATOM     30  C   UNL     1       8.831  -3.741   0.444  0.00  0.00    +0.195 C 
BRANCH  30  31
ATOM     31  C   UNL     1       8.835  -2.688   1.523  0.00  0.00    -0.022 A 
ATOM     32  C   UNL     1       9.823  -1.722   1.542  0.00  0.00    +0.006 A 
ATOM     33  C   UNL     1       9.827  -0.757   2.531  0.00  0.00    +0.000 A 
ATOM     34  C   UNL     1       8.843  -0.758   3.502  0.00  0.00    +0.000 A 
ATOM     35  C   UNL     1       7.854  -1.724   3.482  0.00  0.00    +0.000 A 
ATOM     36  C   UNL     1       7.848  -2.686   2.490  0.00  0.00    +0.006 A 
ENDBRANCH  30  31
ENDBRANCH  29  30
ENDBRANCH  28  29
ENDBRANCH  22  24
ENDBRANCH   5  20
TORSDOF 8
