REMARK  Name = ZINC67234403
REMARK  10 active torsions:
REMARK  status: ('A' for Active; 'I' for Inactive)
REMARK    1  A    between atoms: C_1  and  C_2
REMARK    2  A    between atoms: C_7  and  C_10
REMARK    3  A    between atoms: C_16  and  C_18
REMARK    4  A    between atoms: C_18  and  C_20
REMARK    5  A    between atoms: C_18  and  N_21
REMARK    6  A    between atoms: C_22  and  O_24
REMARK    7  A    between atoms: O_24  and  C_25
REMARK    8  A    between atoms: C_25  and  C_26
REMARK    9  A    between atoms: C_25  and  C_27
REMARK   10  A    between atoms: C_25  and  C_28
REMARK                            x       y       z     vdW  Elec       q    Type
REMARK                         _______ _______ _______ _____ _____    ______ ____
ROOT
ATOM      1  C   UNL     1       1.081   0.806  -1.467  0.00  0.00    +0.039 C 
ATOM      2  C   UNL     1       0.726  -0.625  -1.058  0.00  0.00    +0.133 C 
ATOM      3  C   UNL     1      -0.768  -0.706  -0.722  0.00  0.00    +0.139 C 
ATOM      4  N   UNL     1      -1.045  -2.035  -0.155  0.00  0.00    -0.295 N 
ATOM      5  C   UNL     1      -0.192  -2.509   0.946  0.00  0.00    +0.144 C 
ATOM      6  C   UNL     1       1.273  -2.341   0.529  0.00  0.00    +0.166 C 
ATOM      7  O   UNL     1       1.488  -0.996   0.093  0.00  0.00    -0.366 OA
ATOM      8  C   UNL     1      -2.051  -2.796  -0.630  0.00  0.00    +0.236 C 
ATOM      9  O   UNL     1      -2.208  -3.924  -0.213  0.00  0.00    -0.274 OA
ENDROOT
BRANCH   6  10
ATOM     10  C   UNL     1       2.168  -2.639   1.704  0.00  0.00    -0.017 A 
ATOM     11  C   UNL     1       2.368  -1.682   2.682  0.00  0.00    +0.006 A 
ATOM     12  C   UNL     1       3.189  -1.956   3.760  0.00  0.00    +0.000 A 
ATOM     13  C   UNL     1       3.810  -3.187   3.860  0.00  0.00    +0.000 A 
ATOM     14  C   UNL     1       3.610  -4.144   2.883  0.00  0.00    +0.000 A 
ATOM     15  C   UNL     1       2.786  -3.872   1.807  0.00  0.00    +0.006 A 
ENDBRANCH   6  10
BRANCH   8  16
ATOM     16  C   UNL     1      -2.982  -2.245  -1.680  0.00  0.00    +0.159 C 
ATOM     17  C   UNL     1      -3.997  -1.309  -1.021  0.00  0.00    +0.038 C 
BRANCH  16  18
ATOM     18  N   UNL     1      -3.688  -3.349  -2.334  0.00  0.00    -0.270 N 
ATOM     19  C   UNL     1      -4.166  -3.196  -3.585  0.00  0.00    +0.401 C 
ATOM     20  O   UNL     1      -4.010  -2.143  -4.171  0.00  0.00    -0.226 OA
ATOM     21  H   UNL     1      -3.813  -4.190  -1.867  0.00  0.00    +0.153 HD
BRANCH  19  22
ATOM     22  O   UNL     1      -4.815  -4.211  -4.187  0.00  0.00    -0.445 OA
BRANCH  22  23
ATOM     23  C   UNL     1      -5.294  -3.979  -5.513  0.00  0.00    +0.107 C 
ATOM     24  C   UNL     1      -4.116  -3.645  -6.430  0.00  0.00    +0.055 C 
ATOM     25  C   UNL     1      -6.000  -5.236  -6.027  0.00  0.00    +0.055 C 
ATOM     26  C   UNL     1      -6.280  -2.809  -5.502  0.00  0.00    +0.055 C 
ENDBRANCH  22  23
ENDBRANCH  19  22
ENDBRANCH  16  18
ENDBRANCH   8  16
TORSDOF 5
