REMARK  Name = ZINC09788339
REMARK  7 active torsions:
REMARK  status: ('A' for Active; 'I' for Inactive)
REMARK    1  A    between atoms: C_3  and  S_26
REMARK    2  A    between atoms: C_6  and  C_7
REMARK    3  A    between atoms: C_7  and  O_9
REMARK    4  A    between atoms: O_9  and  C_10
REMARK    5  A    between atoms: C_10  and  C_11
REMARK    6  A    between atoms: N_13  and  N_14
REMARK    7  A    between atoms: S_26  and  C_29
REMARK                            x       y       z     vdW  Elec       q    Type
REMARK                         _______ _______ _______ _____ _____    ______ ____
ROOT
ATOM      1  C   UNL     1      -2.676   5.720   7.521  0.00  0.00    +0.267 C 
ATOM      2  O   UNL     1      -1.883   6.381   6.884  0.00  0.00    -0.271 OA
ATOM      3  N   UNL     1      -3.183   6.201   8.673  0.00  0.00    -0.221 N 
ATOM      4  H   UNL     1      -3.817   5.672   9.182  0.00  0.00    +0.174 HD
ENDROOT
BRANCH   3   5
ATOM      5  N   UNL     1      -2.794   7.465   9.135  0.00  0.00    -0.137 N 
ATOM      6  C   UNL     1      -3.570   8.568   9.070  0.00  0.00    +0.263 C 
ATOM      7  O   UNL     1      -4.691   8.650   8.618  0.00  0.00    -0.271 OA
ATOM      8  C   UNL     1      -2.744   9.678   9.679  0.00  0.00    +0.114 C 
ATOM      9  C   UNL     1      -3.441  10.242  10.912  0.00  0.00    +0.035 C 
ATOM     10  C   UNL     1      -2.578  11.345  11.530  0.00  0.00    +0.003 C 
ATOM     11  C   UNL     1      -2.353  12.453  10.499  0.00  0.00    +0.000 C 
ATOM     12  C   UNL     1      -1.631  11.877   9.279  0.00  0.00    +0.003 C 
ATOM     13  C   UNL     1      -2.491  10.776   8.652  0.00  0.00    +0.035 C 
ATOM     14  N   UNL     1      -1.485   9.023  10.053  0.00  0.00    -0.284 N 
ATOM     15  C   UNL     1      -1.610   7.729   9.701  0.00  0.00    +0.326 C 
ATOM     16  O   UNL     1      -0.744   6.894   9.876  0.00  0.00    -0.251 OA
ATOM     17  H   UNL     1      -0.717   9.438  10.475  0.00  0.00    +0.151 HD
ENDBRANCH   3   5
BRANCH   1  18
ATOM     18  C   UNL     1      -3.094   4.360   7.024  0.00  0.00    +0.329 C 
BRANCH  18  19
ATOM     19  O   UNL     1      -2.414   4.072   5.773  0.00  0.00    -0.452 OA
BRANCH  19  20
ATOM     20  C   UNL     1      -2.679   2.886   5.192  0.00  0.00    +0.340 C 
ATOM     21  O   UNL     1      -3.457   2.113   5.716  0.00  0.00    -0.245 OA
BRANCH  20  27
ATOM     22  C   UNL     1      -2.297   1.296   3.313  0.00  0.00    +0.017 A 
ATOM     23  C   UNL     1      -1.683   0.965   2.123  0.00  0.00    +0.028 A 
ATOM     24  C   UNL     1      -0.798   1.847   1.530  0.00  0.00    +0.094 A 
ATOM     25  C   UNL     1      -0.519   3.064   2.127  0.00  0.00    +0.028 A 
ATOM     26  C   UNL     1      -1.131   3.410   3.313  0.00  0.00    +0.017 A 
ATOM     27  C   UNL     1      -2.025   2.524   3.918  0.00  0.00    +0.059 A 
BRANCH  24  28
ATOM     28  S   UNL     1      -0.017   1.417   0.010  0.00  0.00    +0.058 S 
ATOM     29  O   UNL     1       0.002  -0.004   0.002  0.00  0.00    -0.164 OA
ATOM     30  O   UNL     1       1.195   2.158   0.002  0.00  0.00    -0.164 OA
BRANCH  28  31
ATOM     31  C   UNL     1      -1.135   2.034  -1.279  0.00  0.00    +0.485 C 
ATOM     32  F   UNL     1      -2.384   1.419  -1.147  0.00  0.00    -0.183 F 
ATOM     33  F   UNL     1      -1.280   3.419  -1.147  0.00  0.00    -0.183 F 
ENDBRANCH  28  31
ENDBRANCH  24  28
ENDBRANCH  20  27
ENDBRANCH  19  20
ENDBRANCH  18  19
ENDBRANCH   1  18
TORSDOF 7
