REMARK  Name = ZINC06319990
REMARK  6 active torsions:
REMARK  status: ('A' for Active; 'I' for Inactive)
REMARK    1  A    between atoms: C_1  and  N_2
REMARK    2  A    between atoms: N_2  and  C_3
REMARK    3  A    between atoms: C_6  and  C_12
REMARK    4  A    between atoms: C_8  and  N_9
REMARK    5  A    between atoms: C_13  and  C_14
REMARK    6  A    between atoms: C_14  and  C_16
REMARK                            x       y       z     vdW  Elec       q    Type
REMARK                         _______ _______ _______ _____ _____    ______ ____
ROOT
ATOM      1  C   UNL     1      -1.150   3.253   0.059  0.00  0.00    +0.058 A 
ATOM      2  C   UNL     1      -1.269   1.866   0.021  0.00  0.00    +0.026 A 
ATOM      3  C   UNL     1      -0.150   1.084  -0.015  0.00  0.00    +0.010 A 
ATOM      4  C   UNL     1       1.119   1.679  -0.028  0.00  0.00    -0.023 A 
ATOM      5  C   UNL     1       1.233   3.075   0.004  0.00  0.00    +0.042 A 
ATOM      6  C   UNL     1       0.108   3.850   0.047  0.00  0.00    +0.147 A 
ENDROOT
BRANCH   1   8
ATOM      7  C   UNL     1      -3.612   3.422   0.234  0.00  0.00    +0.125 C 
ATOM      8  N   UNL     1      -2.292   4.045   0.102  0.00  0.00    -0.345 N 
ATOM      9  H   UNL     1      -2.216   5.011   0.044  0.00  0.00    +0.146 HD
ENDBRANCH   1   8
BRANCH   6  10
ATOM     10  N   UNL     1       0.227   5.325   0.082  0.00  0.00    +0.058 N 
ATOM     11  O   UNL     1       1.324   5.845   0.185  0.00  0.00    -0.126 OA
ATOM     12  O   UNL     1      -0.771   6.018   0.006  0.00  0.00    -0.126 OA
ENDBRANCH   6  10
BRANCH   4  13
ATOM     13  C   UNL     1       2.324   0.843  -0.074  0.00  0.00    +0.012 C 
ATOM     14  C   UNL     1       2.212  -0.505  -0.105  0.00  0.00    +0.052 C 
BRANCH  14  15
ATOM     15  C   UNL     1       3.375  -1.312  -0.150  0.00  0.00    +0.186 C 
ATOM     16  O   UNL     1       4.477  -0.793  -0.160  0.00  0.00    -0.287 OA
BRANCH  15  17
ATOM     17  C   UNL     1       3.252  -2.785  -0.184  0.00  0.00    +0.022 A 
ATOM     18  C   UNL     1       1.991  -3.384  -0.167  0.00  0.00    +0.013 A 
ATOM     19  C   UNL     1       1.883  -4.758  -0.204  0.00  0.00    +0.021 A 
ATOM     20  C   UNL     1       3.022  -5.545  -0.247  0.00  0.00    +0.041 A 
ATOM     21  C   UNL     1       4.277  -4.957  -0.260  0.00  0.00    +0.021 A 
ATOM     22  C   UNL     1       4.397  -3.584  -0.228  0.00  0.00    +0.013 A 
ATOM     23 CL   UNL     1       2.878  -7.274  -0.287  0.00  0.00    -0.084 Cl
ENDBRANCH  15  17
ENDBRANCH  14  15
ENDBRANCH   4  13
TORSDOF 5
