REMARK  Name = ZINC15590231
REMARK  10 active torsions:
REMARK  status: ('A' for Active; 'I' for Inactive)
REMARK    1  A    between atoms: C_4  and  C_7
REMARK    2  A    between atoms: C_7  and  N_8
REMARK    3  A    between atoms: C_10  and  C_18
REMARK    4  A    between atoms: C_11  and  C_13
REMARK    5  A    between atoms: C_19  and  C_20
REMARK    6  A    between atoms: N_22  and  C_23
REMARK    7  A    between atoms: C_23  and  C_24
REMARK    8  A    between atoms: C_24  and  C_25
REMARK    9  A    between atoms: C_28  and  S_31
REMARK   10  A    between atoms: S_31  and  N_34
REMARK                            x       y       z     vdW  Elec       q    Type
REMARK                         _______ _______ _______ _____ _____    ______ ____
ROOT
ATOM      1  C   UNL     1       3.545   1.656  -0.023  0.00  0.00    +0.016 C 
ATOM      2  C   UNL     1       2.384   0.964  -0.015  0.00  0.00    +0.068 C 
ENDROOT
BRANCH   1   5
ATOM      3  N   UNL     1       6.329  -0.670  -0.063  0.00  0.00    -0.266 N 
ATOM      4  C   UNL     1       5.009  -0.431  -0.049  0.00  0.00    +0.117 A 
ATOM      5  C   UNL     1       4.825   0.940  -0.039  0.00  0.00    +0.021 A 
ATOM      6  C   UNL     1       6.168   1.536  -0.054  0.00  0.00    +0.106 A 
ATOM      7  N   UNL     1       7.029   0.540  -0.063  0.00  0.00    -0.170 NA
BRANCH   6   8
ATOM      8  C   UNL     1       6.490   2.977  -0.057  0.00  0.00    +0.040 A 
ATOM      9  C   UNL     1       7.536   3.628   0.542  0.00  0.00    +0.018 A 
ATOM     10  C   UNL     1       7.632   4.995   0.400  0.00  0.00    +0.008 A 
ATOM     11  C   UNL     1       6.691   5.653  -0.325  0.00  0.00    +0.046 A 
ATOM     12  S   UNL     1       5.622   4.322  -0.846  0.00  0.00    -0.095 S 
ENDBRANCH   6   8
BRANCH   3  13
ATOM     13  C   UNL     1       6.945  -1.999  -0.077  0.00  0.00    +0.178 C 
BRANCH  13  17
ATOM     14  C   UNL     1       9.608  -2.300  -3.404  0.00  0.00    +0.000 A 
ATOM     15  C   UNL     1      10.074  -1.843  -2.185  0.00  0.00    +0.000 A 
ATOM     16  C   UNL     1       9.212  -1.745  -1.108  0.00  0.00    +0.005 A 
ATOM     17  C   UNL     1       7.885  -2.105  -1.251  0.00  0.00    -0.026 A 
ATOM     18  C   UNL     1       7.420  -2.567  -2.468  0.00  0.00    +0.005 A 
ATOM     19  C   UNL     1       8.281  -2.659  -3.546  0.00  0.00    +0.000 A 
ENDBRANCH  13  17
ENDBRANCH   3  13
ENDBRANCH   1   5
BRANCH   2  20
ATOM     20  C   UNL     1       1.147   1.655   0.000  0.00  0.00    +0.237 C 
ATOM     21  O   UNL     1       1.130   2.873   0.007  0.00  0.00    -0.271 OA
ATOM     22  N   UNL     1      -0.011   0.966   0.007  0.00  0.00    -0.312 N 
ATOM     23  H   UNL     1       0.002  -0.004   0.002  0.00  0.00    +0.149 HD
BRANCH  22  24
ATOM     24  C   UNL     1      -1.290   1.681   0.017  0.00  0.00    +0.109 C 
BRANCH  24  25
ATOM     25  C   UNL     1      -2.439   0.671   0.017  0.00  0.00    +0.054 C 
BRANCH  25  26
ATOM     26  C   UNL     1      -3.754   1.407   0.028  0.00  0.00    -0.046 A 
ATOM     27  C   UNL     1      -4.354   1.733   1.229  0.00  0.00    +0.005 A 
ATOM     28  C   UNL     1      -5.559   2.411   1.239  0.00  0.00    +0.029 A 
ATOM     29  C   UNL     1      -6.167   2.756   0.046  0.00  0.00    +0.105 A 
ATOM     30  C   UNL     1      -5.569   2.425  -1.155  0.00  0.00    +0.029 A 
ATOM     31  C   UNL     1      -4.363   1.751  -1.165  0.00  0.00    +0.005 A 
BRANCH  29  32
ATOM     32  S   UNL     1      -7.704   3.617   0.058  0.00  0.00    +0.056 S 
ATOM     33  O   UNL     1      -7.784   4.289   1.308  0.00  0.00    -0.153 OA
ATOM     34  O   UNL     1      -7.795   4.304  -1.183  0.00  0.00    -0.153 OA
BRANCH  32  35
ATOM     35  N   UNL     1      -8.905   2.477   0.057  0.00  0.00    -0.204 NA
ATOM     36  H   UNL     1      -8.678   1.534   0.050  0.00  0.00    +0.144 HD
ATOM     37  H   UNL     1      -9.835   2.751   0.062  0.00  0.00    +0.144 HD
ENDBRANCH  32  35
ENDBRANCH  29  32
ENDBRANCH  25  26
ENDBRANCH  24  25
ENDBRANCH  22  24
ENDBRANCH   2  20
TORSDOF 10
