REMARK  Name = ZINC43863073
REMARK  9 active torsions:
REMARK  status: ('A' for Active; 'I' for Inactive)
REMARK    1  A    between atoms: C_1  and  C_2
REMARK    2  A    between atoms: C_2  and  C_3
REMARK    3  A    between atoms: C_3  and  C_4
REMARK    4  A    between atoms: C_3  and  C_5
REMARK    5  A    between atoms: C_3  and  C_6
REMARK    6  A    between atoms: C_9  and  N_12
REMARK    7  A    between atoms: N_15  and  N_16
REMARK    8  A    between atoms: C_17  and  C_19
REMARK    9  A    between atoms: C_19  and  C_20
REMARK                            x       y       z     vdW  Elec       q    Type
REMARK                         _______ _______ _______ _____ _____    ______ ____
ROOT
ATOM      1  N   UNL     1       2.236  -6.022  -1.301  0.00  0.00    -0.295 N 
ATOM      2  C   UNL     1       3.194  -6.679  -1.983  0.00  0.00    +0.316 C 
ATOM      3  O   UNL     1       4.043  -6.057  -2.592  0.00  0.00    -0.251 OA
ATOM      4  N   UNL     1       3.213  -8.027  -1.991  0.00  0.00    -0.218 N 
ATOM      5  H   UNL     1       1.559  -6.519  -0.815  0.00  0.00    +0.151 HD
ATOM      6  H   UNL     1       3.903  -8.500  -2.482  0.00  0.00    +0.174 HD
ENDROOT
BRANCH   1  10
ATOM      7  C   UNL     1       0.739  -2.027  -1.265  0.00  0.00    -0.005 C 
ATOM      8  C   UNL     1       1.479  -2.534  -0.026  0.00  0.00    +0.006 C 
ATOM      9  C   UNL     1       1.500  -4.064  -0.034  0.00  0.00    +0.022 C 
ATOM     10  C   UNL     1       2.216  -4.557  -1.293  0.00  0.00    +0.074 C 
ATOM     11  C   UNL     1       1.476  -4.051  -2.532  0.00  0.00    +0.022 C 
ATOM     12  C   UNL     1       1.455  -2.521  -2.524  0.00  0.00    +0.006 C 
BRANCH   7  13
ATOM     13  C   UNL     1       0.718  -0.497  -1.257  0.00  0.00    -0.032 C 
ATOM     14  C   UNL     1      -0.022   0.009  -2.496  0.00  0.00    +0.011 C 
ATOM     15  C   UNL     1       2.154   0.032  -1.268  0.00  0.00    +0.011 C 
BRANCH  13  17
ATOM     16  C   UNL     1      -0.019   1.526   0.010  0.00  0.00    +0.004 C 
ATOM     17  C   UNL     1       0.002  -0.004   0.002  0.00  0.00    +0.003 C 
ENDBRANCH  13  17
ENDBRANCH   7  13
ENDBRANCH   1  10
BRANCH   4  18
ATOM     18  N   UNL     1       2.235  -8.745  -1.289  0.00  0.00    -0.233 N 
ATOM     19  C   UNL     1       2.253 -10.092  -1.296  0.00  0.00    +0.229 C 
ATOM     20  O   UNL     1       3.116 -10.684  -1.910  0.00  0.00    -0.274 OA
ATOM     21  H   UNL     1       1.545  -8.272  -0.798  0.00  0.00    +0.173 HD
BRANCH  19  22
ATOM     22  C   UNL     1       1.202 -10.864  -0.542  0.00  0.00    +0.102 C 
BRANCH  22  23
ATOM     23  C   UNL     1       1.450 -12.364  -0.713  0.00  0.00    +0.020 C 
ATOM     24  C   UNL     1       1.226 -12.764  -2.181  0.00  0.00    +0.028 C 
ATOM     25  C   UNL     1       1.158 -14.305  -2.304  0.00  0.00    +0.166 C 
ATOM     26  S   UNL     1       0.524 -14.814  -0.654  0.00  0.00    -0.031 S 
ATOM     27  O   UNL     1       1.508 -15.608  -0.005  0.00  0.00    -0.174 OA
ATOM     28  O   UNL     1      -0.796 -15.320  -0.802  0.00  0.00    -0.174 OA
ATOM     29  C   UNL     1       0.447 -13.166   0.165  0.00  0.00    +0.170 C 
ENDBRANCH  22  23
ENDBRANCH  19  22
ENDBRANCH   4  18
TORSDOF 6
