REMARK  Name = ZINC07238873
REMARK  14 active torsions:
REMARK  status: ('A' for Active; 'I' for Inactive)
REMARK    1  A    between atoms: C_3  and  N_30
REMARK    2  A    between atoms: C_6  and  C_7
REMARK    3  A    between atoms: C_7  and  C_9
REMARK    4  A    between atoms: C_7  and  O_29
REMARK    5  A    between atoms: C_9  and  C_11
REMARK    6  A    between atoms: C_9  and  N_53
REMARK    7  A    between atoms: C_11  and  O_12
REMARK    8  A    between atoms: C_13  and  C_14
REMARK    9  A    between atoms: C_13  and  N_53
REMARK   10  A    between atoms: C_14  and  C_16
REMARK   11  A    between atoms: C_14  and  O_28
REMARK   12  A    between atoms: C_16  and  O_17
REMARK   13  A    between atoms: O_17  and  C_18
REMARK   14  A    between atoms: C_18  and  C_19
REMARK                            x       y       z     vdW  Elec       q    Type
REMARK                         _______ _______ _______ _____ _____    ______ ____
ROOT
ATOM      1  N   UNK A   1       1.007   7.779   4.411  0.00  0.00    +0.386 N 
ATOM      2  H   UNK A   1       0.207   7.286   4.825  0.00  0.00    -0.085 HD
ATOM      3  H   UNK A   1       1.877   7.437   4.834  0.00  0.00    -0.085 HD
ENDROOT
BRANCH   1   4
ATOM      4  C   UNK A   1       0.875   9.225   4.673  0.00  0.00    -0.012 C 
BRANCH   4   5
ATOM      5  C   UNK A   1       1.450   9.540   6.055  0.00  0.00    +0.133 C 
BRANCH   5  11
ATOM      6  C   UNK A   1       3.809  10.248   5.607  0.00  0.00    +0.008 A 
ATOM      7  C   UNK A   1       5.170  10.007   5.610  0.00  0.00    +0.033 A 
ATOM      8  C   UNK A   1       5.656   8.789   6.049  0.00  0.00    +0.126 A 
ATOM      9  C   UNK A   1       4.780   7.815   6.490  0.00  0.00    +0.033 A 
ATOM     10  C   UNK A   1       3.419   8.057   6.492  0.00  0.00    +0.008 A 
ATOM     11  C   UNK A   1       2.934   9.275   6.053  0.00  0.00    -0.020 A 
BRANCH   8  12
ATOM     12  N   UNK A   1       7.113   8.529   6.046  0.00  0.00    +0.056 N 
ATOM     13  O   UNK A   1       7.540   7.456   6.433  0.00  0.00    -0.126 OA
ATOM     14  O   UNK A   1       7.884   9.388   5.658  0.00  0.00    -0.126 OA
ENDBRANCH   8  12
ENDBRANCH   5  11
BRANCH   5  15
ATOM     15  O   UNK A   1       1.212  10.913   6.369  0.00  0.00    -0.389 OA
ATOM     16  H   UNK A   1       1.537  11.532   5.700  0.00  0.00    +0.210 HD
ENDBRANCH   5  15
ENDBRANCH   4   5
BRANCH   4  17
ATOM     17  C   UNK A   1      -0.604   9.618   4.635  0.00  0.00    +0.143 C 
BRANCH  17  18
ATOM     18  O   UNK A   1      -1.300   8.957   5.694  0.00  0.00    -0.397 OA
ATOM     19  H   UNK A   1      -2.244   9.160   5.731  0.00  0.00    +0.209 HD
ENDBRANCH  17  18
ENDBRANCH   4  17
ENDBRANCH   1   4
BRANCH   1  20
ATOM     20  C   UNK A   0       1.038   7.523   2.959  0.00  0.00    -0.048 C 
BRANCH  20  21
ATOM     21  C   UNK A   0       1.176   6.019   2.718  0.00  0.00    +0.123 C 
BRANCH  21  22
ATOM     22  O   UNK A   0       2.386   5.549   3.315  0.00  0.00    -0.391 OA
ATOM     23  H   UNK A   0       3.185   5.968   2.966  0.00  0.00    +0.210 HD
ENDBRANCH  21  22
BRANCH  21  24
ATOM     24  C   UNK A   0       1.209   5.744   1.213  0.00  0.00    +0.189 C 
BRANCH  24  25
ATOM     25  O   UNK A   0       1.220   4.333   0.987  0.00  0.00    -0.373 OA
BRANCH  25  26
ATOM     26  C   UNK A   0       1.251   3.966  -0.394  0.00  0.00    +0.195 C 
BRANCH  26  27
ATOM     27  C   UNK A   0       1.261   2.463  -0.514  0.00  0.00    -0.018 A 
ATOM     28  C   UNK A   0       2.463   1.781  -0.542  0.00  0.00    +0.010 A 
ATOM     29  C   UNK A   0       2.477   0.403  -0.654  0.00  0.00    +0.050 A 
ATOM     30  C   UNK A   0       1.284  -0.297  -0.736  0.00  0.00    +0.166 A 
ATOM     31  C   UNK A   0       0.073   0.390  -0.706  0.00  0.00    +0.167 A 
ATOM     32  C   UNK A   0       0.067   1.771  -0.595  0.00  0.00    +0.055 A 
ATOM     33  O   UNK A   0      -0.944  -0.515  -0.800  0.00  0.00    -0.453 OA
ATOM     34  C   UNK A   0      -0.340  -1.723  -1.299  0.00  0.00    +0.466 C 
ATOM     35  O   UNK A   0       1.025  -1.633  -0.850  0.00  0.00    -0.453 OA
ENDBRANCH  26  27
ENDBRANCH  25  26
ENDBRANCH  24  25
ENDBRANCH  21  24
ENDBRANCH  20  21
ENDBRANCH   1  20
TORSDOF 14
