REMARK  Name = ZINC66599698
REMARK  7 active torsions:
REMARK  status: ('A' for Active; 'I' for Inactive)
REMARK    1  A    between atoms: C_1  and  C_2
REMARK    2  A    between atoms: C_2  and  C_3
REMARK    3  A    between atoms: C_3  and  C_4
REMARK    4  A    between atoms: C_4  and  N_5
REMARK    5  A    between atoms: C_10  and  C_12
REMARK    6  A    between atoms: C_12  and  N_13
REMARK    7  A    between atoms: C_19  and  C_22
REMARK                            x       y       z     vdW  Elec       q    Type
REMARK                         _______ _______ _______ _____ _____    ______ ____
ROOT
ATOM      1  N   UNL     1      -0.813  -3.784  -1.651  0.00  0.00    -0.301 N 
ATOM      2  C   UNL     1      -2.109  -4.098  -1.458  0.00  0.00    +0.302 C 
ATOM      3  O   UNL     1      -2.666  -4.871  -2.214  0.00  0.00    -0.253 OA
ATOM      4  N   UNL     1      -2.788  -3.555  -0.429  0.00  0.00    -0.286 N 
ATOM      5  C   UNL     1      -4.165  -3.975  -0.136  0.00  0.00    +0.110 C 
ATOM      6  C   UNL     1      -5.060  -2.733  -0.083  0.00  0.00    +0.032 C 
ATOM      7  C   UNL     1      -4.480  -1.735   0.922  0.00  0.00    +0.078 C 
ATOM      8  C   UNL     1      -3.083  -1.305   0.469  0.00  0.00    +0.032 C 
ATOM      9  C   UNL     1      -2.164  -2.536   0.426  0.00  0.00    +0.110 C 
ATOM     10  H   UNL     1      -0.388  -3.113  -1.093  0.00  0.00    +0.150 HD
ENDROOT
BRANCH   7  11
ATOM     11  C   UNL     1      -5.376  -0.525   1.003  0.00  0.00    +0.219 C 
ATOM     12  O   UNL     1      -6.078  -0.228   0.060  0.00  0.00    -0.275 OA
ATOM     13  N   UNL     1      -5.396   0.225   2.122  0.00  0.00    -0.297 N 
ATOM     14  C   UNL     1      -4.470  -0.046   3.233  0.00  0.00    +0.136 C 
ATOM     15  C   UNL     1      -3.779   1.267   3.618  0.00  0.00    +0.179 C 
ATOM     16  O   UNL     1      -4.771   2.270   3.849  0.00  0.00    -0.377 OA
ATOM     17  C   UNL     1      -5.562   2.586   2.701  0.00  0.00    +0.179 C 
ATOM     18  C   UNL     1      -6.340   1.344   2.267  0.00  0.00    +0.136 C 
ENDBRANCH   7  11
BRANCH   1  19
ATOM     19  C   UNL     1      -0.044  -4.455  -2.702  0.00  0.00    +0.090 C 
BRANCH  19  25
ATOM     20  N   UNL     1       1.929  -4.236  -1.270  0.00  0.00    +0.383 N 
ATOM     21  C   UNL     1       3.352  -3.884  -1.209  0.00  0.00    -0.078 C 
ATOM     22  C   UNL     1       3.526  -2.392  -1.501  0.00  0.00    -0.019 C 
ATOM     23  C   UNL     1       2.982  -2.084  -2.899  0.00  0.00    -0.003 C 
ATOM     24  C   UNL     1       1.517  -2.524  -2.974  0.00  0.00    -0.014 C 
ATOM     25  C   UNL     1       1.418  -4.011  -2.628  0.00  0.00    -0.051 C 
ATOM     26  H   UNL     1       1.414  -3.663  -0.619  0.00  0.00    -0.081 HD
BRANCH  20  27
ATOM     27  C   UNL     1       1.760  -5.651  -0.913  0.00  0.00    -0.078 C 
BRANCH  27  28
ATOM     28  C   UNL     1       2.183  -5.864   0.541  0.00  0.00    -0.019 C 
BRANCH  28  30
ATOM     29  C   UNL     1       2.430  -7.551   2.368  0.00  0.00    +0.004 C 
ATOM     30  C   UNL     1       2.007  -7.338   0.913  0.00  0.00    -0.005 C 
ENDBRANCH  28  30
ENDBRANCH  27  28
ENDBRANCH  20  27
ENDBRANCH  19  25
ENDBRANCH   1  19
TORSDOF 6
