REMARK  Name = ZINC46671618
REMARK  12 active torsions:
REMARK  status: ('A' for Active; 'I' for Inactive)
REMARK    1  A    between atoms: C_1  and  C_2
REMARK    2  A    between atoms: C_2  and  C_4
REMARK    3  A    between atoms: C_2  and  O_23
REMARK    4  A    between atoms: N_6  and  N_7
REMARK    5  A    between atoms: C_8  and  C_10
REMARK    6  A    between atoms: C_13  and  S_15
REMARK    7  A    between atoms: S_15  and  N_18
REMARK    8  A    between atoms: N_18  and  C_19
REMARK    9  A    between atoms: C_19  and  C_20
REMARK   10  A    between atoms: C_19  and  C_21
REMARK   11  A    between atoms: C_19  and  C_22
REMARK   12  A    between atoms: O_23  and  C_24
REMARK                            x       y       z     vdW  Elec       q    Type
REMARK                         _______ _______ _______ _____ _____    ______ ____
ROOT
ATOM      1  N   UNL     1      -2.398   1.290  -0.228  0.00  0.00    -0.228 N 
ATOM      2  C   UNL     1      -3.022   0.954  -1.374  0.00  0.00    +0.295 C 
ATOM      3  O   UNL     1      -2.454   1.099  -2.441  0.00  0.00    -0.265 OA
ATOM      4  H   UNL     1      -2.851   1.175   0.622  0.00  0.00    +0.173 HD
ENDROOT
BRANCH   2   5
ATOM      5  C   UNL     1      -4.384   0.413  -1.337  0.00  0.00    +0.193 A 
ATOM      6  C   UNL     1      -5.125   0.029  -2.418  0.00  0.00    +0.057 A 
ATOM      7  C   UNL     1      -6.358  -0.423  -1.922  0.00  0.00    +0.072 A 
ATOM      8  C   UNL     1      -6.316  -0.296  -0.577  0.00  0.00    +0.258 A 
ATOM      9  O   UNL     1      -5.123   0.202  -0.228  0.00  0.00    -0.432 OA
BRANCH   8  10
ATOM     10  S   UNL     1      -7.615  -0.723   0.535  0.00  0.00    +0.092 S 
ATOM     11  O   UNL     1      -7.317  -0.088   1.770  0.00  0.00    -0.150 OA
ATOM     12  O   UNL     1      -8.834  -0.501  -0.161  0.00  0.00    -0.150 OA
BRANCH  10  13
ATOM     13  N   UNL     1      -7.514  -2.354   0.803  0.00  0.00    -0.182 NA
ATOM     14  H   UNL     1      -8.248  -2.934   0.549  0.00  0.00    +0.149 HD
BRANCH  13  15
ATOM     15  C   UNL     1      -6.315  -2.920   1.426  0.00  0.00    +0.032 C 
ATOM     16  C   UNL     1      -6.032  -2.193   2.743  0.00  0.00    +0.029 C 
ATOM     17  C   UNL     1      -6.539  -4.408   1.703  0.00  0.00    +0.029 C 
ATOM     18  C   UNL     1      -5.122  -2.751   0.483  0.00  0.00    +0.029 C 
ENDBRANCH  13  15
ENDBRANCH  10  13
ENDBRANCH   8  10
ENDBRANCH   2   5
BRANCH   1  21
ATOM     19  C   UNL     1      -0.473   2.144   0.883  0.00  0.00    +0.270 C 
ATOM     20  O   UNL     1      -1.039   1.999   1.946  0.00  0.00    -0.270 OA
ATOM     21  N   UNL     1      -1.097   1.807  -0.264  0.00  0.00    -0.231 N 
ATOM     22  H   UNL     1      -0.644   1.923  -1.114  0.00  0.00    +0.173 HD
BRANCH  19  24
ATOM     23  C   UNL     1       0.919   4.053   0.131  0.00  0.00    +0.062 C 
ATOM     24  C   UNL     1       0.927   2.700   0.844  0.00  0.00    +0.257 C 
BRANCH  24  25
ATOM     25  O   UNL     1       1.409   2.868   2.179  0.00  0.00    -0.480 OA
BRANCH  25  26
ATOM     26  C   UNL     1       2.757   2.863   2.352  0.00  0.00    +0.122 A 
ATOM     27  C   UNL     1       3.597   2.800   1.236  0.00  0.00    +0.046 A 
ATOM     28  C   UNL     1       4.949   2.794   1.377  0.00  0.00    +0.012 A 
ATOM     29  C   UNL     1       5.516   2.852   2.663  0.00  0.00    -0.018 A 
ATOM     30  C   UNL     1       6.909   2.848   2.845  0.00  0.00    +0.008 A 
ATOM     31  C   UNL     1       7.424   2.905   4.104  0.00  0.00    +0.001 A 
ATOM     32  C   UNL     1       6.589   2.968   5.218  0.00  0.00    +0.001 A 
ATOM     33  C   UNL     1       5.236   2.974   5.080  0.00  0.00    +0.008 A 
ATOM     34  C   UNL     1       4.667   2.916   3.796  0.00  0.00    -0.014 A 
ATOM     35  C   UNL     1       3.274   2.925   3.615  0.00  0.00    +0.054 A 
ENDBRANCH  25  26
ENDBRANCH  24  25
ENDBRANCH  19  24
ENDBRANCH   1  21
TORSDOF 8
