REMARK  Name = ZINC57414857
REMARK  11 active torsions:
REMARK  status: ('A' for Active; 'I' for Inactive)
REMARK    1  A    between atoms: C_1  and  C_2
REMARK    2  A    between atoms: C_2  and  C_4
REMARK    3  A    between atoms: C_7  and  N_10
REMARK    4  A    between atoms: N_13  and  C_16
REMARK    5  A    between atoms: C_16  and  C_17
REMARK    6  A    between atoms: C_18  and  C_33
REMARK    7  A    between atoms: C_19  and  C_25
REMARK    8  A    between atoms: C_28  and  O_31
REMARK    9  A    between atoms: O_31  and  C_32
REMARK   10  A    between atoms: C_33  and  O_35
REMARK   11  A    between atoms: O_35  and  C_36
REMARK                            x       y       z     vdW  Elec       q    Type
REMARK                         _______ _______ _______ _____ _____    ______ ____
ROOT
ATOM      1  C   UNL     1       1.660  -5.904  -8.567  0.00  0.00    +0.038 C 
ATOM      2  C   UNL     1       0.855  -6.178  -9.616  0.00  0.00    +0.079 C 
ATOM      3  C   UNL     1       0.544  -7.633  -9.906  0.00  0.00    +0.144 C 
ATOM      4  N   UNL     1       1.151  -8.635  -9.013  0.00  0.00    -0.288 N 
ATOM      5  C   UNL     1       1.935  -8.205  -8.005  0.00  0.00    +0.304 C 
ATOM      6  O   UNL     1       2.440  -9.025  -7.263  0.00  0.00    -0.252 OA
ATOM      7  N   UNL     1       2.181  -6.905  -7.798  0.00  0.00    -0.271 N 
ATOM      8  H   UNL     1       0.989  -9.582  -9.148  0.00  0.00    +0.151 HD
ATOM      9  H   UNL     1       2.757  -6.661  -7.057  0.00  0.00    +0.156 HD
ENDROOT
BRANCH   3  10
ATOM     10  C   UNL     1      -0.952  -7.808  -9.852  0.00  0.00    -0.022 A 
ATOM     11  C   UNL     1      -1.589  -7.925  -8.630  0.00  0.00    +0.009 A 
ATOM     12  C   UNL     1      -2.960  -8.087  -8.578  0.00  0.00    +0.046 A 
ATOM     13  C   UNL     1      -3.697  -8.130  -9.753  0.00  0.00    +0.120 A 
ATOM     14  C   UNL     1      -3.055  -8.012 -10.977  0.00  0.00    +0.046 A 
ATOM     15  C   UNL     1      -1.685  -7.846 -11.023  0.00  0.00    +0.009 A 
BRANCH  13  16
ATOM     16  O   UNL     1      -5.046  -8.290  -9.704  0.00  0.00    -0.495 OA
ATOM     17  C   UNL     1      -5.741  -8.326 -10.953  0.00  0.00    +0.277 C 
ENDBRANCH  13  16
ENDBRANCH   3  10
BRANCH   2  18
ATOM     18  C   UNL     1       0.319  -5.142 -10.416  0.00  0.00    +0.339 C 
ATOM     19  O   UNL     1       0.480  -3.980 -10.095  0.00  0.00    -0.245 OA
BRANCH  18  20
ATOM     20  O   UNL     1      -0.371  -5.443 -11.536  0.00  0.00    -0.465 OA
ATOM     21  C   UNL     1      -0.884  -4.347 -12.297  0.00  0.00    +0.280 C 
ENDBRANCH  18  20
ENDBRANCH   2  18
BRANCH   1  22
ATOM     22  C   UNL     1       1.994  -4.471  -8.243  0.00  0.00    +0.136 C 
BRANCH  22  26
ATOM     23  N   UNL     1      -0.288  -2.515  -5.314  0.00  0.00    -0.327 N 
ATOM     24  C   UNL     1      -0.199  -1.870  -6.632  0.00  0.00    +0.120 C 
ATOM     25  C   UNL     1       1.021  -2.433  -7.369  0.00  0.00    +0.103 C 
ATOM     26  N   UNL     1       0.936  -3.900  -7.399  0.00  0.00    -0.294 NA
ATOM     27  C   UNL     1       0.981  -4.465  -6.044  0.00  0.00    +0.103 C 
ATOM     28  C   UNL     1      -0.234  -3.984  -5.253  0.00  0.00    +0.120 C 
BRANCH  23  32
ATOM     29  C   UNL     1      -0.662  -0.252  -1.854  0.00  0.00    +0.017 A 
ATOM     30  C   UNL     1      -0.734  -1.649  -1.790  0.00  0.00    +0.013 A 
ATOM     31  C   UNL     1      -0.610  -2.390  -2.930  0.00  0.00    +0.024 A 
ATOM     32  C   UNL     1      -0.413  -1.758  -4.156  0.00  0.00    +0.030 A 
ATOM     33  C   UNL     1      -0.341  -0.368  -4.224  0.00  0.00    +0.024 A 
ATOM     34  C   UNL     1      -0.469   0.380  -3.089  0.00  0.00    +0.013 A 
BRANCH  29  36
ATOM     35  C   UNL     1      -1.002  -0.133   0.697  0.00  0.00    +0.091 C 
ATOM     36  C   UNL     1      -0.795   0.549  -0.631  0.00  0.00    +0.160 C 
ATOM     37  O   UNL     1      -0.737   1.759  -0.689  0.00  0.00    -0.292 OA
ENDBRANCH  29  36
ENDBRANCH  23  32
ENDBRANCH  22  26
ENDBRANCH   1  22
TORSDOF 8
