REMARK  Name = ZINC13133683
REMARK  9 active torsions:
REMARK  status: ('A' for Active; 'I' for Inactive)
REMARK    1  A    between atoms: C_6  and  S_7
REMARK    2  A    between atoms: S_7  and  C_8
REMARK    3  A    between atoms: C_8  and  C_9
REMARK    4  A    between atoms: C_9  and  O_11
REMARK    5  A    between atoms: O_11  and  C_12
REMARK    6  A    between atoms: C_12  and  C_13
REMARK    7  A    between atoms: N_15  and  C_16
REMARK    8  A    between atoms: C_19  and  S_23
REMARK    9  A    between atoms: S_23  and  N_26
REMARK                            x       y       z     vdW  Elec       q    Type
REMARK                         _______ _______ _______ _____ _____    ______ ____
ROOT
ATOM      1  C   UNL     1       6.320  -7.295  -1.310  0.00  0.00    +0.255 C 
ATOM      2  O   UNL     1       6.006  -7.918  -2.302  0.00  0.00    -0.272 OA
ATOM      3  N   UNL     1       6.482  -7.935  -0.135  0.00  0.00    -0.280 N 
ATOM      4  H   UNL     1       6.804  -7.450   0.641  0.00  0.00    +0.155 HD
ENDROOT
BRANCH   3   5
ATOM      5  C   UNL     1       6.186  -9.300  -0.035  0.00  0.00    +0.071 A 
ATOM      6  C   UNL     1       4.901  -9.711   0.297  0.00  0.00    +0.065 A 
ATOM      7  C   UNL     1       4.612 -11.059   0.391  0.00  0.00    +0.050 A 
ATOM      8  C   UNL     1       5.601 -11.998   0.165  0.00  0.00    +0.108 A 
ATOM      9  C   UNL     1       6.882 -11.593  -0.161  0.00  0.00    +0.050 A 
ATOM     10  C   UNL     1       7.178 -10.246  -0.261  0.00  0.00    +0.065 A 
ATOM     11 CL   UNL     1       8.787  -9.738  -0.670  0.00  0.00    -0.082 Cl
ATOM     12 CL   UNL     1       3.660  -8.533   0.588  0.00  0.00    -0.082 Cl
BRANCH   8  13
ATOM     13  S   UNL     1       5.229 -13.716   0.291  0.00  0.00    +0.056 S 
ATOM     14  O   UNL     1       3.831 -13.846   0.073  0.00  0.00    -0.153 OA
ATOM     15  O   UNL     1       6.191 -14.399  -0.501  0.00  0.00    -0.153 OA
BRANCH  13  16
ATOM     16  N   UNL     1       5.505 -14.162   1.862  0.00  0.00    -0.204 NA
ATOM     17  H   UNL     1       4.990 -14.881   2.260  0.00  0.00    +0.144 HD
ATOM     18  H   UNL     1       6.183 -13.705   2.384  0.00  0.00    +0.144 HD
ENDBRANCH  13  16
ENDBRANCH   8  13
ENDBRANCH   3   5
BRANCH   1  19
ATOM     19  C   UNL     1       6.529  -5.804  -1.391  0.00  0.00    +0.328 C 
BRANCH  19  20
ATOM     20  O   UNL     1       6.296  -5.357  -2.752  0.00  0.00    -0.455 OA
BRANCH  20  21
ATOM     21  C   UNL     1       6.441  -4.045  -2.996  0.00  0.00    +0.318 C 
ATOM     22  O   UNL     1       6.753  -3.295  -2.101  0.00  0.00    -0.250 OA
BRANCH  21  23
ATOM     23  C   UNL     1       6.216  -3.506  -4.385  0.00  0.00    +0.194 C 
BRANCH  23  24
ATOM     24  S   UNL     1       6.488  -1.713  -4.390  0.00  0.00    -0.114 S 
BRANCH  24  30
ATOM     25  C   UNL     1       5.837  -2.200  -7.002  0.00  0.00    +0.018 A 
ATOM     26  C   UNL     1       5.606  -1.831  -8.313  0.00  0.00    +0.050 A 
ATOM     27  C   UNL     1       5.725  -0.503  -8.694  0.00  0.00    +0.162 A 
ATOM     28  C   UNL     1       6.076   0.460  -7.755  0.00  0.00    +0.163 A 
ATOM     29  C   UNL     1       6.309   0.090  -6.440  0.00  0.00    +0.064 A 
ATOM     30  C   UNL     1       6.190  -1.241  -6.061  0.00  0.00    +0.012 A 
ATOM     31  O   UNL     1       6.190   1.770  -8.109  0.00  0.00    -0.485 OA
ATOM     32  C   UNL     1       6.315   2.050  -9.507  0.00  0.00    +0.270 C 
ATOM     33  C   UNL     1       5.261   1.227 -10.259  0.00  0.00    +0.270 C 
ATOM     34  O   UNL     1       5.502  -0.159  -9.994  0.00  0.00    -0.485 OA
ENDBRANCH  24  30
ENDBRANCH  23  24
ENDBRANCH  21  23
ENDBRANCH  20  21
ENDBRANCH  19  20
ENDBRANCH   1  19
TORSDOF 9
