REMARK  Name = ZINC02087851
REMARK  7 active torsions:
REMARK  status: ('A' for Active; 'I' for Inactive)
REMARK    1  A    between atoms: C_1  and  C_2
REMARK    2  A    between atoms: C_9  and  N_13
REMARK    3  A    between atoms: C_10  and  C_11
REMARK    4  A    between atoms: C_14  and  C_16
REMARK    5  A    between atoms: N_18  and  C_19
REMARK    6  A    between atoms: C_20  and  C_30
REMARK    7  A    between atoms: C_25  and  C_29
REMARK                            x       y       z     vdW  Elec       q    Type
REMARK                         _______ _______ _______ _____ _____    ______ ____
ROOT
ATOM      1  N   UNL     1      -2.512   1.636   0.022  0.00  0.00    -0.271 N 
ATOM      2  C   UNL     1      -3.557   2.487   0.032  0.00  0.00    +0.304 C 
ATOM      3  O   UNL     1      -3.363   3.686   0.038  0.00  0.00    -0.265 OA
ATOM      4  H   UNL     1      -2.666   0.679   0.018  0.00  0.00    +0.156 HD
ENDROOT
BRANCH   1  12
ATOM      5  C   UNL     1       4.675   4.787   0.070  0.00  0.00    +0.008 C 
ATOM      6  C   UNL     1       3.498   3.856   0.366  0.00  0.00    -0.009 C 
ATOM      7  C   UNL     1       3.622   2.585  -0.480  0.00  0.00    +0.008 C 
ATOM      8  C   UNL     1       2.598   1.549  -0.015  0.00  0.00    +0.037 C 
ATOM      9  C   UNL     1       1.216   2.194   0.002  0.00  0.00    -0.018 A 
ATOM     10  C   UNL     1       1.084   3.540   0.011  0.00  0.00    -0.004 A 
ATOM     11  S   UNL     1      -0.665   3.825   0.029  0.00  0.00    -0.077 S 
ATOM     12  C   UNL     1      -1.217   2.129   0.019  0.00  0.00    +0.090 A 
ATOM     13  C   UNL     1      -0.017   1.428   0.010  0.00  0.00    +0.084 A 
ATOM     14  C   UNL     1       2.181   4.559   0.007  0.00  0.00    +0.046 C 
BRANCH  13  15
ATOM     15  C   UNL     1       0.002  -0.004   0.002  0.00  0.00    +0.102 C 
ATOM     16  N   UNL     1       0.018  -1.140  -0.004  0.00  0.00    -0.191 NA
ENDBRANCH  13  15
ENDBRANCH   1  12
BRANCH   2  17
ATOM     17  C   UNL     1      -4.950   1.957   0.035  0.00  0.00    +0.304 C 
ATOM     18  O   UNL     1      -5.143   0.758   0.030  0.00  0.00    -0.265 OA
ATOM     19  N   UNL     1      -5.995   2.808   0.045  0.00  0.00    -0.271 N 
ATOM     20  H   UNL     1      -5.840   3.766   0.050  0.00  0.00    +0.156 HD
BRANCH  19  21
ATOM     21  C   UNL     1      -7.289   2.315   0.048  0.00  0.00    +0.090 A 
ATOM     22  C   UNL     1      -8.489   3.016   0.058  0.00  0.00    +0.084 A 
ATOM     23  C   UNL     1      -9.723   2.250   0.058  0.00  0.00    -0.018 A 
ATOM     24  C   UNL     1      -9.590   0.904   0.050  0.00  0.00    -0.004 A 
ATOM     25  S   UNL     1      -7.841   0.619   0.033  0.00  0.00    -0.077 S 
ATOM     26  C   UNL     1     -10.688  -0.115   0.049  0.00  0.00    +0.046 C 
ATOM     27  C   UNL     1     -11.999   0.584   0.435  0.00  0.00    -0.009 C 
ATOM     28  C   UNL     1     -12.135   1.864  -0.395  0.00  0.00    +0.008 C 
ATOM     29  C   UNL     1     -11.105   2.896   0.067  0.00  0.00    +0.037 C 
ATOM     30  C   UNL     1     -13.180  -0.344   0.144  0.00  0.00    +0.008 C 
BRANCH  22  31
ATOM     31  C   UNL     1      -8.509   4.448   0.066  0.00  0.00    +0.102 C 
ATOM     32  N   UNL     1      -8.524   5.584   0.072  0.00  0.00    -0.191 NA
ENDBRANCH  22  31
ENDBRANCH  19  21
ENDBRANCH   2  17
TORSDOF 5
