REMARK  Name = ZINC13361561
REMARK  7 active torsions:
REMARK  status: ('A' for Active; 'I' for Inactive)
REMARK    1  A    between atoms: C_4  and  N_7
REMARK    2  A    between atoms: C_16  and  C_18
REMARK    3  A    between atoms: N_20  and  N_21
REMARK    4  A    between atoms: C_22  and  C_23
REMARK    5  A    between atoms: C_28  and  O_29
REMARK    6  A    between atoms: O_29  and  C_30
REMARK    7  A    between atoms: C_30  and  C_31
REMARK                            x       y       z     vdW  Elec       q    Type
REMARK                         _______ _______ _______ _____ _____    ______ ____
ROOT
ATOM      1  N   UNL     1      -1.175   3.514   0.032  0.00  0.00    -0.196 N 
ATOM      2  C   UNL     1      -1.256   2.173   0.144  0.00  0.00    +0.280 A 
ATOM      3  O   UNL     1      -2.336   1.622   0.255  0.00  0.00    -0.265 OA
ATOM      4  C   UNL     1      -0.012   1.392   0.135  0.00  0.00    +0.051 A 
ATOM      5  C   UNL     1       0.011   0.006   0.250  0.00  0.00    +0.014 A 
ATOM      6  C   UNL     1       1.222  -0.654   0.226  0.00  0.00    +0.001 A 
ATOM      7  C   UNL     1       2.411   0.050   0.089  0.00  0.00    +0.001 A 
ATOM      8  C   UNL     1       2.409   1.424  -0.027  0.00  0.00    +0.011 A 
ATOM      9  C   UNL     1       1.199   2.109  -0.004  0.00  0.00    +0.020 A 
ATOM     10  C   UNL     1       1.110   3.574  -0.122  0.00  0.00    +0.156 A 
ATOM     11  N   UNL     1      -0.070   4.147  -0.093  0.00  0.00    -0.158 NA
ENDROOT
BRANCH   1  15
ATOM     12  C   UNL     1      -4.712   5.715   0.079  0.00  0.00    +0.000 A 
ATOM     13  C   UNL     1      -4.479   4.762   1.054  0.00  0.00    +0.002 A 
ATOM     14  C   UNL     1      -3.308   4.030   1.041  0.00  0.00    +0.028 A 
ATOM     15  C   UNL     1      -2.362   4.253   0.048  0.00  0.00    +0.069 A 
ATOM     16  C   UNL     1      -2.596   5.216  -0.926  0.00  0.00    +0.028 A 
ATOM     17  C   UNL     1      -3.772   5.940  -0.911  0.00  0.00    +0.002 A 
ENDBRANCH   1  15
BRANCH  10  18
ATOM     18  C   UNL     1       2.332   4.387  -0.270  0.00  0.00    +0.284 C 
ATOM     19  O   UNL     1       3.422   3.848  -0.295  0.00  0.00    -0.267 OA
ATOM     20  N   UNL     1       2.240   5.727  -0.376  0.00  0.00    -0.202 N 
ATOM     21  H   UNL     1       1.371   6.157  -0.356  0.00  0.00    +0.178 HD
BRANCH  20  22
ATOM     22  N   UNL     1       3.401   6.500  -0.516  0.00  0.00    -0.187 NA
ATOM     23  C   UNL     1       3.313   7.791  -0.619  0.00  0.00    +0.142 C 
BRANCH  23  24
ATOM     24  C   UNL     1       4.534   8.603  -0.767  0.00  0.00    +0.036 A 
ATOM     25  C   UNL     1       4.443   9.992  -0.883  0.00  0.00    +0.013 A 
ATOM     26  C   UNL     1       5.590  10.747  -1.015  0.00  0.00    +0.001 A 
ATOM     27  C   UNL     1       6.830  10.133  -1.044  0.00  0.00    +0.004 A 
ATOM     28  C   UNL     1       6.933   8.759  -0.935  0.00  0.00    +0.046 A 
ATOM     29  C   UNL     1       5.792   7.986  -0.796  0.00  0.00    +0.130 A 
BRANCH  29  30
ATOM     30  O   UNL     1       5.891   6.636  -0.689  0.00  0.00    -0.480 OA
BRANCH  30  31
ATOM     31  C   UNL     1       7.206   6.077  -0.727  0.00  0.00    +0.353 C 
BRANCH  31  32
ATOM     32  C   UNL     1       7.120   4.579  -0.595  0.00  0.00    +0.393 C 
ATOM     33  O   UNL     1       6.042   4.044  -0.480  0.00  0.00    -0.243 OA
ATOM     34  O   UNL     1       8.239   3.838  -0.606  0.00  0.00    -0.243 OA
ENDBRANCH  31  32
ENDBRANCH  30  31
ENDBRANCH  29  30
ENDBRANCH  23  24
ENDBRANCH  20  22
ENDBRANCH  10  18
TORSDOF 7
