REMARK  Name = ZINC05009738
REMARK  6 active torsions:
REMARK  status: ('A' for Active; 'I' for Inactive)
REMARK    1  A    between atoms: C_1  and  C_2
REMARK    2  A    between atoms: C_2  and  C_4
REMARK    3  A    between atoms: C_2  and  O_17
REMARK    4  A    between atoms: N_6  and  C_7
REMARK    5  A    between atoms: C_12  and  N_13
REMARK    6  A    between atoms: O_17  and  C_18
REMARK                            x       y       z     vdW  Elec       q    Type
REMARK                         _______ _______ _______ _____ _____    ______ ____
ROOT
ATOM      1  C   UNL     1      -4.648   3.765  -0.847  0.00  0.00    +0.258 C 
ATOM      2  O   UNL     1      -4.386   4.861  -1.296  0.00  0.00    -0.271 OA
ATOM      3  N   UNL     1      -5.859   3.218  -1.070  0.00  0.00    -0.281 N 
ATOM      4  H   UNL     1      -6.091   2.370  -0.659  0.00  0.00    +0.155 HD
ENDROOT
BRANCH   3   5
ATOM      5  C   UNL     1      -6.782   3.873  -1.893  0.00  0.00    +0.064 A 
ATOM      6  C   UNL     1      -6.852   5.260  -1.894  0.00  0.00    +0.027 A 
ATOM      7  C   UNL     1      -7.764   5.903  -2.708  0.00  0.00    +0.022 A 
ATOM      8  C   UNL     1      -8.607   5.167  -3.522  0.00  0.00    +0.043 A 
ATOM      9  C   UNL     1      -8.540   3.785  -3.522  0.00  0.00    +0.054 A 
ATOM     10  C   UNL     1      -7.626   3.137  -2.715  0.00  0.00    +0.149 A 
ATOM     11 CL   UNL     1      -9.752   5.980  -4.543  0.00  0.00    -0.083 Cl
BRANCH  10  12
ATOM     12  N   UNL     1      -7.550   1.659  -2.721  0.00  0.00    +0.058 N 
ATOM     13  O   UNL     1      -8.226   1.017  -3.505  0.00  0.00    -0.126 OA
ATOM     14  O   UNL     1      -6.810   1.084  -1.943  0.00  0.00    -0.126 OA
ENDBRANCH  10  12
ENDBRANCH   3   5
BRANCH   1  16
ATOM     15  C   UNL     1      -4.166   2.746   1.361  0.00  0.00    +0.062 C 
ATOM     16  C   UNL     1      -3.618   3.014  -0.042  0.00  0.00    +0.256 C 
BRANCH  16  17
ATOM     17  O   UNL     1      -2.426   3.796   0.054  0.00  0.00    -0.480 OA
BRANCH  17  18
ATOM     18  C   UNL     1      -1.246   3.122   0.077  0.00  0.00    +0.122 A 
ATOM     19  C   UNL     1      -1.240   1.735   0.131  0.00  0.00    +0.045 A 
ATOM     20  C   UNL     1      -0.039   1.052   0.161  0.00  0.00    +0.004 A 
ATOM     21  C   UNL     1       1.155   1.749   0.125  0.00  0.00    +0.000 A 
ATOM     22  C   UNL     1       1.151   3.130   0.065  0.00  0.00    +0.004 A 
ATOM     23  C   UNL     1      -0.047   3.818   0.041  0.00  0.00    +0.045 A 
ENDBRANCH  17  18
ENDBRANCH  16  17
ENDBRANCH   1  16
TORSDOF 5
