REMARK  Name = ZINC66188023
REMARK  9 active torsions:
REMARK  status: ('A' for Active; 'I' for Inactive)
REMARK    1  A    between atoms: C_1  and  C_2
REMARK    2  A    between atoms: N_7  and  C_9
REMARK    3  A    between atoms: C_9  and  C_10
REMARK    4  A    between atoms: C_9  and  C_11
REMARK    5  A    between atoms: C_9  and  C_12
REMARK    6  A    between atoms: C_12  and  N_13
REMARK    7  A    between atoms: N_16  and  C_17
REMARK    8  A    between atoms: N_16  and  C_18
REMARK    9  A    between atoms: N_21  and  C_24
REMARK                            x       y       z     vdW  Elec       q    Type
REMARK                         _______ _______ _______ _____ _____    ______ ____
ROOT
ATOM      1  N   UNL     1       2.186  -4.461   1.142  0.00  0.00    -0.301 N 
ATOM      2  C   UNL     1       2.321  -5.782   0.914  0.00  0.00    +0.302 C 
ATOM      3  O   UNL     1       1.924  -6.584   1.738  0.00  0.00    -0.253 OA
ATOM      4  N   UNL     1       2.894  -6.215  -0.226  0.00  0.00    -0.286 N 
ATOM      5  C   UNL     1       3.372  -5.248  -1.218  0.00  0.00    +0.134 C 
ATOM      6  H   UNL     1       2.502  -3.821   0.485  0.00  0.00    +0.150 HD
ENDROOT
BRANCH   4   7
ATOM      7  C   UNL     1       3.041  -7.651  -0.473  0.00  0.00    +0.074 C 
ATOM      8  C   UNL     1       4.523  -7.992  -0.648  0.00  0.00    +0.004 C 
ATOM      9  C   UNL     1       4.663  -9.478  -0.985  0.00  0.00    -0.077 C 
ATOM     10  N   UNL     1       3.942  -9.772  -2.229  0.00  0.00    +0.382 N 
ATOM     11  C   UNL     1       2.508  -9.515  -2.047  0.00  0.00    -0.077 C 
ATOM     12  C   UNL     1       2.286  -8.030  -1.751  0.00  0.00    +0.004 C 
ATOM     13  H   UNL     1       4.296  -9.184  -2.969  0.00  0.00    -0.081 HD
BRANCH  10  14
ATOM     14  C   UNL     1       4.143 -11.181  -2.590  0.00  0.00    -0.064 C 
ATOM     15  C   UNL     1       5.636 -11.448  -2.801  0.00  0.00    +0.013 C 
ATOM     16  C   UNL     1       5.829 -12.898  -3.252  0.00  0.00    +0.158 C 
ATOM     17  O   UNL     1       5.080 -13.127  -4.447  0.00  0.00    -0.380 OA
ATOM     18  C   UNL     1       3.671 -12.939  -4.298  0.00  0.00    +0.158 C 
ATOM     19  C   UNL     1       3.392 -11.491  -3.888  0.00  0.00    +0.013 C 
ENDBRANCH  10  14
ENDBRANCH   4   7
BRANCH   1  20
ATOM     20  C   UNL     1       1.562  -3.991   2.382  0.00  0.00    +0.093 C 
BRANCH  20  21
ATOM     21  C   UNL     1       1.534  -2.461   2.390  0.00  0.00    -0.055 C 
ATOM     22  C   UNL     1       2.963  -1.924   2.303  0.00  0.00    -0.008 C 
ATOM     23  C   UNL     1       0.882  -1.970   3.685  0.00  0.00    -0.008 C 
BRANCH  21  29
ATOM     24  C   UNL     1      -0.019   1.526   0.010  0.00  0.00    +0.005 C 
ATOM     25  C   UNL     1       0.002  -0.004   0.002  0.00  0.00    -0.031 C 
ATOM     26  C   UNL     1      -1.434  -0.535   0.015  0.00  0.00    -0.001 C 
ATOM     27  C   UNL     1      -1.402  -2.064   0.086  0.00  0.00    -0.018 C 
ATOM     28  C   UNL     1      -0.613  -2.496   1.324  0.00  0.00    -0.078 C 
ATOM     29  N   UNL     1       0.758  -1.980   1.239  0.00  0.00    +0.384 N 
ATOM     30  C   UNL     1       0.740  -0.512   1.242  0.00  0.00    -0.075 C 
ATOM     31  H   UNL     1       1.188  -2.307   0.386  0.00  0.00    -0.081 HD
ENDBRANCH  21  29
ENDBRANCH  20  21
ENDBRANCH   1  20
TORSDOF 5
