REMARK  Name = ZINC63557863
REMARK  11 active torsions:
REMARK  status: ('A' for Active; 'I' for Inactive)
REMARK    1  A    between atoms: C_1  and  C_2
REMARK    2  A    between atoms: C_2  and  C_3
REMARK    3  A    between atoms: C_2  and  C_4
REMARK    4  A    between atoms: C_4  and  C_5
REMARK    5  A    between atoms: C_9  and  N_12
REMARK    6  A    between atoms: C_13  and  C_15
REMARK    7  A    between atoms: N_20  and  C_22
REMARK    8  A    between atoms: C_22  and  C_23
REMARK    9  A    between atoms: C_23  and  C_24
REMARK   10  A    between atoms: C_27  and  O_33
REMARK   11  A    between atoms: O_33  and  C_34
REMARK                            x       y       z     vdW  Elec       q    Type
REMARK                         _______ _______ _______ _____ _____    ______ ____
ROOT
ATOM      1  C   UNL     1      -4.580  -4.048  -5.630  0.00  0.00    +0.101 C 
ATOM      2  C   UNL     1      -3.385  -4.560  -6.468  0.00  0.00    +0.110 C 
ATOM      3  C   UNL     1      -4.029  -5.335  -7.597  0.00  0.00    +0.216 C 
ATOM      4  O   UNL     1      -3.452  -6.125  -8.314  0.00  0.00    -0.276 OA
ATOM      5  N   UNL     1      -5.332  -5.022  -7.689  0.00  0.00    -0.300 N 
ATOM      6  C   UNL     1      -5.714  -4.027  -6.678  0.00  0.00    +0.121 C 
ENDROOT
BRANCH   1   8
ATOM      7  N   UNL     1      -3.312  -2.464  -4.216  0.00  0.00    -0.290 N 
ATOM      8  C   UNL     1      -4.311  -2.665  -5.098  0.00  0.00    +0.220 C 
ATOM      9  O   UNL     1      -4.995  -1.731  -5.462  0.00  0.00    -0.275 OA
ATOM     10  H   UNL     1      -2.765  -3.210  -3.925  0.00  0.00    +0.151 HD
BRANCH   7  14
ATOM     11  C   UNL     1      -2.135  -0.131  -1.286  0.00  0.00    +0.130 C 
ATOM     12  N   UNL     1      -3.548  -0.620  -1.321  0.00  0.00    -0.241 NA
ATOM     13  N   UNL     1      -4.053  -0.742  -2.672  0.00  0.00    -0.227 NA
ATOM     14  C   UNL     1      -3.051  -1.119  -3.699  0.00  0.00    +0.216 C 
ATOM     15  S   UNL     1      -1.478  -1.075  -2.734  0.00  0.00    -0.102 S 
ATOM     16  H   UNL     1      -4.148  -0.031  -0.763  0.00  0.00    +0.142 HD
ATOM     17  H   UNL     1      -4.852  -1.357  -2.705  0.00  0.00    +0.143 HD
BRANCH  11  18
ATOM     18  C   UNL     1      -1.433  -0.534   0.013  0.00  0.00    +0.034 C 
BRANCH  18  20
ATOM     19  C   UNL     1      -0.019   1.526   0.010  0.00  0.00    +0.007 C 
ATOM     20  C   UNL     1       0.002  -0.004   0.002  0.00  0.00    -0.015 C 
ATOM     21  C   UNL     1       0.742  -0.511   1.242  0.00  0.00    +0.007 C 
ENDBRANCH  18  20
ENDBRANCH  11  18
ENDBRANCH   7  14
ENDBRANCH   1   8
BRANCH   5  22
ATOM     22  C   UNL     1      -6.254  -5.598  -8.670  0.00  0.00    +0.112 C 
BRANCH  22  23
ATOM     23  C   UNL     1      -6.896  -6.859  -8.088  0.00  0.00    +0.052 C 
BRANCH  23  24
ATOM     24  C   UNL     1      -7.844  -7.453  -9.098  0.00  0.00    -0.040 C 
ATOM     25  C   UNL     1      -7.577  -8.440  -9.982  0.00  0.00    +0.002 A 
ATOM     26  C   UNL     1      -6.370  -9.227 -10.260  0.00  0.00    +0.055 A 
ATOM     27  C   UNL     1      -6.399 -10.172 -11.230  0.00  0.00    +0.121 A 
ATOM     28  C   UNL     1      -7.553 -10.432 -11.991  0.00  0.00    +0.047 A 
ATOM     29  C   UNL     1      -8.710  -9.760 -11.809  0.00  0.00    +0.029 A 
ATOM     30  C   UNL     1      -8.791  -8.714 -10.784  0.00  0.00    +0.043 A 
ATOM     31  N   UNL     1      -9.770  -7.928 -10.411  0.00  0.00    -0.380 N 
ATOM     32  C   UNL     1      -9.290  -7.069  -9.323  0.00  0.00    +0.144 C 
ATOM     33  H   UNL     1     -10.664  -7.919 -10.787  0.00  0.00    +0.160 HD
BRANCH  27  34
ATOM     34  O   UNL     1      -5.274 -10.894 -11.477  0.00  0.00    -0.495 OA
ATOM     35  C   UNL     1      -5.349 -11.880 -12.509  0.00  0.00    +0.277 C 
ENDBRANCH  27  34
ENDBRANCH  23  24
ENDBRANCH  22  23
ENDBRANCH   5  22
TORSDOF 8
