REMARK  Name = ZINC18354523
REMARK  11 active torsions:
REMARK  status: ('A' for Active; 'I' for Inactive)
REMARK    1  A    between atoms: C_1  and  C_2
REMARK    2  A    between atoms: C_2  and  C_3
REMARK    3  A    between atoms: C_2  and  C_4
REMARK    4  A    between atoms: C_4  and  C_6
REMARK    5  A    between atoms: C_4  and  N_23
REMARK    6  A    between atoms: C_6  and  O_8
REMARK    7  A    between atoms: O_8  and  C_9
REMARK    8  A    between atoms: C_9  and  C_10
REMARK    9  A    between atoms: N_12  and  C_13
REMARK   10  A    between atoms: C_16  and  N_20
REMARK   11  A    between atoms: C_24  and  C_26
REMARK                            x       y       z     vdW  Elec       q    Type
REMARK                         _______ _______ _______ _____ _____    ______ ____
ROOT
ATOM      1  C   UNL     1      -6.034   1.677  -0.380  0.00  0.00    +0.328 C 
ATOM      2  O   UNL     1      -6.203   2.874  -0.386  0.00  0.00    -0.249 OA
ENDROOT
BRANCH   1   3
ATOM      3  C   UNL     1      -7.217   0.749  -0.483  0.00  0.00    +0.185 C 
BRANCH   3   4
ATOM      4  N   UNL     1      -8.448   1.537  -0.580  0.00  0.00    -0.298 N 
ATOM      5  C   UNL     1      -9.622   1.004  -0.185  0.00  0.00    +0.245 C 
ATOM      6  O   UNL     1      -9.658  -0.130   0.251  0.00  0.00    -0.270 OA
ATOM      7  H   UNL     1      -8.419   2.442  -0.928  0.00  0.00    +0.150 HD
BRANCH   5   8
ATOM      8  C   UNL     1     -10.864   1.798  -0.283  0.00  0.00    +0.037 A 
ATOM      9  C   UNL     1     -10.825   3.103  -0.778  0.00  0.00    +0.014 A 
ATOM     10  C   UNL     1     -11.988   3.837  -0.873  0.00  0.00    +0.021 A 
ATOM     11  C   UNL     1     -13.193   3.287  -0.467  0.00  0.00    +0.041 A 
ATOM     12  C   UNL     1     -13.237   1.995   0.031  0.00  0.00    +0.021 A 
ATOM     13  C   UNL     1     -12.081   1.249   0.125  0.00  0.00    +0.014 A 
ATOM     14 CL   UNL     1     -14.652   4.220  -0.582  0.00  0.00    -0.084 Cl
ENDBRANCH   5   8
ENDBRANCH   3   4
BRANCH   3  16
ATOM     15  C   UNL     1      -6.886   0.767  -2.960  0.00  0.00    +0.009 C 
ATOM     16  C   UNL     1      -7.071  -0.125  -1.730  0.00  0.00    +0.014 C 
ATOM     17  C   UNL     1      -5.853  -1.038  -1.574  0.00  0.00    +0.009 C 
ENDBRANCH   3  16
ENDBRANCH   1   3
BRANCH   1  18
ATOM     18  O   UNL     1      -4.793   1.175  -0.280  0.00  0.00    -0.454 OA
BRANCH  18  19
ATOM     19  C   UNL     1      -3.702   2.128  -0.184  0.00  0.00    +0.328 C 
BRANCH  19  20
ATOM     20  C   UNL     1      -2.395   1.385  -0.081  0.00  0.00    +0.255 C 
ATOM     21  O   UNL     1      -2.384   0.173  -0.088  0.00  0.00    -0.272 OA
ATOM     22  N   UNL     1      -1.238   2.069   0.019  0.00  0.00    -0.281 N 
ATOM     23  H   UNL     1      -1.251   3.035   0.105  0.00  0.00    +0.155 HD
BRANCH  22  24
ATOM     24  C   UNL     1      -0.016   1.385  -0.001  0.00  0.00    +0.052 A 
ATOM     25  C   UNL     1       0.076   0.144  -0.617  0.00  0.00    +0.027 A 
ATOM     26  C   UNL     1       1.283  -0.526  -0.640  0.00  0.00    +0.034 A 
ATOM     27  C   UNL     1       2.401   0.038  -0.052  0.00  0.00    +0.128 A 
ATOM     28  C   UNL     1       2.313   1.274   0.561  0.00  0.00    +0.054 A 
ATOM     29  C   UNL     1       1.108   1.950   0.589  0.00  0.00    +0.064 A 
ATOM     30 CL   UNL     1       0.999   3.502   1.359  0.00  0.00    -0.082 Cl
BRANCH  27  31
ATOM     31  N   UNL     1       3.693  -0.683  -0.080  0.00  0.00    +0.056 N 
ATOM     32  O   UNL     1       3.771  -1.772  -0.620  0.00  0.00    -0.126 OA
ATOM     33  O   UNL     1       4.678  -0.188   0.438  0.00  0.00    -0.126 OA
ENDBRANCH  27  31
ENDBRANCH  22  24
ENDBRANCH  19  20
ENDBRANCH  18  19
ENDBRANCH   1  18
TORSDOF 9
