REMARK  Name = ZINC35757799
REMARK  8 active torsions:
REMARK  status: ('A' for Active; 'I' for Inactive)
REMARK    1  A    between atoms: C_4  and  C_7
REMARK    2  A    between atoms: C_7  and  N_8
REMARK    3  A    between atoms: C_9  and  C_32
REMARK    4  A    between atoms: C_11  and  C_16
REMARK    5  A    between atoms: C_20  and  N_22
REMARK    6  A    between atoms: C_23  and  C_25
REMARK    7  A    between atoms: N_34  and  C_35
REMARK    8  A    between atoms: C_35  and  C_36
REMARK                            x       y       z     vdW  Elec       q    Type
REMARK                         _______ _______ _______ _____ _____    ______ ____
ROOT
ATOM      1  N   UNL     1       4.320  -1.430   1.471  0.00  0.00    -0.248 N 
ATOM      2  C   UNL     1       5.161  -0.478   2.222  0.00  0.00    +0.210 C 
ATOM      3  C   UNL     1       5.482  -1.271   3.511  0.00  0.00    +0.238 C 
ATOM      4  O   UNL     1       4.382  -2.199   3.575  0.00  0.00    -0.440 OA
ATOM      5  C   UNL     1       3.927  -2.394   2.326  0.00  0.00    +0.405 C 
ATOM      6  O   UNL     1       3.238  -3.340   2.001  0.00  0.00    -0.226 OA
ENDROOT
BRANCH   3   7
ATOM      7  C   UNL     1       5.492  -0.363   4.713  0.00  0.00    -0.003 A 
ATOM      8  C   UNL     1       4.310  -0.075   5.371  0.00  0.00    +0.007 A 
ATOM      9  C   UNL     1       4.315   0.758   6.475  0.00  0.00    +0.002 A 
ATOM     10  C   UNL     1       5.501   1.305   6.924  0.00  0.00    +0.023 A 
ATOM     11  C   UNL     1       6.689   1.018   6.266  0.00  0.00    +0.034 A 
ATOM     12  C   UNL     1       6.682   0.176   5.161  0.00  0.00    +0.030 A 
BRANCH  11  13
ATOM     13  N   UNL     1       7.892   1.570   6.718  0.00  0.00    -0.281 N 
ATOM     14  C   UNL     1       8.082   1.786   8.035  0.00  0.00    +0.251 C 
ATOM     15  O   UNL     1       7.249   1.413   8.838  0.00  0.00    -0.270 OA
ATOM     16  H   UNL     1       8.590   1.798   6.084  0.00  0.00    +0.155 HD
BRANCH  14  17
ATOM     17  C   UNL     1       9.301   2.476   8.502  0.00  0.00    +0.072 A 
ATOM     18  C   UNL     1      10.257   2.911   7.582  0.00  0.00    +0.016 A 
ATOM     19  C   UNL     1      11.393   3.554   8.025  0.00  0.00    +0.001 A 
ATOM     20  C   UNL     1      11.589   3.770   9.378  0.00  0.00    +0.003 A 
ATOM     21  C   UNL     1      10.649   3.343  10.297  0.00  0.00    +0.039 A 
ATOM     22  C   UNL     1       9.501   2.701   9.868  0.00  0.00    +0.135 A 
ATOM     23  F   UNL     1       8.579   2.289  10.765  0.00  0.00    -0.205 F 
ENDBRANCH  14  17
ENDBRANCH  11  13
ENDBRANCH   3   7
BRANCH   2  24
ATOM     24  C   UNL     1       4.394   0.781   2.539  0.00  0.00    +0.238 C 
ATOM     25  O   UNL     1       3.183   0.781   2.491  0.00  0.00    -0.274 OA
ATOM     26  N   UNL     1       5.056   1.906   2.875  0.00  0.00    -0.311 N 
ATOM     27  H   UNL     1       6.025   1.906   2.913  0.00  0.00    +0.149 HD
BRANCH  26  28
ATOM     28  C   UNL     1       4.311   3.129   3.183  0.00  0.00    +0.135 C 
BRANCH  28  29
ATOM     29  C   UNL     1       5.292   4.250   3.531  0.00  0.00    +0.135 C 
ATOM     30  C   UNL     1       4.515   5.508   3.974  0.00  0.00    +0.035 C 
ATOM     31  C   UNL     1       5.340   6.652   3.323  0.00  0.00    +0.031 C 
ATOM     32  C   UNL     1       5.808   5.968   2.013  0.00  0.00    +0.160 C 
ATOM     33  O   UNL     1       6.061   4.599   2.374  0.00  0.00    -0.375 OA
ENDBRANCH  28  29
ENDBRANCH  26  28
ENDBRANCH   2  24
BRANCH   1  34
ATOM     34  C   UNL     1       3.970  -1.340   0.051  0.00  0.00    +0.147 C 
BRANCH  34  38
ATOM     35  C   UNL     1       0.366   0.911  -0.389  0.00  0.00    +0.000 A 
ATOM     36  C   UNL     1       1.589   1.554  -0.410  0.00  0.00    +0.000 A 
ATOM     37  C   UNL     1       2.755   0.825  -0.268  0.00  0.00    +0.005 A 
ATOM     38  C   UNL     1       2.698  -0.546  -0.103  0.00  0.00    -0.030 A 
ATOM     39  C   UNL     1       1.475  -1.189  -0.081  0.00  0.00    +0.005 A 
ATOM     40  C   UNL     1       0.308  -0.461  -0.224  0.00  0.00    +0.000 A 
ENDBRANCH  34  38
ENDBRANCH   1  34
TORSDOF 8
