REMARK  Name = ZINC08710699
REMARK  8 active torsions:
REMARK  status: ('A' for Active; 'I' for Inactive)
REMARK    1  A    between atoms: C_1  and  C_2
REMARK    2  A    between atoms: C_2  and  C_3
REMARK    3  A    between atoms: C_3  and  C_32
REMARK    4  A    between atoms: N_6  and  N_10
REMARK    5  A    between atoms: C_11  and  C_13
REMARK    6  A    between atoms: C_13  and  S_14
REMARK    7  A    between atoms: S_14  and  C_15
REMARK    8  A    between atoms: N_19  and  C_20
REMARK                            x       y       z     vdW  Elec       q    Type
REMARK                         _______ _______ _______ _____ _____    ______ ____
ROOT
ATOM      1  S   UNL     1      -2.326   4.816  -3.247  0.00  0.00    -0.076 S 
ENDROOT
BRANCH   1   2
ATOM      2  C   UNL     1      -1.759   3.344  -2.463  0.00  0.00    +0.198 A 
ATOM      3  N   UNL     1      -2.008   2.118  -2.854  0.00  0.00    -0.120 NA
ATOM      4  N   UNL     1      -1.377   1.241  -1.962  0.00  0.00    -0.112 NA
ATOM      5  C   UNL     1      -0.762   1.958  -1.054  0.00  0.00    +0.225 A 
ATOM      6  N   UNL     1      -0.986   3.278  -1.335  0.00  0.00    -0.259 N 
ATOM      7  N   UNL     1      -0.018   1.464   0.010  0.00  0.00    -0.299 N 
ATOM      8  C   UNL     1       1.344   2.014   0.000  0.00  0.00    +0.108 C 
ATOM      9  C   UNL     1       2.086   1.565   1.261  0.00  0.00    +0.019 C 
ATOM     10  C   UNL     1       2.133   0.035   1.302  0.00  0.00    +0.003 C 
ATOM     11  C   UNL     1       0.704  -0.513   1.263  0.00  0.00    +0.019 C 
ATOM     12  C   UNL     1       0.002  -0.004   0.002  0.00  0.00    +0.108 C 
BRANCH   6  13
ATOM     13  C   UNL     1      -0.504   4.372  -0.600  0.00  0.00    +0.052 A 
ATOM     14  C   UNL     1      -0.938   4.578   0.703  0.00  0.00    +0.026 A 
ATOM     15  C   UNL     1      -0.459   5.653   1.426  0.00  0.00    +0.002 A 
ATOM     16  C   UNL     1       0.443   6.529   0.850  0.00  0.00    +0.000 A 
ATOM     17  C   UNL     1       0.873   6.328  -0.449  0.00  0.00    +0.002 A 
ATOM     18  C   UNL     1       0.401   5.252  -1.175  0.00  0.00    +0.026 A 
ENDBRANCH   6  13
ENDBRANCH   1   2
BRANCH   1  19
ATOM     19  C   UNL     1      -3.293   4.217  -4.660  0.00  0.00    +0.174 C 
BRANCH  19  21
ATOM     20  N   UNL     1      -4.598   5.187  -6.523  0.00  0.00    -0.223 N 
ATOM     21  C   UNL     1      -3.843   5.392  -5.426  0.00  0.00    +0.240 C 
ATOM     22  O   UNL     1      -3.606   6.523  -5.056  0.00  0.00    -0.273 OA
ATOM     23  H   UNL     1      -4.788   4.283  -6.819  0.00  0.00    +0.174 HD
BRANCH  20  27
ATOM     24  C   UNL     1      -6.486   7.879  -8.111  0.00  0.00    +0.111 C 
ATOM     25  C   UNL     1      -6.399   6.671  -7.199  0.00  0.00    +0.263 C 
ATOM     26  O   UNL     1      -7.300   6.164  -6.567  0.00  0.00    -0.271 OA
ATOM     27  N   UNL     1      -5.110   6.280  -7.236  0.00  0.00    -0.137 N 
ATOM     28  C   UNL     1      -4.380   7.059  -8.042  0.00  0.00    +0.326 C 
ATOM     29  O   UNL     1      -3.191   6.901  -8.240  0.00  0.00    -0.251 OA
ATOM     30  N   UNL     1      -5.108   8.038  -8.608  0.00  0.00    -0.284 N 
ATOM     31  C   UNL     1      -6.922   9.119  -7.329  0.00  0.00    +0.041 C 
ATOM     32  H   UNL     1      -4.789   8.716  -9.224  0.00  0.00    +0.151 HD
BRANCH  24  34
ATOM     33  C   UNL     1      -7.343   8.740 -10.295  0.00  0.00    +0.006 C 
ATOM     34  C   UNL     1      -7.448   7.609  -9.270  0.00  0.00    +0.032 C 
ENDBRANCH  24  34
ENDBRANCH  20  27
ENDBRANCH  19  21
ENDBRANCH   1  19
TORSDOF 6
