REMARK  Name = ZINC13507524
REMARK  10 active torsions:
REMARK  status: ('A' for Active; 'I' for Inactive)
REMARK    1  A    between atoms: C_1  and  C_2
REMARK    2  A    between atoms: C_6  and  N_8
REMARK    3  A    between atoms: N_8  and  C_9
REMARK    4  A    between atoms: C_9  and  C_11
REMARK    5  A    between atoms: C_9  and  C_17
REMARK    6  A    between atoms: C_14  and  C_16
REMARK    7  A    between atoms: N_19  and  C_20
REMARK    8  A    between atoms: C_26  and  C_28
REMARK    9  A    between atoms: C_28  and  N_29
REMARK   10  A    between atoms: C_30  and  C_32
REMARK                            x       y       z     vdW  Elec       q    Type
REMARK                         _______ _______ _______ _____ _____    ______ ____
ROOT
ATOM      1  N   UNL     1      -0.083   5.262  -0.317  0.00  0.00    -0.251 N 
ATOM      2  C   UNL     1      -1.242   5.900  -0.057  0.00  0.00    +0.238 C 
ATOM      3  O   UNL     1      -1.240   7.091   0.172  0.00  0.00    -0.273 OA
ENDROOT
BRANCH   1   9
ATOM      4  C   UNL     1      -2.380   0.948   0.217  0.00  0.00    +0.044 C 
ATOM      5  C   UNL     1      -1.154   1.749  -0.141  0.00  0.00    -0.049 A 
ATOM      6  C   UNL     1      -0.001   1.103  -0.546  0.00  0.00    +0.003 A 
ATOM      7  C   UNL     1       1.124   1.835  -0.880  0.00  0.00    +0.002 A 
ATOM      8  C   UNL     1       1.100   3.214  -0.805  0.00  0.00    +0.023 A 
ATOM      9  C   UNL     1      -0.056   3.865  -0.394  0.00  0.00    +0.038 A 
ATOM     10  C   UNL     1      -1.184   3.127  -0.059  0.00  0.00    +0.027 A 
ENDBRANCH   1   9
BRANCH   1  11
ATOM     11  C   UNL     1       1.147   6.032  -0.519  0.00  0.00    +0.233 C 
BRANCH  11  12
ATOM     12  C   UNL     1       1.692   5.754  -1.897  0.00  0.00    +0.135 A 
ATOM     13  C   UNL     1       2.239   6.663  -2.724  0.00  0.00    +0.047 A 
ATOM     14  C   UNL     1       2.613   5.973  -3.900  0.00  0.00    +0.045 A 
ATOM     15  C   UNL     1       2.272   4.684  -3.721  0.00  0.00    +0.102 A 
ATOM     16  O   UNL     1       1.721   4.556  -2.503  0.00  0.00    -0.462 OA
ATOM     17  C   UNL     1       2.482   3.571  -4.715  0.00  0.00    +0.086 C 
ENDBRANCH  11  12
BRANCH  11  18
ATOM     18  C   UNL     1       2.166   5.630   0.515  0.00  0.00    +0.242 C 
ATOM     19  O   UNL     1       1.892   4.784   1.340  0.00  0.00    -0.273 OA
ATOM     20  N   UNL     1       3.383   6.210   0.524  0.00  0.00    -0.311 N 
ATOM     21  H   UNL     1       3.602   6.887  -0.136  0.00  0.00    +0.149 HD
BRANCH  20  22
ATOM     22  C   UNL     1       4.374   5.820   1.529  0.00  0.00    +0.073 C 
ATOM     23  C   UNL     1       4.144   6.623   2.811  0.00  0.00    +0.022 C 
ATOM     24  C   UNL     1       5.179   6.215   3.861  0.00  0.00    +0.002 C 
ATOM     25  C   UNL     1       6.585   6.498   3.328  0.00  0.00    +0.000 C 
ATOM     26  C   UNL     1       6.815   5.694   2.046  0.00  0.00    +0.002 C 
ATOM     27  C   UNL     1       5.780   6.102   0.996  0.00  0.00    +0.022 C 
ENDBRANCH  20  22
ENDBRANCH  11  18
ENDBRANCH   1  11
BRANCH   2  28
ATOM     28  C   UNL     1      -2.539   5.133  -0.050  0.00  0.00    +0.201 C 
BRANCH  28  29
ATOM     29  N   UNL     1      -3.654   6.057  -0.274  0.00  0.00    -0.300 N 
ATOM     30  C   UNL     1      -4.918   5.592  -0.308  0.00  0.00    +0.280 C 
ATOM     31  O   UNL     1      -5.134   4.404  -0.153  0.00  0.00    -0.267 OA
ATOM     32  H   UNL     1      -3.482   7.003  -0.398  0.00  0.00    +0.150 HD
BRANCH  30  33
ATOM     33  C   UNL     1      -6.034   6.516  -0.533  0.00  0.00    +0.189 A 
ATOM     34  C   UNL     1      -7.356   6.180  -0.591  0.00  0.00    +0.054 A 
ATOM     35  C   UNL     1      -8.066   7.369  -0.821  0.00  0.00    +0.042 A 
ATOM     36  C   UNL     1      -7.157   8.367  -0.892  0.00  0.00    +0.196 A 
ATOM     37  O   UNL     1      -5.934   7.850  -0.713  0.00  0.00    -0.458 OA
ENDBRANCH  30  33
ENDBRANCH  28  29
ENDBRANCH   2  28
TORSDOF 8
