REMARK  Name = ZINC13151225
REMARK  14 active torsions:
REMARK  status: ('A' for Active; 'I' for Inactive)
REMARK    1  A    between atoms: C_1  and  C_2
REMARK    2  A    between atoms: C_2  and  C_3
REMARK    3  A    between atoms: C_3  and  C_5
REMARK    4  A    between atoms: C_3  and  N_14
REMARK    5  A    between atoms: N_9  and  C_10
REMARK    6  A    between atoms: C_10  and  C_11
REMARK    7  A    between atoms: C_11  and  O_12
REMARK    8  A    between atoms: O_12  and  C_13
REMARK    9  A    between atoms: N_14  and  C_15
REMARK   10  A    between atoms: N_14  and  C_30
REMARK   11  A    between atoms: C_15  and  C_16
REMARK   12  A    between atoms: C_19  and  C_29
REMARK   13  A    between atoms: C_21  and  C_28
REMARK   14  A    between atoms: C_30  and  C_31
REMARK                            x       y       z     vdW  Elec       q    Type
REMARK                         _______ _______ _______ _____ _____    ______ ____
ROOT
ATOM      1  N   UNL     1       0.049  -0.148  -2.620  0.00  0.00    +0.391 N 
ATOM      2  H   UNL     1      -0.774  -0.496  -2.151  0.00  0.00    -0.080 HD
ENDROOT
BRANCH   1   3
ATOM      3  C   UNL     1       1.199  -0.218  -1.708  0.00  0.00    +0.003 C 
BRANCH   3   4
ATOM      4  C   UNL     1       2.415   0.356  -2.389  0.00  0.00    +0.138 A 
ATOM      5  N   UNL     1       2.808   0.122  -3.618  0.00  0.00    -0.115 NA
ATOM      6  N   UNL     1       3.886   0.795  -3.826  0.00  0.00    -0.023 NA
ATOM      7  N   UNL     1       4.191   1.453  -2.762  0.00  0.00    -0.044 NA
ATOM      8  N   UNL     1       3.305   1.213  -1.856  0.00  0.00    -0.229 N 
BRANCH   8   9
ATOM      9  C   UNL     1       3.276   1.766  -0.499  0.00  0.00    +0.175 C 
BRANCH   9  10
ATOM     10  C   UNL     1       4.055   0.846   0.443  0.00  0.00    +0.183 C 
BRANCH  10  11
ATOM     11  O   UNL     1       4.026   1.385   1.766  0.00  0.00    -0.381 OA
ATOM     12  C   UNL     1       4.728   0.597   2.730  0.00  0.00    +0.194 C 
ENDBRANCH  10  11
ENDBRANCH   9  10
ENDBRANCH   8   9
ENDBRANCH   3   4
BRANCH   3  14
ATOM     13  C   UNL     1       0.255  -2.240  -0.586  0.00  0.00    +0.002 C 
ATOM     14  C   UNL     1       1.465  -1.677  -1.333  0.00  0.00    -0.011 C 
ENDBRANCH   3  14
ENDBRANCH   1   3
BRANCH   1  15
ATOM     15  C   UNL     1       0.317  -0.968  -3.809  0.00  0.00    -0.036 C 
BRANCH  15  16
ATOM     16  C   UNL     1      -0.918  -1.022  -4.671  0.00  0.00    +0.001 A 
ATOM     17  C   UNL     1      -1.049  -0.171  -5.718  0.00  0.00    +0.017 A 
ATOM     18  C   UNL     1      -2.261  -0.249  -6.536  0.00  0.00    +0.002 A 
ATOM     19  C   UNL     1      -2.453   0.602  -7.629  0.00  0.00    -0.041 A 
ATOM     20  C   UNL     1      -3.595   0.503  -8.372  0.00  0.00    +0.007 A 
ATOM     21  C   UNL     1      -4.567  -0.435  -8.052  0.00  0.00    -0.048 A 
ATOM     22  C   UNL     1      -4.399  -1.284  -6.979  0.00  0.00    +0.029 A 
ATOM     23  C   UNL     1      -3.244  -1.202  -6.208  0.00  0.00    +0.050 A 
ATOM     24  N   UNL     1      -3.050  -2.039  -5.130  0.00  0.00    -0.322 N 
ATOM     25  H   UNL     1      -3.729  -2.695  -4.906  0.00  0.00    +0.169 HD
ATOM     26  C   UNL     1      -1.931  -1.963  -4.388  0.00  0.00    +0.251 A 
ATOM     27  O   UNL     1      -1.791  -2.722  -3.446  0.00  0.00    -0.268 OA
ATOM     28  C   UNL     1      -5.819  -0.526  -8.886  0.00  0.00    +0.044 C 
ATOM     29  C   UNL     1      -1.405   1.625  -7.985  0.00  0.00    +0.044 C 
ENDBRANCH  15  16
ENDBRANCH   1  15
BRANCH   1  30
ATOM     30  C   UNL     1      -0.171   1.246  -3.026  0.00  0.00    -0.045 C 
BRANCH  30  31
ATOM     31  C   UNL     1      -0.684   2.050  -1.830  0.00  0.00    +0.102 C 
ATOM     32  C   UNL     1      -1.063   3.477  -2.282  0.00  0.00    +0.032 C 
ATOM     33  C   UNL     1      -0.568   4.343  -1.091  0.00  0.00    +0.030 C 
ATOM     34  C   UNL     1       0.691   3.551  -0.656  0.00  0.00    +0.160 C 
ATOM     35  O   UNL     1       0.348   2.167  -0.844  0.00  0.00    -0.378 OA
ENDBRANCH  30  31
ENDBRANCH   1  30
TORSDOF 10
