REMARK  Name = ZINC20910440
REMARK  10 active torsions:
REMARK  status: ('A' for Active; 'I' for Inactive)
REMARK    1  A    between atoms: C_1  and  C_2
REMARK    2  A    between atoms: C_2  and  C_3
REMARK    3  A    between atoms: C_2  and  N_4
REMARK    4  A    between atoms: C_6  and  C_9
REMARK    5  A    between atoms: N_10  and  N_11
REMARK    6  A    between atoms: C_14  and  S_17
REMARK    7  A    between atoms: S_17  and  C_18
REMARK    8  A    between atoms: C_18  and  C_19
REMARK    9  A    between atoms: N_21  and  C_22
REMARK   10  A    between atoms: C_23  and  C_31
REMARK                            x       y       z     vdW  Elec       q    Type
REMARK                         _______ _______ _______ _____ _____    ______ ____
ROOT
ATOM      1  N   UNL     1      -2.130  -3.029   0.005  0.00  0.00    -0.205 N 
ATOM      2  C   UNL     1      -1.958  -4.405  -0.004  0.00  0.00    +0.232 A 
ATOM      3  N   UNL     1      -2.956  -5.340   0.001  0.00  0.00    -0.186 NA
ATOM      4  C   UNL     1      -2.375  -6.577  -0.011  0.00  0.00    +0.211 A 
ATOM      5  N   UNL     1      -1.074  -6.414  -0.022  0.00  0.00    -0.144 NA
ATOM      6  N   UNL     1      -0.810  -5.038  -0.023  0.00  0.00    -0.245 N 
ATOM      7  H   UNL     1      -3.144  -2.601   0.017  0.00  0.00    +0.177 HD
ATOM      8  H   UNL     1       0.131  -4.469  -0.037  0.00  0.00    +0.192 HD
ENDROOT
BRANCH   1  10
ATOM      9  C   UNL     1      -1.175  -0.895   0.008  0.00  0.00    +0.141 C 
ATOM     10  N   UNL     1      -1.014  -2.183  -0.000  0.00  0.00    -0.187 NA
BRANCH   9  13
ATOM     11  N   UNL     1       1.265   1.794  -0.000  0.00  0.00    -0.268 N 
ATOM     12  C   UNL     1      -0.017   1.374   0.010  0.00  0.00    +0.118 A 
ATOM     13  C   UNL     1       0.002  -0.004   0.002  0.00  0.00    +0.032 A 
ATOM     14  C   UNL     1       1.355  -0.405  -0.013  0.00  0.00    +0.143 A 
ATOM     15  N   UNL     1       2.098   0.669  -0.014  0.00  0.00    -0.179 NA
BRANCH  11  17
ATOM     16  C   UNL     1       1.730   3.722  -1.432  0.00  0.00    +0.032 C 
ATOM     17  C   UNL     1       1.709   3.190   0.003  0.00  0.00    +0.101 C 
ATOM     18  C   UNL     1       0.746   4.030   0.844  0.00  0.00    +0.032 C 
ENDBRANCH  11  17
ENDBRANCH   9  13
ENDBRANCH   1  10
BRANCH   4  19
ATOM     19  S   UNL     1      -3.226  -8.120  -0.011  0.00  0.00    -0.075 S 
BRANCH  19  20
ATOM     20  C   UNL     1      -1.896  -9.354  -0.030  0.00  0.00    +0.173 C 
BRANCH  20  21
ATOM     21  C   UNL     1      -2.495 -10.737  -0.032  0.00  0.00    +0.228 C 
ATOM     22  O   UNL     1      -3.699 -10.877  -0.021  0.00  0.00    -0.275 OA
ATOM     23  N   UNL     1      -1.691 -11.819  -0.045  0.00  0.00    -0.278 N 
ATOM     24  H   UNL     1      -0.598 -11.692  -0.055  0.00  0.00    +0.155 HD
BRANCH  23  25
ATOM     25  C   UNL     1      -2.242 -13.093  -0.047  0.00  0.00    +0.090 A 
ATOM     26  C   UNL     1      -1.587 -14.315  -0.065  0.00  0.00    +0.084 A 
ATOM     27  C   UNL     1      -2.404 -15.516  -0.058  0.00  0.00    -0.018 A 
ATOM     28  C   UNL     1      -3.739 -15.303  -0.045  0.00  0.00    -0.004 A 
ATOM     29  S   UNL     1      -3.916 -13.542  -0.034  0.00  0.00    -0.077 S 
ATOM     30  C   UNL     1      -4.818 -16.341  -0.042  0.00  0.00    +0.043 C 
ATOM     31  C   UNL     1      -4.195 -17.689  -0.433  0.00  0.00    +0.005 C 
ATOM     32  C   UNL     1      -2.922 -17.901   0.391  0.00  0.00    +0.005 C 
ATOM     33  C   UNL     1      -1.835 -16.929  -0.070  0.00  0.00    +0.037 C 
BRANCH  26  34
ATOM     34  C   UNL     1      -0.157 -14.390  -0.086  0.00  0.00    +0.102 C 
ATOM     35  N   UNL     1       0.977 -14.450  -0.102  0.00  0.00    -0.191 NA
ENDBRANCH  26  34
ENDBRANCH  23  25
ENDBRANCH  20  21
ENDBRANCH  19  20
ENDBRANCH   4  19
TORSDOF 8
