REMARK  Name = ZINC10014349
REMARK  8 active torsions:
REMARK  status: ('A' for Active; 'I' for Inactive)
REMARK    1  A    between atoms: C_1  and  C_2
REMARK    2  A    between atoms: C_2  and  C_4
REMARK    3  A    between atoms: C_2  and  S_17
REMARK    4  A    between atoms: N_6  and  C_7
REMARK    5  A    between atoms: C_9  and  N_14
REMARK    6  A    between atoms: S_17  and  C_18
REMARK    7  A    between atoms: C_21  and  C_24
REMARK    8  A    between atoms: N_22  and  C_23
REMARK                            x       y       z     vdW  Elec       q    Type
REMARK                         _______ _______ _______ _____ _____    ______ ____
ROOT
ATOM      1  C   UNL     1      -2.692   0.952   1.358  0.00  0.00    +0.029 C 
ATOM      2  C   UNL     1      -2.734   0.168   0.045  0.00  0.00    +0.137 C 
ENDROOT
BRANCH   2   3
ATOM      3  C   UNL     1      -4.063  -0.530  -0.081  0.00  0.00    +0.230 C 
ATOM      4  O   UNL     1      -4.178  -1.684   0.276  0.00  0.00    -0.274 OA
ATOM      5  N   UNL     1      -5.124   0.127  -0.590  0.00  0.00    -0.283 N 
ATOM      6  H   UNL     1      -5.050   1.067  -0.814  0.00  0.00    +0.155 HD
BRANCH   5   7
ATOM      7  C   UNL     1      -6.333  -0.548  -0.794  0.00  0.00    +0.054 A 
ATOM      8  C   UNL     1      -6.729  -1.548   0.084  0.00  0.00    +0.057 A 
ATOM      9  C   UNL     1      -7.923  -2.212  -0.120  0.00  0.00    +0.128 A 
ATOM     10  C   UNL     1      -8.725  -1.882  -1.197  0.00  0.00    +0.034 A 
ATOM     11  C   UNL     1      -8.334  -0.887  -2.074  0.00  0.00    +0.024 A 
ATOM     12  C   UNL     1      -7.143  -0.215  -1.873  0.00  0.00    +0.062 A 
ATOM     13 CL   UNL     1      -6.656   1.040  -2.970  0.00  0.00    -0.082 Cl
BRANCH   9  14
ATOM     14  N   UNL     1      -8.345  -3.278   0.816  0.00  0.00    +0.056 N 
ATOM     15  O   UNL     1      -7.639  -3.570   1.765  0.00  0.00    -0.126 OA
ATOM     16  O   UNL     1      -9.398  -3.864   0.637  0.00  0.00    -0.126 OA
ENDBRANCH   9  14
ENDBRANCH   5   7
ENDBRANCH   2   3
BRANCH   2  17
ATOM     17  S   UNL     1      -1.404  -1.060   0.033  0.00  0.00    -0.074 S 
BRANCH  17  18
ATOM     18  C   UNL     1      -0.002   0.008   0.038  0.00  0.00    +0.192 A 
ATOM     19  N   UNL     1      -0.023   1.322   0.048  0.00  0.00    -0.122 NA
ATOM     20  N   UNL     1       1.176   1.784   0.049  0.00  0.00    -0.125 NA
ATOM     21  C   UNL     1       2.039   0.792   0.039  0.00  0.00    +0.200 A 
ATOM     22  N   UNL     1       1.310  -0.377   0.032  0.00  0.00    -0.303 N 
ATOM     23  C   UNL     1       1.831  -1.746   0.020  0.00  0.00    +0.153 C 
BRANCH  21  24
ATOM     24  C   UNL     1       3.506   0.908   0.037  0.00  0.00    +0.172 A 
ATOM     25  C   UNL     1       4.219   2.034  -0.247  0.00  0.00    +0.053 A 
ATOM     26  C   UNL     1       5.580   1.692  -0.127  0.00  0.00    +0.042 A 
ATOM     27  C   UNL     1       5.633   0.389   0.211  0.00  0.00    +0.196 A 
ATOM     28  O   UNL     1       4.378  -0.082   0.310  0.00  0.00    -0.460 OA
ENDBRANCH  21  24
ENDBRANCH  17  18
ENDBRANCH   2  17
TORSDOF 6
