REMARK  Name = ZINC09142527
REMARK  11 active torsions:
REMARK  status: ('A' for Active; 'I' for Inactive)
REMARK    1  A    between atoms: C_1  and  C_2
REMARK    2  A    between atoms: C_5  and  S_8
REMARK    3  A    between atoms: S_8  and  N_11
REMARK    4  A    between atoms: N_11  and  C_12
REMARK    5  A    between atoms: C_12  and  C_13
REMARK    6  A    between atoms: C_13  and  C_14
REMARK    7  A    between atoms: C_20  and  C_22
REMARK    8  A    between atoms: C_22  and  S_23
REMARK    9  A    between atoms: S_23  and  C_24
REMARK   10  A    between atoms: C_24  and  C_25
REMARK   11  A    between atoms: C_28  and  N_31
REMARK                            x       y       z     vdW  Elec       q    Type
REMARK                         _______ _______ _______ _____ _____    ______ ____
ROOT
ATOM      1  C   UNL     1       3.456  -3.136  -4.635  0.00  0.00    +0.105 A 
ATOM      2  N   UNL     1       4.658  -3.675  -4.684  0.00  0.00    -0.145 NA
ATOM      3  N   UNL     1       5.515  -3.262  -5.514  0.00  0.00    -0.126 NA
ATOM      4  C   UNL     1       5.250  -2.283  -6.362  0.00  0.00    +0.188 A 
ATOM      5  S   UNL     1       3.604  -1.917  -5.935  0.00  0.00    -0.035 S 
ATOM      6  N   UNL     1       6.063  -1.708  -7.333  0.00  0.00    -0.263 N 
ATOM      7  C   UNL     1       7.324  -2.152  -7.506  0.00  0.00    +0.229 C 
ATOM      8  O   UNL     1       7.750  -3.052  -6.814  0.00  0.00    -0.275 OA
ATOM      9  H   UNL     1       5.722  -0.988  -7.886  0.00  0.00    +0.157 HD
ENDROOT
BRANCH   1  10
ATOM     10  C   UNL     1       2.286  -3.461  -3.742  0.00  0.00    +0.081 C 
BRANCH  10  11
ATOM     11  C   UNL     1       2.360  -2.607  -2.474  0.00  0.00    +0.112 C 
BRANCH  11  12
ATOM     12  N   UNL     1       1.223  -2.923  -1.606  0.00  0.00    -0.190 NA
ATOM     13  H   UNL     1       0.465  -3.414  -1.959  0.00  0.00    +0.148 HD
BRANCH  12  14
ATOM     14  S   UNL     1       1.232  -2.441  -0.022  0.00  0.00    +0.058 S 
ATOM     15  O   UNL     1       2.489  -2.832   0.515  0.00  0.00    -0.153 OA
ATOM     16  O   UNL     1      -0.002  -2.866   0.539  0.00  0.00    -0.153 OA
BRANCH  14  21
ATOM     17  C   UNL     1       1.151   3.592   0.010  0.00  0.00    +0.044 C 
ATOM     18  C   UNL     1       1.171   2.086   0.002  0.00  0.00    -0.050 A 
ATOM     19  C   UNL     1      -0.017   1.378   0.010  0.00  0.00    +0.005 A 
ATOM     20  C   UNL     1       0.002  -0.004   0.002  0.00  0.00    +0.029 A 
ATOM     21  C   UNL     1       1.208  -0.679  -0.013  0.00  0.00    +0.105 A 
ATOM     22  C   UNL     1       2.396   0.029  -0.021  0.00  0.00    +0.029 A 
ATOM     23  C   UNL     1       2.377   1.411  -0.015  0.00  0.00    +0.005 A 
ENDBRANCH  14  21
ENDBRANCH  12  14
ENDBRANCH  11  12
ENDBRANCH  10  11
ENDBRANCH   1  10
BRANCH   7  24
ATOM     24  C   UNL     1       8.205  -1.529  -8.558  0.00  0.00    +0.165 C 
BRANCH  24  25
ATOM     25  S   UNL     1       9.829  -2.337  -8.543  0.00  0.00    -0.147 S 
BRANCH  25  26
ATOM     26  C   UNL     1      10.755  -1.484  -9.848  0.00  0.00    +0.104 C 
BRANCH  26  27
ATOM     27  C   UNL     1      12.142  -2.066  -9.943  0.00  0.00    -0.037 A 
ATOM     28  C   UNL     1      13.170  -1.530  -9.191  0.00  0.00    +0.006 A 
ATOM     29  C   UNL     1      14.441  -2.068  -9.274  0.00  0.00    +0.033 A 
ATOM     30  C   UNL     1      14.685  -3.135 -10.118  0.00  0.00    +0.126 A 
ATOM     31  C   UNL     1      13.659  -3.668 -10.874  0.00  0.00    +0.033 A 
ATOM     32  C   UNL     1      12.387  -3.133 -10.787  0.00  0.00    +0.006 A 
BRANCH  30  33
ATOM     33  N   UNL     1      16.047  -3.708 -10.211  0.00  0.00    +0.056 N 
ATOM     34  O   UNL     1      16.263  -4.648 -10.954  0.00  0.00    -0.126 OA
ATOM     35  O   UNL     1      16.952  -3.238  -9.545  0.00  0.00    -0.126 OA
ENDBRANCH  30  33
ENDBRANCH  26  27
ENDBRANCH  25  26
ENDBRANCH  24  25
ENDBRANCH   7  24
TORSDOF 10
