REMARK  Name = ZINC28054321
REMARK  6 active torsions:
REMARK  status: ('A' for Active; 'I' for Inactive)
REMARK    1  A    between atoms: C_1  and  C_2
REMARK    2  A    between atoms: C_5  and  C_8
REMARK    3  A    between atoms: C_19  and  C_21
REMARK    4  A    between atoms: C_24  and  C_27
REMARK    5  A    between atoms: C_27  and  C_28
REMARK    6  A    between atoms: C_27  and  C_29
REMARK                            x       y       z     vdW  Elec       q    Type
REMARK                         _______ _______ _______ _____ _____    ______ ____
ROOT
ATOM      1  C   UNL     1      -0.889   2.398   0.058  0.00  0.00    +0.174 C 
ATOM      2  C   UNL     1      -0.547   3.820  -0.312  0.00  0.00    +0.025 C 
ATOM      3  C   UNL     1       0.712   4.253  -0.399  0.00  0.00    +0.050 C 
ATOM      4  C   UNL     1       0.949   5.662  -0.795  0.00  0.00    +0.038 A 
ATOM      5  C   UNL     1       2.179   6.276  -0.594  0.00  0.00    +0.013 A 
ATOM      6  C   UNL     1       2.356   7.590  -0.982  0.00  0.00    +0.001 A 
ATOM      7  C   UNL     1       1.316   8.291  -1.568  0.00  0.00    +0.004 A 
ATOM      8  C   UNL     1       0.088   7.687  -1.771  0.00  0.00    +0.046 A 
ATOM      9  C   UNL     1      -0.103   6.374  -1.385  0.00  0.00    +0.131 A 
ATOM     10  O   UNL     1      -1.293   5.747  -1.566  0.00  0.00    -0.479 OA
ATOM     11  C   UNL     1      -1.678   4.787  -0.582  0.00  0.00    +0.234 C 
ATOM     12  N   UNL     1       1.808   3.420  -0.144  0.00  0.00    -0.282 N 
ATOM     13  C   UNL     1       1.568   2.057  -0.083  0.00  0.00    +0.240 A 
ATOM     14  N   UNL     1       0.304   1.565   0.002  0.00  0.00    -0.201 N 
ATOM     15  N   UNL     1       0.446   0.178   0.024  0.00  0.00    -0.042 NA
ATOM     16  N   UNL     1       1.716  -0.063  -0.037  0.00  0.00    -0.021 NA
ATOM     17  N   UNL     1       2.380   1.040  -0.099  0.00  0.00    -0.092 NA
ATOM     18  H   UNL     1       2.808   3.854  -0.001  0.00  0.00    +0.155 HD
ENDROOT
BRANCH   1  23
ATOM     19  C   UNL     1      -3.058   2.279   5.412  0.00  0.00    +0.044 C 
ATOM     20  C   UNL     1      -2.492   2.310   4.016  0.00  0.00    -0.050 A 
ATOM     21  C   UNL     1      -3.257   1.873   2.951  0.00  0.00    +0.004 A 
ATOM     22  C   UNL     1      -2.738   1.902   1.670  0.00  0.00    +0.006 A 
ATOM     23  C   UNL     1      -1.455   2.367   1.454  0.00  0.00    -0.019 A 
ATOM     24  C   UNL     1      -0.688   2.799   2.520  0.00  0.00    +0.006 A 
ATOM     25  C   UNL     1      -1.208   2.775   3.800  0.00  0.00    +0.004 A 
ENDBRANCH   1  23
BRANCH  11  26
ATOM     26  C   UNL     1      -2.035   5.502   0.696  0.00  0.00    -0.003 A 
ATOM     27  C   UNL     1      -3.200   5.178   1.367  0.00  0.00    +0.008 A 
ATOM     28  C   UNL     1      -3.525   5.830   2.541  0.00  0.00    +0.004 A 
ATOM     29  C   UNL     1      -2.692   6.814   3.040  0.00  0.00    -0.045 A 
ATOM     30  C   UNL     1      -1.530   7.142   2.366  0.00  0.00    +0.004 A 
ATOM     31  C   UNL     1      -1.202   6.486   1.194  0.00  0.00    +0.008 A 
BRANCH  29  32
ATOM     32  C   UNL     1      -3.049   7.528   4.318  0.00  0.00    +0.013 C 
ATOM     33  C   UNL     1      -4.394   8.236   4.148  0.00  0.00    +0.012 C 
ATOM     34  C   UNL     1      -3.147   6.513   5.459  0.00  0.00    +0.012 C 
ENDBRANCH  29  32
ENDBRANCH  11  26
TORSDOF 3
