REMARK  Name = ZINC04736074
REMARK  8 active torsions:
REMARK  status: ('A' for Active; 'I' for Inactive)
REMARK    1  A    between atoms: C_1  and  C_2
REMARK    2  A    between atoms: C_5  and  C_8
REMARK    3  A    between atoms: C_11  and  S_14
REMARK    4  A    between atoms: N_12  and  C_13
REMARK    5  A    between atoms: S_14  and  C_15
REMARK    6  A    between atoms: C_15  and  C_17
REMARK    7  A    between atoms: C_15  and  C_18
REMARK    8  A    between atoms: N_20  and  C_21
REMARK                            x       y       z     vdW  Elec       q    Type
REMARK                         _______ _______ _______ _____ _____    ______ ____
ROOT
ATOM      1  C   UNL     1       0.410   1.349   0.376  0.00  0.00    +0.137 C 
ATOM      2  C   UNL     1      -0.215   1.811  -0.942  0.00  0.00    +0.029 C 
ENDROOT
BRANCH   1   3
ATOM      3  C   UNL     1       1.792   1.934   0.509  0.00  0.00    +0.230 C 
ATOM      4  O   UNL     1       1.972   2.914   1.201  0.00  0.00    -0.274 OA
ATOM      5  N   UNL     1       2.829   1.369  -0.141  0.00  0.00    -0.284 N 
ATOM      6  H   UNL     1       2.696   0.552  -0.648  0.00  0.00    +0.155 HD
BRANCH   5   7
ATOM      7  C   UNL     1       4.097   1.961  -0.086  0.00  0.00    +0.037 A 
ATOM      8  C   UNL     1       4.937   1.909  -1.191  0.00  0.00    +0.027 A 
ATOM      9  C   UNL     1       6.187   2.496  -1.139  0.00  0.00    +0.051 A 
ATOM     10  C   UNL     1       6.609   3.130   0.018  0.00  0.00    +0.166 A 
ATOM     11  C   UNL     1       5.772   3.179   1.130  0.00  0.00    +0.168 A 
ATOM     12  C   UNL     1       4.517   2.595   1.075  0.00  0.00    +0.072 A 
ATOM     13  O   UNL     1       6.413   3.852   2.130  0.00  0.00    -0.453 OA
ATOM     14  C   UNL     1       7.804   3.856   1.760  0.00  0.00    +0.466 C 
ATOM     15  O   UNL     1       7.776   3.772   0.323  0.00  0.00    -0.453 OA
ENDBRANCH   5   7
ENDBRANCH   1   3
BRANCH   1  16
ATOM     16  S   UNL     1      -0.617   1.907   1.758  0.00  0.00    -0.074 S 
BRANCH  16  20
ATOM     17  C   UNL     1      -4.089   0.126   1.565  0.00  0.00    +0.165 A 
ATOM     18  N   UNL     1      -3.457  -0.361   0.523  0.00  0.00    -0.128 NA
ATOM     19  N   UNL     1      -2.276   0.141   0.452  0.00  0.00    -0.122 NA
ATOM     20  C   UNL     1      -2.082   0.980   1.444  0.00  0.00    +0.192 A 
ATOM     21  N   UNL     1      -3.226   0.996   2.190  0.00  0.00    -0.305 N 
ATOM     22  C   UNL     1      -3.482   1.778   3.402  0.00  0.00    +0.153 C 
BRANCH  17  27
ATOM     23  C   UNL     1      -9.452  -1.150   3.216  0.00  0.00    +0.044 C 
ATOM     24  C   UNL     1      -8.047  -0.816   2.784  0.00  0.00    -0.050 A 
ATOM     25  C   UNL     1      -7.449   0.349   3.229  0.00  0.00    +0.004 A 
ATOM     26  C   UNL     1      -6.163   0.661   2.837  0.00  0.00    +0.012 A 
ATOM     27  C   UNL     1      -5.467  -0.202   1.990  0.00  0.00    +0.019 A 
ATOM     28  C   UNL     1      -6.079  -1.373   1.540  0.00  0.00    +0.012 A 
ATOM     29  C   UNL     1      -7.362  -1.676   1.944  0.00  0.00    +0.004 A 
ENDBRANCH  17  27
ENDBRANCH  16  20
ENDBRANCH   1  16
TORSDOF 5
