REMARK  Name = ZINC08823292
REMARK  8 active torsions:
REMARK  status: ('A' for Active; 'I' for Inactive)
REMARK    1  A    between atoms: C_3  and  N_29
REMARK    2  A    between atoms: C_6  and  N_7
REMARK    3  A    between atoms: C_8  and  C_10
REMARK    4  A    between atoms: C_10  and  S_11
REMARK    5  A    between atoms: S_11  and  C_12
REMARK    6  A    between atoms: C_18  and  C_20
REMARK    7  A    between atoms: C_20  and  O_21
REMARK    8  A    between atoms: O_21  and  C_22
REMARK                            x       y       z     vdW  Elec       q    Type
REMARK                         _______ _______ _______ _____ _____    ______ ____
ROOT
ATOM      1  C   UNL     1       0.038   1.032  -2.809  0.00  0.00    +0.160 A 
ATOM      2  N   UNL     1       1.125   0.274  -2.807  0.00  0.00    -0.133 NA
ATOM      3  N   UNL     1       1.671  -0.112  -3.876  0.00  0.00    -0.125 NA
ATOM      4  C   UNL     1       1.195   0.217  -5.065  0.00  0.00    +0.189 A 
ATOM      5  S   UNL     1      -0.221   1.197  -4.573  0.00  0.00    -0.024 S 
ATOM      6  N   UNL     1       1.658  -0.110  -6.337  0.00  0.00    -0.260 N 
ATOM      7  C   UNL     1       2.757  -0.877  -6.477  0.00  0.00    +0.256 C 
ATOM      8  O   UNL     1       3.342  -1.283  -5.495  0.00  0.00    -0.272 OA
ATOM      9  H   UNL     1       1.190   0.215  -7.122  0.00  0.00    +0.157 HD
ENDROOT
BRANCH   1  10
ATOM     10  S   UNL     1      -0.891   1.685  -1.462  0.00  0.00    -0.088 S 
BRANCH  10  11
ATOM     11  C   UNL     1      -0.016   1.080   0.008  0.00  0.00    +0.172 C 
BRANCH  11  13
ATOM     12  N   UNL     1      -0.242   1.246   2.466  0.00  0.00    -0.285 N 
ATOM     13  C   UNL     1      -0.717   1.573   1.248  0.00  0.00    +0.227 C 
ATOM     14  O   UNL     1      -1.709   2.264   1.150  0.00  0.00    -0.275 OA
ATOM     15  H   UNL     1       0.511   0.639   2.546  0.00  0.00    +0.155 HD
BRANCH  12  21
ATOM     16  C   UNL     1      -0.052   2.086   4.722  0.00  0.00    +0.025 A 
ATOM     17  C   UNL     1      -0.639   2.620   5.853  0.00  0.00    +0.034 A 
ATOM     18  C   UNL     1      -2.003   2.842   5.887  0.00  0.00    +0.126 A 
ATOM     19  C   UNL     1      -2.784   2.535   4.788  0.00  0.00    +0.034 A 
ATOM     20  C   UNL     1      -2.203   2.006   3.652  0.00  0.00    +0.025 A 
ATOM     21  C   UNL     1      -0.833   1.782   3.615  0.00  0.00    +0.034 A 
BRANCH  18  22
ATOM     22  N   UNL     1      -2.629   3.409   7.103  0.00  0.00    +0.056 N 
ATOM     23  O   UNL     1      -3.831   3.605   7.134  0.00  0.00    -0.126 OA
ATOM     24  O   UNL     1      -1.942   3.680   8.072  0.00  0.00    -0.126 OA
ENDBRANCH  18  22
ENDBRANCH  12  21
ENDBRANCH  11  13
ENDBRANCH  10  11
ENDBRANCH   1  10
BRANCH   7  25
ATOM     25  C   UNL     1       3.259  -1.231  -7.854  0.00  0.00    +0.324 C 
BRANCH  25  26
ATOM     26  O   UNL     1       4.427  -2.047  -7.740  0.00  0.00    -0.483 OA
BRANCH  26  27
ATOM     27  C   UNL     1       5.009  -2.456  -8.898  0.00  0.00    +0.121 A 
ATOM     28  C   UNL     1       4.463  -2.086 -10.118  0.00  0.00    +0.047 A 
ATOM     29  C   UNL     1       5.058  -2.499 -11.294  0.00  0.00    +0.023 A 
ATOM     30  C   UNL     1       6.193  -3.291 -11.255  0.00  0.00    +0.041 A 
ATOM     31  C   UNL     1       6.735  -3.666 -10.039  0.00  0.00    +0.023 A 
ATOM     32  C   UNL     1       6.146  -3.250  -8.861  0.00  0.00    +0.047 A 
ATOM     33 CL   UNL     1       6.936  -3.814 -12.734  0.00  0.00    -0.084 Cl
ENDBRANCH  26  27
ENDBRANCH  25  26
ENDBRANCH   7  25
TORSDOF 8
