REMARK  Name = ZINC66195188
REMARK  7 active torsions:
REMARK  status: ('A' for Active; 'I' for Inactive)
REMARK    1  A    between atoms: C_1  and  C_2
REMARK    2  A    between atoms: C_5  and  N_8
REMARK    3  A    between atoms: C_11  and  N_14
REMARK    4  A    between atoms: N_14  and  C_15
REMARK    5  A    between atoms: N_18  and  C_19
REMARK    6  A    between atoms: C_26  and  O_28
REMARK    7  A    between atoms: O_28  and  C_29
REMARK                            x       y       z     vdW  Elec       q    Type
REMARK                         _______ _______ _______ _____ _____    ______ ____
ROOT
ATOM      1  N   UNL     1       2.724  -8.035  -0.071  0.00  0.00    -0.286 N 
ATOM      2  C   UNL     1       1.405  -8.672  -0.053  0.00  0.00    +0.134 C 
ATOM      3  C   UNL     1       3.839  -8.793  -0.093  0.00  0.00    +0.302 C 
ATOM      4  O   UNL     1       4.933  -8.265  -0.108  0.00  0.00    -0.253 OA
ATOM      5  N   UNL     1       3.739 -10.138  -0.099  0.00  0.00    -0.295 N 
ATOM      6  H   UNL     1       2.866 -10.559  -0.087  0.00  0.00    +0.151 HD
ENDROOT
BRANCH   5   7
ATOM      7  C   UNL     1       4.950 -10.962  -0.123  0.00  0.00    +0.092 C 
ATOM      8  C   UNL     1       4.627 -12.327  -0.734  0.00  0.00    +0.025 C 
ATOM      9  C   UNL     1       5.898 -13.177  -0.790  0.00  0.00    +0.021 C 
ATOM     10  C   UNL     1       6.424 -13.396   0.632  0.00  0.00    +0.111 C 
ATOM     11  N   UNL     1       6.601 -12.088   1.277  0.00  0.00    -0.266 N 
ATOM     12  C   UNL     1       5.466 -11.155   1.306  0.00  0.00    +0.133 C 
ATOM     13  C   UNL     1       7.781 -11.750   1.833  0.00  0.00    +0.403 C 
ATOM     14  O   UNL     1       7.915 -10.665   2.364  0.00  0.00    -0.226 OA
BRANCH  13  15
ATOM     15  O   UNL     1       8.813 -12.614   1.799  0.00  0.00    -0.454 OA
ATOM     16  C   UNL     1      10.035 -12.190   2.407  0.00  0.00    +0.282 C 
ENDBRANCH  13  15
ENDBRANCH   5   7
BRANCH   1  20
ATOM     17  N   UNL     1       1.499  -4.003  -0.034  0.00  0.00    +0.382 N 
ATOM     18  C   UNL     1       2.178  -4.475  -1.246  0.00  0.00    -0.077 C 
ATOM     19  C   UNL     1       2.131  -6.003  -1.300  0.00  0.00    +0.004 C 
ATOM     20  C   UNL     1       2.833  -6.574  -0.065  0.00  0.00    +0.074 C 
ATOM     21  C   UNL     1       2.163  -6.017   1.194  0.00  0.00    +0.004 C 
ATOM     22  C   UNL     1       2.209  -4.488   1.156  0.00  0.00    -0.077 C 
ATOM     23  H   UNL     1       0.552  -4.351  -0.024  0.00  0.00    -0.081 HD
BRANCH  17  28
ATOM     24  C   UNL     1      -0.019   1.526   0.010  0.00  0.00    +0.007 C 
ATOM     25  C   UNL     1       0.002  -0.004   0.002  0.00  0.00    -0.014 C 
ATOM     26  C   UNL     1       0.718  -0.497  -1.257  0.00  0.00    +0.002 C 
ATOM     27  C   UNL     1       0.739  -2.027  -1.265  0.00  0.00    -0.015 C 
ATOM     28  C   UNL     1       1.479  -2.534  -0.026  0.00  0.00    -0.069 C 
ATOM     29  C   UNL     1       0.763  -2.041   1.233  0.00  0.00    -0.015 C 
ATOM     30  C   UNL     1       0.742  -0.511   1.242  0.00  0.00    +0.002 C 
ENDBRANCH  17  28
ENDBRANCH   1  20
TORSDOF 4
