REMARK  Name = ZINC14536279
REMARK  6 active torsions:
REMARK  status: ('A' for Active; 'I' for Inactive)
REMARK    1  A    between atoms: C_1  and  N_2
REMARK    2  A    between atoms: C_5  and  C_7
REMARK    3  A    between atoms: C_17  and  N_63
REMARK    4  A    between atoms: C_21  and  C_22
REMARK    5  A    between atoms: C_21  and  N_63
REMARK    6  A    between atoms: C_22  and  O_28
REMARK                            x       y       z     vdW  Elec       q    Type
REMARK                         _______ _______ _______ _____ _____    ______ ____
ROOT
ATOM      1  C   UNL     1      -3.602   4.567  -0.232  0.00  0.00    +0.172 C 
ATOM      2  N   UNL     1      -2.927   3.271  -0.124  0.00  0.00    -0.270 N 
ATOM      3  C   UNL     1      -3.550   2.087  -0.002  0.00  0.00    +0.043 A 
ATOM      4  C   UNL     1      -2.588   1.134   0.066  0.00  0.00    +0.004 A 
ATOM      5  C   UNL     1      -1.363   1.815  -0.021  0.00  0.00    +0.151 A 
ATOM      6  N   UNL     1      -1.650   3.100  -0.128  0.00  0.00    -0.166 NA
ATOM      7  C   UNL     1      -2.855  -0.340   0.202  0.00  0.00    +0.023 C 
ATOM      8  C   UNL     1      -4.325  -0.599  -0.156  0.00  0.00    -0.067 C 
ATOM      9  C   UNL     1      -5.218   0.379   0.611  0.00  0.00    -0.009 C 
ATOM     10  C   UNL     1      -5.027   1.796   0.057  0.00  0.00    +0.054 C 
ENDROOT
BRANCH   5  11
ATOM     11  C   UNL     1      -0.014   1.212   0.009  0.00  0.00    +0.267 C 
ATOM     12  O   UNL     1       0.111   0.002   0.008  0.00  0.00    -0.268 OA
ATOM     13  N   UNL     1       1.077   2.002   0.030  0.00  0.00    -0.296 N 
ATOM     14  C   UNL     1       0.897   3.434  -0.051  0.00  0.00    +0.108 C 
ATOM     15  C   UNL     1       0.891   3.880  -1.528  0.00  0.00    +0.019 C 
ATOM     16  C   UNL     1       2.242   3.772  -2.099  0.00  0.00    +0.002 C 
ATOM     17  C   UNL     1       2.798   2.351  -2.134  0.00  0.00    +0.002 C 
ATOM     18  C   UNL     1       3.436   2.031  -0.804  0.00  0.00    +0.019 C 
ATOM     19  C   UNL     1       2.407   1.369   0.130  0.00  0.00    +0.108 C 
ENDBRANCH   5  11
BRANCH   8  20
ATOM     20  N   UNL     1      -4.677  -1.983   0.214  0.00  0.00    +0.383 N 
ATOM     21  H   UNL     1      -4.944  -2.010   1.205  0.00  0.00    -0.085 HD
ATOM     22  H   UNL     1      -3.864  -2.591   0.062  0.00  0.00    -0.085 HD
BRANCH  20  23
ATOM     23  C   UNL     1      -5.804  -2.462  -0.608  0.00  0.00    -0.047 C 
BRANCH  23  24
ATOM     24  C   UNL     1      -6.146  -3.897  -0.202  0.00  0.00    +0.051 C 
ATOM     25  C   UNL     1      -4.894  -4.769  -0.308  0.00  0.00    +0.033 C 
ATOM     26  C   UNL     1      -5.236  -6.204   0.098  0.00  0.00    +0.003 C 
ATOM     27  C   UNL     1      -6.320  -6.752  -0.832  0.00  0.00    +0.000 C 
ATOM     28  C   UNL     1      -7.573  -5.880  -0.726  0.00  0.00    +0.003 C 
ATOM     29  C   UNL     1      -7.230  -4.445  -1.132  0.00  0.00    +0.033 C 
BRANCH  24  30
ATOM     30  O   UNL     1      -6.623  -3.910   1.145  0.00  0.00    -0.390 OA
ATOM     31  H   UNL     1      -5.986  -3.575   1.791  0.00  0.00    +0.210 HD
ENDBRANCH  24  30
ENDBRANCH  23  24
ENDBRANCH  20  23
ENDBRANCH   8  20
TORSDOF 5
