REMARK  Name = ZINC19105057
REMARK  8 active torsions:
REMARK  status: ('A' for Active; 'I' for Inactive)
REMARK    1  A    between atoms: C_1  and  C_2
REMARK    2  A    between atoms: C_2  and  C_3
REMARK    3  A    between atoms: C_3  and  C_4
REMARK    4  A    between atoms: C_7  and  C_10
REMARK    5  A    between atoms: C_10  and  C_30
REMARK    6  A    between atoms: N_13  and  C_17
REMARK    7  A    between atoms: C_17  and  C_18
REMARK    8  A    between atoms: N_20  and  C_21
REMARK                            x       y       z     vdW  Elec       q    Type
REMARK                         _______ _______ _______ _____ _____    ______ ____
ROOT
ATOM      1  C   UNL     1       3.837   8.034   0.178  0.00  0.00    +0.135 C 
ATOM      2  C   UNL     1       4.212   6.678   0.743  0.00  0.00    +0.251 C 
ATOM      3  O   UNL     1       4.361   6.386   1.910  0.00  0.00    -0.272 OA
ATOM      4  N   UNL     1       4.346   5.864  -0.323  0.00  0.00    -0.215 N 
ATOM      5  C   UNL     1       4.114   6.511  -1.470  0.00  0.00    +0.310 C 
ATOM      6  O   UNL     1       4.177   5.988  -2.566  0.00  0.00    -0.252 OA
ATOM      7  N   UNL     1       3.798   7.804  -1.276  0.00  0.00    -0.281 N 
ATOM      8  C   UNL     1       4.899   9.077   0.531  0.00  0.00    +0.047 C 
ATOM      9  H   UNL     1       3.589   8.459  -1.961  0.00  0.00    +0.152 HD
ENDROOT
BRANCH   1  13
ATOM     10  C   UNL     1      -0.001   9.246   1.611  0.00  0.00    -0.047 A 
ATOM     11  C   UNL     1       0.436   9.663   0.367  0.00  0.00    +0.004 A 
ATOM     12  C   UNL     1       1.678   9.271  -0.096  0.00  0.00    +0.006 A 
ATOM     13  C   UNL     1       2.483   8.461   0.684  0.00  0.00    -0.015 A 
ATOM     14  C   UNL     1       2.043   8.040   1.925  0.00  0.00    +0.006 A 
ATOM     15  C   UNL     1       0.803   8.436   2.390  0.00  0.00    +0.004 A 
BRANCH  10  16
ATOM     16  C   UNL     1      -1.355   9.674   2.116  0.00  0.00    +0.035 C 
BRANCH  16  18
ATOM     17  C   UNL     1      -3.781   9.084   2.199  0.00  0.00    +0.004 C 
ATOM     18  C   UNL     1      -2.407   8.649   1.685  0.00  0.00    +0.001 C 
ENDBRANCH  16  18
ENDBRANCH  10  16
ENDBRANCH   1  13
BRANCH   4  19
ATOM     19  C   UNL     1       4.706   4.447  -0.236  0.00  0.00    +0.214 C 
BRANCH  19  20
ATOM     20  C   UNL     1       3.454   3.616  -0.115  0.00  0.00    +0.235 C 
ATOM     21  O   UNL     1       2.368   4.155  -0.102  0.00  0.00    -0.274 OA
ATOM     22  N   UNL     1       3.542   2.275  -0.020  0.00  0.00    -0.282 N 
ATOM     23  H   UNL     1       4.411   1.849   0.051  0.00  0.00    +0.155 HD
BRANCH  22  24
ATOM     24  C   UNL     1       2.382   1.497  -0.024  0.00  0.00    +0.062 A 
ATOM     25  C   UNL     1       1.248   1.968  -0.611  0.00  0.00    +0.025 A 
ATOM     26  C   UNL     1       0.075   1.217  -0.632  0.00  0.00    +0.004 A 
ATOM     27  C   UNL     1       0.009  -0.014  -0.070  0.00  0.00    +0.031 A 
ATOM     28  C   UNL     1       1.152  -0.572   0.561  0.00  0.00    +0.102 A 
ATOM     29  C   UNL     1       2.384   0.209   0.586  0.00  0.00    +0.121 A 
ATOM     30  N   UNL     1       3.371  -0.432   1.207  0.00  0.00    -0.189 NA
ATOM     31  S   UNL     1       2.778  -1.807   1.668  0.00  0.00    +0.117 S 
ATOM     32  N   UNL     1       1.295  -1.750   1.165  0.00  0.00    -0.191 NA
ENDBRANCH  22  24
ENDBRANCH  19  20
ENDBRANCH   4  19
TORSDOF 6
