REMARK  Name = ZINC04368725
REMARK  7 active torsions:
REMARK  status: ('A' for Active; 'I' for Inactive)
REMARK    1  A    between atoms: C_1  and  C_2
REMARK    2  A    between atoms: C_2  and  C_3
REMARK    3  A    between atoms: C_3  and  O_4
REMARK    4  A    between atoms: O_4  and  C_5
REMARK    5  A    between atoms: C_10  and  C_11
REMARK    6  A    between atoms: C_13  and  C_22
REMARK    7  A    between atoms: C_14  and  C_21
REMARK                            x       y       z     vdW  Elec       q    Type
REMARK                         _______ _______ _______ _____ _____    ______ ____
ROOT
ATOM      1  C   UNL     1      -1.560  -4.748   0.112  0.00  0.00    +0.167 C 
ATOM      2  C   UNL     1      -0.822  -4.797   1.439  0.00  0.00    +0.062 C 
ATOM      3  C   UNL     1      -0.493  -6.031   1.924  0.00  0.00    +0.052 C 
ATOM      4  N   UNL     1      -0.798  -7.145   1.273  0.00  0.00    -0.218 NA
ATOM      5  C   UNL     1      -1.437  -7.192   0.117  0.00  0.00    +0.237 C 
ATOM      6  N   UNL     1      -1.845  -6.044  -0.511  0.00  0.00    -0.208 N 
ATOM      7  N   UNL     1      -2.482  -6.440  -1.690  0.00  0.00    -0.251 N 
ATOM      8  C   UNL     1      -2.432  -7.792  -1.718  0.00  0.00    +0.203 C 
ATOM      9  N   UNL     1      -1.816  -8.224  -0.660  0.00  0.00    -0.205 NA
ATOM     10  C   UNL     1       0.240  -6.129   3.237  0.00  0.00    +0.066 C 
ATOM     11  H   UNL     1      -2.881  -5.860  -2.357  0.00  0.00    +0.171 HD
ENDROOT
BRANCH   1  17
ATOM     12  C   UNL     1      -2.906  -2.647   0.358  0.00  0.00    +0.126 A 
ATOM     13  C   UNL     1      -4.114  -1.991   0.552  0.00  0.00    +0.047 A 
ATOM     14  C   UNL     1      -5.275  -2.720   0.721  0.00  0.00    +0.019 A 
ATOM     15  C   UNL     1      -5.234  -4.103   0.697  0.00  0.00    +0.018 A 
ATOM     16  C   UNL     1      -4.032  -4.758   0.505  0.00  0.00    +0.024 A 
ATOM     17  C   UNL     1      -2.869  -4.033   0.329  0.00  0.00    +0.022 A 
ATOM     18 BR   UNL     1      -6.826  -5.098   0.928  0.00  0.00    -0.050 Br
BRANCH  12  19
ATOM     19  O   UNL     1      -1.763  -1.931   0.192  0.00  0.00    -0.492 OA
BRANCH  19  20
ATOM     20  C   UNL     1      -1.876  -0.508   0.234  0.00  0.00    +0.229 C 
BRANCH  20  22
ATOM     21  C   UNL     1      -0.618   1.645   0.074  0.00  0.00    +0.007 C 
ATOM     22  C   UNL     1      -0.496   0.120   0.029  0.00  0.00    +0.038 C 
ENDBRANCH  20  22
ENDBRANCH  19  20
ENDBRANCH  12  19
ENDBRANCH   1  17
BRANCH   2  23
ATOM     23  C   UNL     1      -0.491  -3.622   2.139  0.00  0.00    +0.241 C 
ATOM     24  O   UNL     1       0.454  -2.943   1.778  0.00  0.00    -0.271 OA
ATOM     25  N   UNL     1      -1.220  -3.247   3.209  0.00  0.00    -0.325 N 
ATOM     26  H   UNL     1      -2.013  -3.749   3.456  0.00  0.00    +0.145 HD
ATOM     27  H   UNL     1      -0.953  -2.475   3.732  0.00  0.00    +0.145 HD
ENDBRANCH   2  23
TORSDOF 5
