REMARK  Name = ZINC64197393
REMARK  9 active torsions:
REMARK  status: ('A' for Active; 'I' for Inactive)
REMARK    1  A    between atoms: C_1  and  C_2
REMARK    2  A    between atoms: C_2  and  C_3
REMARK    3  A    between atoms: C_2  and  C_4
REMARK    4  A    between atoms: C_4  and  C_5
REMARK    5  A    between atoms: C_5  and  C_6
REMARK    6  A    between atoms: C_6  and  N_7
REMARK    7  A    between atoms: C_8  and  O_32
REMARK    8  A    between atoms: C_10  and  C_16
REMARK    9  A    between atoms: N_30  and  C_31
REMARK                            x       y       z     vdW  Elec       q    Type
REMARK                         _______ _______ _______ _____ _____    ______ ____
ROOT
ATOM      1  N   UNL     1      -2.916  -4.050  -0.234  0.00  0.00    -0.256 N 
ATOM      2  C   UNL     1      -2.958  -4.691  -1.559  0.00  0.00    +0.240 C 
ATOM      3  C   UNL     1      -2.848  -6.200  -1.601  0.00  0.00    +0.058 C 
ATOM      4  C   UNL     1      -2.721  -6.849  -0.449  0.00  0.00    +0.249 C 
ATOM      5  N   UNL     1      -2.690  -6.168   0.758  0.00  0.00    -0.236 N 
ATOM      6  C   UNL     1      -2.779  -4.834   0.853  0.00  0.00    +0.311 C 
ATOM      7  O   UNL     1      -2.738  -4.317   1.953  0.00  0.00    -0.252 OA
ATOM      8  O   UNL     1      -2.621  -8.202  -0.453  0.00  0.00    -0.270 OA
ATOM      9  H   UNL     1      -2.596  -6.682   1.575  0.00  0.00    +0.159 HD
ENDROOT
BRANCH   3  10
ATOM     10  C   UNL     1      -2.882  -6.945  -2.911  0.00  0.00    +0.118 C 
ATOM     11  C   UNL     1      -4.327  -7.306  -3.262  0.00  0.00    +0.128 C 
ATOM     12  C   UNL     1      -5.046  -5.986  -3.519  0.00  0.00    -0.035 C 
ATOM     13  C   UNL     1      -6.110  -5.979  -2.729  0.00  0.00    -0.001 A 
ATOM     14  C   UNL     1      -7.222  -5.025  -2.588  0.00  0.00    +0.010 A 
ATOM     15  C   UNL     1      -8.157  -5.327  -1.649  0.00  0.00    +0.001 A 
ATOM     16  C   UNL     1      -8.098  -6.469  -0.845  0.00  0.00    +0.002 A 
ATOM     17  C   UNL     1      -7.115  -7.403  -0.910  0.00  0.00    +0.026 A 
ATOM     18  C   UNL     1      -6.077  -7.199  -1.865  0.00  0.00    +0.043 A 
ATOM     19  N   UNL     1      -5.032  -7.949  -2.154  0.00  0.00    -0.376 N 
ATOM     20  C   UNL     1      -4.476  -4.942  -4.449  0.00  0.00    +0.049 C 
ATOM     21  C   UNL     1      -2.997  -4.778  -4.056  0.00  0.00    +0.089 C 
ATOM     22  N   UNL     1      -2.345  -6.090  -3.982  0.00  0.00    -0.296 NA
ATOM     23  C   UNL     1      -0.887  -5.949  -3.862  0.00  0.00    +0.105 C 
ATOM     24  H   UNL     1      -4.768  -8.773  -1.715  0.00  0.00    +0.160 HD
ENDBRANCH   3  10
BRANCH   2  25
ATOM     25  O   UNL     1      -4.189  -4.323  -2.186  0.00  0.00    -0.370 OA
ATOM     26  H   UNL     1      -4.297  -3.370  -2.311  0.00  0.00    +0.212 HD
ENDBRANCH   2  25
BRANCH   1  27
ATOM     27  C   UNL     1      -3.016  -2.595  -0.102  0.00  0.00    +0.112 C 
BRANCH  27  28
ATOM     28  C   UNL     1      -1.616  -1.980  -0.160  0.00  0.00    +0.019 C 
BRANCH  28  29
ATOM     29  C   UNL     1      -1.720  -0.460  -0.021  0.00  0.00    +0.004 C 
BRANCH  29  31
ATOM     30  C   UNL     1      -0.431   1.680  -0.067  0.00  0.00    +0.007 C 
ATOM     31  C   UNL     1      -0.319   0.154  -0.080  0.00  0.00    -0.017 C 
ATOM     32  C   UNL     1       0.491  -0.308   1.133  0.00  0.00    +0.007 C 
ENDBRANCH  29  31
ENDBRANCH  28  29
ENDBRANCH  27  28
ENDBRANCH   1  27
TORSDOF 6
