REMARK  Name = ZINC46771895
REMARK  11 active torsions:
REMARK  status: ('A' for Active; 'I' for Inactive)
REMARK    1  A    between atoms: C_1  and  S_2
REMARK    2  A    between atoms: S_2  and  C_3
REMARK    3  A    between atoms: C_3  and  C_4
REMARK    4  A    between atoms: C_4  and  C_5
REMARK    5  A    between atoms: C_5  and  C_7
REMARK    6  A    between atoms: C_5  and  N_20
REMARK    7  A    between atoms: N_9  and  C_10
REMARK    8  A    between atoms: N_13  and  S_16
REMARK    9  A    between atoms: S_16  and  C_19
REMARK   10  A    between atoms: C_21  and  C_23
REMARK   11  A    between atoms: C_27  and  N_29
REMARK                            x       y       z     vdW  Elec       q    Type
REMARK                         _______ _______ _______ _____ _____    ______ ____
ROOT
ATOM      1  C   UNL     1       1.757  -2.329   2.909  0.00  0.00    +0.160 C 
ENDROOT
BRANCH   1   2
ATOM      2  C   UNL     1       1.744  -3.825   3.089  0.00  0.00    +0.234 C 
ATOM      3  O   UNL     1       2.789  -4.440   3.126  0.00  0.00    -0.274 OA
ATOM      4  N   UNL     1       0.572  -4.479   3.208  0.00  0.00    -0.311 N 
ATOM      5  H   UNL     1      -0.264  -3.987   3.178  0.00  0.00    +0.149 HD
BRANCH   4   6
ATOM      6  C   UNL     1       0.560  -5.934   3.382  0.00  0.00    +0.075 C 
ATOM      7  C   UNL     1       0.633  -6.612   2.013  0.00  0.00    +0.039 C 
ATOM      8  C   UNL     1       0.655  -8.133   2.201  0.00  0.00    +0.111 C 
ATOM      9  N   UNL     1      -0.508  -8.526   3.007  0.00  0.00    -0.181 NA
ATOM     10  C   UNL     1      -0.724  -7.868   4.303  0.00  0.00    +0.111 C 
ATOM     11  C   UNL     1      -0.731  -6.351   4.092  0.00  0.00    +0.039 C 
BRANCH   9  12
ATOM     12  S   UNL     1      -1.556  -9.688   2.466  0.00  0.00    +0.029 S 
ATOM     13  O   UNL     1      -2.791  -9.389   3.103  0.00  0.00    -0.158 OA
ATOM     14  O   UNL     1      -1.444  -9.646   1.050  0.00  0.00    -0.158 OA
ATOM     15  C   UNL     1      -0.888 -11.251   3.100  0.00  0.00    +0.215 C 
ENDBRANCH   9  12
ENDBRANCH   4   6
ENDBRANCH   1   2
BRANCH   1  16
ATOM     16  N   UNL     1       3.141  -1.861   2.805  0.00  0.00    -0.300 N 
ATOM     17  C   UNL     1       3.451  -0.593   3.140  0.00  0.00    +0.245 C 
ATOM     18  O   UNL     1       2.582   0.163   3.528  0.00  0.00    -0.270 OA
ATOM     19  H   UNL     1       3.835  -2.464   2.496  0.00  0.00    +0.150 HD
BRANCH  17  20
ATOM     20  C   UNL     1       4.848  -0.121   3.035  0.00  0.00    +0.039 A 
ATOM     21  C   UNL     1       5.847  -0.985   2.584  0.00  0.00    +0.014 A 
ATOM     22  C   UNL     1       7.149  -0.539   2.488  0.00  0.00    +0.023 A 
ATOM     23  C   UNL     1       7.465   0.763   2.838  0.00  0.00    +0.071 A 
ATOM     24  C   UNL     1       6.478   1.625   3.287  0.00  0.00    +0.145 A 
ATOM     25  C   UNL     1       5.171   1.192   3.381  0.00  0.00    +0.047 A 
ATOM     26 CL   UNL     1       9.105   1.317   2.715  0.00  0.00    -0.081 Cl
BRANCH  24  27
ATOM     27  N   UNL     1       6.824   3.015   3.659  0.00  0.00    +0.058 N 
ATOM     28  O   UNL     1       5.963   3.768   4.051  0.00  0.00    -0.126 OA
ATOM     29  O   UNL     1       7.968   3.397   3.572  0.00  0.00    -0.126 OA
ENDBRANCH  24  27
ENDBRANCH  17  20
ENDBRANCH   1  16
BRANCH   1  30
ATOM     30  C   UNL     1       0.997  -1.962   1.633  0.00  0.00    +0.042 C 
BRANCH  30  31
ATOM     31  C   UNL     1       0.902  -0.439   1.516  0.00  0.00    +0.071 C 
BRANCH  31  33
ATOM     32  C   UNL     1      -0.022   1.810   0.012  0.00  0.00    +0.084 C 
ATOM     33  S   UNL     1       0.002  -0.004   0.002  0.00  0.00    -0.164 S 
ENDBRANCH  31  33
ENDBRANCH  30  31
ENDBRANCH   1  30
TORSDOF 9
