REMARK  Name = ZINC26372095
REMARK  13 active torsions:
REMARK  status: ('A' for Active; 'I' for Inactive)
REMARK    1  A    between atoms: C_1  and  C_2
REMARK    2  A    between atoms: C_2  and  C_3
REMARK    3  A    between atoms: C_3  and  C_4
REMARK    4  A    between atoms: C_4  and  N_5
REMARK    5  A    between atoms: N_5  and  C_6
REMARK    6  A    between atoms: C_7  and  N_19
REMARK    7  A    between atoms: N_8  and  C_15
REMARK    8  A    between atoms: C_15  and  C_16
REMARK    9  A    between atoms: C_16  and  C_17
REMARK   10  A    between atoms: C_16  and  C_18
REMARK   11  A    between atoms: C_20  and  C_22
REMARK   12  A    between atoms: C_22  and  S_23
REMARK   13  A    between atoms: S_23  and  C_24
REMARK                            x       y       z     vdW  Elec       q    Type
REMARK                         _______ _______ _______ _____ _____    ______ ____
ROOT
ATOM      1  N   UNL     1       6.921   6.203  -0.088  0.00  0.00    -0.264 N 
ATOM      2  C   UNL     1       6.196   5.084  -0.294  0.00  0.00    +0.230 C 
ATOM      3  O   UNL     1       6.755   4.028  -0.503  0.00  0.00    -0.274 OA
ENDROOT
BRANCH   1   4
ATOM      4  C   UNL     1       8.329   6.129  -0.020  0.00  0.00    +0.140 A 
ATOM      5  C   UNL     1       8.946   5.408   0.982  0.00  0.00    +0.127 A 
ATOM      6  N   UNL     1      10.320   5.354   1.022  0.00  0.00    -0.280 N 
ATOM      7  C   UNL     1      11.053   5.997   0.095  0.00  0.00    +0.331 A 
ATOM      8  O   UNL     1      12.267   5.938   0.148  0.00  0.00    -0.246 OA
ATOM      9  N   UNL     1      10.469   6.704  -0.888  0.00  0.00    -0.273 N 
ATOM     10  H   UNL     1      11.088   7.226  -1.633  0.00  0.00    +0.173 HD
ATOM     11  C   UNL     1       9.127   6.784  -0.976  0.00  0.00    +0.277 A 
ATOM     12  O   UNL     1       8.608   7.423  -1.875  0.00  0.00    -0.266 OA
BRANCH   5  13
ATOM     13  N   UNL     1       8.196   4.752   1.929  0.00  0.00    -0.343 N 
ATOM     14  H   UNL     1       8.695   4.179   2.725  0.00  0.00    +0.144 HD
ATOM     15  H   UNL     1       7.098   4.799   1.891  0.00  0.00    +0.144 HD
ENDBRANCH   5  13
BRANCH   6  16
ATOM     16  C   UNL     1      10.988   4.593   2.080  0.00  0.00    +0.131 C 
BRANCH  16  17
ATOM     17  C   UNL     1      11.199   3.150   1.614  0.00  0.00    +0.003 C 
ATOM     18  C   UNL     1      12.167   3.134   0.430  0.00  0.00    +0.009 C 
ATOM     19  C   UNL     1      11.783   2.324   2.762  0.00  0.00    +0.009 C 
ENDBRANCH  16  17
ENDBRANCH   6  16
ENDBRANCH   1   4
BRANCH   1  20
ATOM     20  C   UNL     1       6.247   7.495   0.064  0.00  0.00    +0.114 C 
BRANCH  20  21
ATOM     21  C   UNL     1       5.987   7.762   1.548  0.00  0.00    +0.019 C 
BRANCH  21  23
ATOM     22  C   UNL     1       5.023   9.379   3.191  0.00  0.00    +0.004 C 
ATOM     23  C   UNL     1       5.284   9.111   1.707  0.00  0.00    -0.002 C 
ENDBRANCH  21  23
ENDBRANCH  20  21
ENDBRANCH   1  20
BRANCH   2  24
ATOM     24  C   UNL     1       4.690   5.145  -0.264  0.00  0.00    +0.173 C 
BRANCH  24  25
ATOM     25  S   UNL     1       4.011   3.492  -0.572  0.00  0.00    -0.078 S 
BRANCH  25  26
ATOM     26  C   UNL     1       2.266   3.729  -0.505  0.00  0.00    +0.174 A 
ATOM     27  N   UNL     1       1.660   4.873  -0.279  0.00  0.00    -0.229 NA
ATOM     28  C   UNL     1       0.334   4.697  -0.297  0.00  0.00    +0.139 A 
ATOM     29  C   UNL     1       0.091   3.366  -0.549  0.00  0.00    +0.067 A 
ATOM     30  N   UNL     1       1.332   2.758  -0.680  0.00  0.00    -0.295 N 
ATOM     31  C   UNL     1       1.410   1.410  -0.939  0.00  0.00    +0.094 A 
ATOM     32  C   UNL     1       0.292   0.673  -1.066  0.00  0.00    +0.018 A 
ATOM     33  C   UNL     1      -0.981   1.269  -0.943  0.00  0.00    +0.003 A 
ATOM     34  C   UNL     1      -1.084   2.597  -0.682  0.00  0.00    +0.028 A 
ENDBRANCH  25  26
ENDBRANCH  24  25
ENDBRANCH   2  24
TORSDOF 10
