REMARK  Name = ZINC09461899
REMARK  12 active torsions:
REMARK  status: ('A' for Active; 'I' for Inactive)
REMARK    1  A    between atoms: C_1  and  C_2
REMARK    2  A    between atoms: C_2  and  C_4
REMARK    3  A    between atoms: C_2  and  O_34
REMARK    4  A    between atoms: C_4  and  C_6
REMARK    5  A    between atoms: C_4  and  N_23
REMARK    6  A    between atoms: C_6  and  O_8
REMARK    7  A    between atoms: O_8  and  C_9
REMARK    8  A    between atoms: C_9  and  C_10
REMARK    9  A    between atoms: C_10  and  C_11
REMARK   10  A    between atoms: C_11  and  N_12
REMARK   11  A    between atoms: N_23  and  S_24
REMARK   12  A    between atoms: S_24  and  C_27
REMARK                            x       y       z     vdW  Elec       q    Type
REMARK                         _______ _______ _______ _____ _____    ______ ____
ROOT
ATOM      1  C   UNL     1      -7.989   2.633  -4.505  0.00  0.00    +0.213 C 
ENDROOT
BRANCH   1   3
ATOM      2  C   UNL     1      -6.439   4.456  -5.224  0.00  0.00    +0.040 C 
ATOM      3  C   UNL     1      -7.906   4.038  -5.104  0.00  0.00    +0.141 C 
BRANCH   3   4
ATOM      4  O   UNL     1      -8.595   4.959  -4.256  0.00  0.00    -0.390 OA
ATOM      5  H   UNL     1      -9.533   4.756  -4.135  0.00  0.00    +0.210 HD
ENDBRANCH   3   4
ENDBRANCH   1   3
BRANCH   1   6
ATOM      6  C   UNL     1      -7.468   2.659  -3.091  0.00  0.00    +0.328 C 
ATOM      7  O   UNL     1      -8.188   2.335  -2.176  0.00  0.00    -0.249 OA
BRANCH   6   8
ATOM      8  O   UNL     1      -6.205   3.041  -2.848  0.00  0.00    -0.463 OA
BRANCH   8   9
ATOM      9  C   UNL     1      -5.771   3.041  -1.462  0.00  0.00    +0.234 C 
BRANCH   9  10
ATOM     10  C   UNL     1      -4.315   3.502  -1.383  0.00  0.00    +0.063 C 
BRANCH  10  11
ATOM     11  C   UNL     1      -3.858   3.502   0.077  0.00  0.00    +0.130 C 
BRANCH  11  12
ATOM     12  N   UNL     1      -2.463   3.944   0.153  0.00  0.00    -0.292 N 
ATOM     13  C   UNL     1      -1.343   3.119   0.087  0.00  0.00    +0.070 A 
ATOM     14  C   UNL     1      -1.175   1.751  -0.061  0.00  0.00    +0.028 A 
ATOM     15  C   UNL     1       0.096   1.213  -0.087  0.00  0.00    +0.002 A 
ATOM     16  C   UNL     1       1.205   2.035   0.024  0.00  0.00    +0.002 A 
ATOM     17  C   UNL     1       1.048   3.399   0.166  0.00  0.00    +0.028 A 
ATOM     18  C   UNL     1      -0.225   3.949   0.199  0.00  0.00    +0.067 A 
ATOM     19  N   UNL     1      -0.701   5.251   0.328  0.00  0.00    -0.306 N 
ATOM     20  H   UNL     1      -0.156   6.048   0.424  0.00  0.00    +0.170 HD
ATOM     21  C   UNL     1      -2.046   5.216   0.297  0.00  0.00    +0.328 A 
ATOM     22  O   UNL     1      -2.775   6.187   0.386  0.00  0.00    -0.247 OA
ENDBRANCH  11  12
ENDBRANCH  10  11
ENDBRANCH   9  10
ENDBRANCH   8   9
ENDBRANCH   6   8
ENDBRANCH   1   6
BRANCH   1  23
ATOM     23  N   UNL     1      -9.383   2.184  -4.504  0.00  0.00    -0.174 NA
ATOM     24  H   UNL     1      -9.972   2.430  -3.773  0.00  0.00    +0.149 HD
BRANCH  23  25
ATOM     25  S   UNL     1      -9.955   1.256  -5.750  0.00  0.00    +0.059 S 
ATOM     26  O   UNL     1     -11.298   0.923  -5.427  0.00  0.00    -0.153 OA
ATOM     27  O   UNL     1      -9.605   1.929  -6.952  0.00  0.00    -0.153 OA
BRANCH  25  28
ATOM     28  C   UNL     1      -9.046  -0.254  -5.736  0.00  0.00    +0.105 A 
ATOM     29  C   UNL     1      -7.878  -0.364  -6.468  0.00  0.00    +0.030 A 
ATOM     30  C   UNL     1      -7.161  -1.546  -6.452  0.00  0.00    +0.022 A 
ATOM     31  C   UNL     1      -7.619  -2.622  -5.712  0.00  0.00    +0.041 A 
ATOM     32  C   UNL     1      -8.790  -2.513  -4.984  0.00  0.00    +0.022 A 
ATOM     33  C   UNL     1      -9.503  -1.329  -4.997  0.00  0.00    +0.030 A 
ATOM     34 CL   UNL     1      -6.722  -4.109  -5.697  0.00  0.00    -0.084 Cl
ENDBRANCH  25  28
ENDBRANCH  23  25
ENDBRANCH   1  23
TORSDOF 11
