REMARK  Name = ZINC32877161
REMARK  7 active torsions:
REMARK  status: ('A' for Active; 'I' for Inactive)
REMARK    1  A    between atoms: C_1  and  C_2
REMARK    2  A    between atoms: C_2  and  N_3
REMARK    3  A    between atoms: C_7  and  S_28
REMARK    4  A    between atoms: C_11  and  S_12
REMARK    5  A    between atoms: S_12  and  C_13
REMARK    6  A    between atoms: C_13  and  C_14
REMARK    7  A    between atoms: S_28  and  N_31
REMARK                            x       y       z     vdW  Elec       q    Type
REMARK                         _______ _______ _______ _____ _____    ______ ____
ROOT
ATOM      1  N   UNL     1      -1.372  -0.511   0.012  0.00  0.00    -0.319 N 
ATOM      2  C   UNL     1      -2.135  -0.796   1.134  0.00  0.00    +0.070 A 
ATOM      3  C   UNL     1      -1.904  -0.716   2.498  0.00  0.00    +0.030 A 
ATOM      4  C   UNL     1      -2.895  -1.085   3.385  0.00  0.00    +0.030 A 
ATOM      5  C   UNL     1      -4.121  -1.536   2.921  0.00  0.00    +0.107 A 
ATOM      6  C   UNL     1      -4.367  -1.623   1.569  0.00  0.00    +0.058 A 
ATOM      7  C   UNL     1      -3.375  -1.252   0.657  0.00  0.00    +0.092 A 
ATOM      8  N   UNL     1      -3.317  -1.226  -0.700  0.00  0.00    -0.222 NA
ATOM      9  C   UNL     1      -2.143  -0.785  -1.082  0.00  0.00    +0.170 A 
ENDROOT
BRANCH   5  10
ATOM     10  S   UNL     1      -5.373  -2.003   4.069  0.00  0.00    +0.056 S 
ATOM     11  O   UNL     1      -6.234  -2.905   3.387  0.00  0.00    -0.153 OA
ATOM     12  O   UNL     1      -4.708  -2.349   5.276  0.00  0.00    -0.153 OA
BRANCH  10  13
ATOM     13  N   UNL     1      -6.269  -0.649   4.394  0.00  0.00    -0.204 NA
ATOM     14  H   UNL     1      -7.208  -0.732   4.622  0.00  0.00    +0.144 HD
ATOM     15  H   UNL     1      -5.855   0.228   4.355  0.00  0.00    +0.144 HD
ENDBRANCH  10  13
ENDBRANCH   5  10
BRANCH   1  17
ATOM     16  C   UNL     1      -0.019   1.526   0.010  0.00  0.00    +0.027 C 
ATOM     17  C   UNL     1       0.002  -0.004   0.002  0.00  0.00    +0.121 C 
ENDBRANCH   1  17
BRANCH   9  18
ATOM     18  S   UNL     1      -1.634  -0.582  -2.756  0.00  0.00    -0.080 S 
BRANCH  18  19
ATOM     19  C   UNL     1      -3.078  -1.105  -3.721  0.00  0.00    +0.151 C 
BRANCH  19  20
ATOM     20  C   UNL     1      -2.773  -0.979  -5.191  0.00  0.00    +0.121 A 
ATOM     21  N   UNL     1      -3.724  -1.315  -6.101  0.00  0.00    -0.310 N 
ATOM     22  H   UNL     1      -4.587  -1.632  -5.791  0.00  0.00    +0.170 HD
ATOM     23  C   UNL     1      -3.493  -1.218  -7.424  0.00  0.00    +0.260 A 
ATOM     24  O   UNL     1      -4.356  -1.523  -8.229  0.00  0.00    -0.267 OA
ATOM     25  C   UNL     1      -2.214  -0.748  -7.867  0.00  0.00    +0.075 A 
ATOM     26  C   UNL     1      -1.745  -0.564  -9.249  0.00  0.00    -0.023 A 
ATOM     27  C   UNL     1      -0.491  -0.107  -9.409  0.00  0.00    -0.004 A 
ATOM     28  S   UNL     1       0.135   0.105  -7.758  0.00  0.00    -0.073 S 
ATOM     29  C   UNL     1      -1.298  -0.425  -6.858  0.00  0.00    +0.116 A 
ATOM     30  N   UNL     1      -1.600  -0.543  -5.567  0.00  0.00    -0.226 NA
ATOM     31  C   UNL     1      -0.120   0.037 -10.861  0.00  0.00    +0.043 C 
ATOM     32  C   UNL     1      -1.174  -0.802 -11.616  0.00  0.00    +0.010 C 
ATOM     33  C   UNL     1      -2.362  -0.769 -10.635  0.00  0.00    +0.037 C 
ENDBRANCH  19  20
ENDBRANCH  18  19
ENDBRANCH   9  18
TORSDOF 6
