REMARK  Name = ZINC13212172
REMARK  8 active torsions:
REMARK  status: ('A' for Active; 'I' for Inactive)
REMARK    1  A    between atoms: C_1  and  C_2
REMARK    2  A    between atoms: C_2  and  C_4
REMARK    3  A    between atoms: C_2  and  N_13
REMARK    4  A    between atoms: N_13  and  C_14
REMARK    5  A    between atoms: C_17  and  N_31
REMARK    6  A    between atoms: C_19  and  S_20
REMARK    7  A    between atoms: S_20  and  N_23
REMARK    8  A    between atoms: C_26  and  C_29
REMARK                            x       y       z     vdW  Elec       q    Type
REMARK                         _______ _______ _______ _____ _____    ______ ____
ROOT
ATOM      1  C   UNL     1      -2.206   1.261   2.442  0.00  0.00    +0.054 A 
ATOM      2  C   UNL     1      -2.642   1.363   3.758  0.00  0.00    +0.027 A 
ATOM      3  C   UNL     1      -2.817   2.607   4.331  0.00  0.00    +0.034 A 
ATOM      4  C   UNL     1      -2.554   3.751   3.599  0.00  0.00    +0.128 A 
ATOM      5  C   UNL     1      -2.116   3.653   2.292  0.00  0.00    +0.063 A 
ATOM      6  C   UNL     1      -1.938   2.412   1.712  0.00  0.00    +0.128 A 
ENDROOT
BRANCH   6   7
ATOM      7  S   UNL     1      -1.380   2.288   0.045  0.00  0.00    +0.063 S 
ATOM      8  O   UNL     1      -1.215   3.618  -0.427  0.00  0.00    -0.153 OA
ATOM      9  O   UNL     1      -2.230   1.350  -0.600  0.00  0.00    -0.153 OA
BRANCH   7  10
ATOM     10  N   UNL     1       0.130   1.610   0.084  0.00  0.00    -0.176 NA
ATOM     11  C   UNL     1       1.317   2.437   0.344  0.00  0.00    +0.110 C 
ATOM     12  C   UNL     1       2.329   2.216  -0.785  0.00  0.00    +0.032 C 
ATOM     13  C   UNL     1       2.622   0.720  -0.916  0.00  0.00    +0.105 C 
ATOM     14  C   UNL     1       1.333  -0.025  -1.270  0.00  0.00    +0.032 C 
ATOM     15  C   UNL     1       0.310   0.170  -0.147  0.00  0.00    +0.110 C 
BRANCH  13  16
ATOM     16  C   UNL     1       3.643   0.502  -2.003  0.00  0.00    +0.359 C 
ATOM     17  O   UNL     1       3.368  -0.179  -2.962  0.00  0.00    -0.246 OA
ATOM     18  O   UNL     1       4.858   1.065  -1.905  0.00  0.00    -0.246 OA
ENDBRANCH  13  16
ENDBRANCH   7  10
ENDBRANCH   6   7
BRANCH   4  19
ATOM     19  N   UNL     1      -2.744   5.082   4.217  0.00  0.00    +0.056 N 
ATOM     20  O   UNL     1      -2.513   6.091   3.573  0.00  0.00    -0.126 OA
ATOM     21  O   UNL     1      -3.130   5.170   5.368  0.00  0.00    -0.126 OA
ENDBRANCH   4  19
BRANCH   1  22
ATOM     22  N   UNL     1      -2.033   0.005   1.858  0.00  0.00    -0.333 N 
ATOM     23  H   UNL     1      -1.679  -0.067   0.957  0.00  0.00    +0.147 HD
BRANCH  22  25
ATOM     24  C   UNL     1      -1.210  -1.619   3.491  0.00  0.00    +0.036 C 
ATOM     25  C   UNL     1      -2.386  -1.205   2.604  0.00  0.00    +0.133 C 
BRANCH  25  26
ATOM     26  C   UNL     1      -2.701  -2.318   1.638  0.00  0.00    +0.126 A 
ATOM     27  C   UNL     1      -3.693  -3.206   1.788  0.00  0.00    +0.055 A 
ATOM     28  C   UNL     1      -3.628  -4.094   0.621  0.00  0.00    +0.020 A 
ATOM     29  C   UNL     1      -4.365  -5.196   0.192  0.00  0.00    +0.011 A 
ATOM     30  C   UNL     1      -4.034  -5.819  -0.980  0.00  0.00    +0.001 A 
ATOM     31  C   UNL     1      -2.971  -5.359  -1.744  0.00  0.00    +0.004 A 
ATOM     32  C   UNL     1      -2.231  -4.271  -1.336  0.00  0.00    +0.047 A 
ATOM     33  C   UNL     1      -2.550  -3.624  -0.148  0.00  0.00    +0.135 A 
ATOM     34  O   UNL     1      -2.032  -2.559   0.497  0.00  0.00    -0.458 OA
ENDBRANCH  25  26
ENDBRANCH  22  25
ENDBRANCH   1  22
TORSDOF 7
