REMARK  Name = ZINC24767510
REMARK  10 active torsions:
REMARK  status: ('A' for Active; 'I' for Inactive)
REMARK    1  A    between atoms: C_1  and  C_2
REMARK    2  A    between atoms: C_2  and  O_3
REMARK    3  A    between atoms: O_3  and  C_4
REMARK    4  A    between atoms: C_4  and  C_6
REMARK    5  A    between atoms: C_7  and  C_30
REMARK    6  A    between atoms: C_9  and  N_11
REMARK    7  A    between atoms: C_12  and  C_14
REMARK    8  A    between atoms: C_14  and  N_15
REMARK    9  A    between atoms: C_18  and  C_22
REMARK   10  A    between atoms: C_18  and  C_23
REMARK                            x       y       z     vdW  Elec       q    Type
REMARK                         _______ _______ _______ _____ _____    ______ ____
ROOT
ATOM      1  C   UNL     1       2.848  -4.087  -2.770  0.00  0.00    +0.214 C 
ENDROOT
BRANCH   1   2
ATOM      2  N   UNL     1       1.994  -3.407  -1.793  0.00  0.00    -0.215 N 
ATOM      3  C   UNL     1       2.458  -2.698  -0.745  0.00  0.00    +0.251 C 
ATOM      4  O   UNL     1       3.617  -2.510  -0.444  0.00  0.00    -0.272 OA
ATOM      5  C   UNL     1       1.229  -2.185  -0.021  0.00  0.00    +0.135 C 
ATOM      6  N   UNL     1       0.110  -2.715  -0.820  0.00  0.00    -0.281 N 
ATOM      7  C   UNL     1       0.656  -3.414  -1.831  0.00  0.00    +0.310 C 
ATOM      8  O   UNL     1       0.008  -3.987  -2.684  0.00  0.00    -0.252 OA
ATOM      9  C   UNL     1       1.179  -2.730   1.408  0.00  0.00    +0.047 C 
ATOM     10  H   UNL     1      -0.927  -2.498  -0.525  0.00  0.00    +0.152 HD
BRANCH   5  11
ATOM     11  C   UNL     1       1.208  -0.678  -0.013  0.00  0.00    -0.014 A 
ATOM     12  C   UNL     1       2.396   0.029  -0.021  0.00  0.00    +0.006 A 
ATOM     13  C   UNL     1       2.378   1.411  -0.013  0.00  0.00    +0.001 A 
ATOM     14  C   UNL     1       1.172   2.087   0.002  0.00  0.00    +0.015 A 
ATOM     15  C   UNL     1      -0.017   1.379   0.010  0.00  0.00    +0.018 A 
ATOM     16  C   UNL     1       0.002  -0.004   0.002  0.00  0.00    +0.021 A 
ATOM     17 BR   UNL     1      -1.667   2.303   0.022  0.00  0.00    -0.050 Br
ENDBRANCH   5  11
ENDBRANCH   1   2
BRANCH   1  19
ATOM     18  N   UNL     1       3.895  -6.311  -3.048  0.00  0.00    -0.279 N 
ATOM     19  C   UNL     1       3.125  -5.493  -2.304  0.00  0.00    +0.236 C 
ATOM     20  O   UNL     1       2.655  -5.888  -1.258  0.00  0.00    -0.274 OA
ATOM     21  H   UNL     1       4.322  -5.952  -3.997  0.00  0.00    +0.155 HD
BRANCH  18  25
ATOM     22  C   UNL     1       4.370  -9.981  -1.419  0.00  0.00    +0.101 A 
ATOM     23  C   UNL     1       5.026  -9.803  -2.631  0.00  0.00    -0.028 A 
ATOM     24  C   UNL     1       4.906  -8.581  -3.236  0.00  0.00    +0.035 A 
ATOM     25  C   UNL     1       4.150  -7.606  -2.619  0.00  0.00    +0.073 A 
ATOM     26  S   UNL     1       3.602  -8.390  -1.172  0.00  0.00    -0.067 S 
ATOM     27  C   UNL     1       5.838 -10.909  -3.253  0.00  0.00    +0.045 C 
BRANCH  22  28
ATOM     28  C   UNL     1       4.327 -11.129  -0.591  0.00  0.00    +0.346 C 
ATOM     29  O   UNL     1       4.923 -12.138  -0.918  0.00  0.00    -0.244 OA
BRANCH  28  30
ATOM     30  O   UNL     1       3.626 -11.103   0.562  0.00  0.00    -0.461 OA
BRANCH  30  32
ATOM     31  C   UNL     1       2.784 -12.077   2.608  0.00  0.00    +0.048 C 
ATOM     32  C   UNL     1       3.626 -12.296   1.349  0.00  0.00    +0.229 C 
ENDBRANCH  30  32
ENDBRANCH  28  30
ENDBRANCH  22  28
ENDBRANCH  18  25
ENDBRANCH   1  19
TORSDOF 7
