REMARK  Name = ZINC21011575
REMARK  12 active torsions:
REMARK  status: ('A' for Active; 'I' for Inactive)
REMARK    1  A    between atoms: C_1  and  C_2
REMARK    2  A    between atoms: C_2  and  C_3
REMARK    3  A    between atoms: C_6  and  N_9
REMARK    4  A    between atoms: C_10  and  C_12
REMARK    5  A    between atoms: C_12  and  S_13
REMARK    6  A    between atoms: S_13  and  C_14
REMARK    7  A    between atoms: C_20  and  C_22
REMARK    8  A    between atoms: N_24  and  C_30
REMARK    9  A    between atoms: C_26  and  O_27
REMARK   10  A    between atoms: O_27  and  C_28
REMARK   11  A    between atoms: C_28  and  C_29
REMARK   12  A    between atoms: C_30  and  C_31
REMARK                            x       y       z     vdW  Elec       q    Type
REMARK                         _______ _______ _______ _____ _____    ______ ____
ROOT
ATOM      1  C   UNL     1       0.038   1.032  -2.809  0.00  0.00    +0.160 A 
ATOM      2  N   UNL     1       1.121   0.277  -2.791  0.00  0.00    -0.133 NA
ATOM      3  N   UNL     1       1.693  -0.127  -3.975  0.00  0.00    -0.125 NA
ATOM      4  C   UNL     1       1.158   0.243  -5.122  0.00  0.00    +0.189 A 
ATOM      5  S   UNL     1      -0.237   1.209  -4.565  0.00  0.00    -0.024 S 
ATOM      6  N   UNL     1       1.567  -0.048  -6.420  0.00  0.00    -0.259 N 
ATOM      7  C   UNL     1       2.659  -0.810  -6.628  0.00  0.00    +0.256 C 
ATOM      8  O   UNL     1       3.287  -1.245  -5.681  0.00  0.00    -0.270 OA
ATOM      9  H   UNL     1       1.000   0.345  -7.277  0.00  0.00    +0.157 HD
ENDROOT
BRANCH   7  10
ATOM     10  C   UNL     1       3.092  -1.118  -8.001  0.00  0.00    +0.117 A 
ATOM     11  C   UNL     1       2.480  -0.702  -9.167  0.00  0.00    +0.125 A 
ATOM     12  N   UNL     1       3.190  -1.194 -10.194  0.00  0.00    -0.267 N 
ATOM     13  N   UNL     1       4.259  -1.938  -9.682  0.00  0.00    -0.133 NA
ATOM     14  C   UNL     1       4.213  -1.901  -8.375  0.00  0.00    +0.246 A 
BRANCH  12  15
ATOM     15  C   UNL     1       2.892  -0.992 -11.614  0.00  0.00    +0.140 C 
ATOM     16  C   UNL     1       4.122  -0.412 -12.315  0.00  0.00    +0.029 C 
ENDBRANCH  12  15
BRANCH  14  17
ATOM     17  O   UNL     1       5.084  -2.506  -7.527  0.00  0.00    -0.475 OA
BRANCH  17  18
ATOM     18  C   UNL     1       6.151  -3.253  -8.116  0.00  0.00    +0.227 C 
ATOM     19  C   UNL     1       7.021  -3.857  -7.013  0.00  0.00    +0.048 C 
ENDBRANCH  17  18
ENDBRANCH  14  17
ENDBRANCH   7  10
BRANCH   1  20
ATOM     20  S   UNL     1      -0.891   1.685  -1.462  0.00  0.00    -0.088 S 
BRANCH  20  21
ATOM     21  C   UNL     1      -0.016   1.080   0.008  0.00  0.00    +0.172 C 
BRANCH  21  23
ATOM     22  N   UNL     1      -0.242   1.246   2.466  0.00  0.00    -0.285 N 
ATOM     23  C   UNL     1      -0.717   1.573   1.248  0.00  0.00    +0.227 C 
ATOM     24  O   UNL     1      -1.709   2.264   1.150  0.00  0.00    -0.275 OA
ATOM     25  H   UNL     1       0.612   0.558   2.557  0.00  0.00    +0.155 HD
BRANCH  22  29
ATOM     26  C   UNL     1      -2.003   2.842   5.887  0.00  0.00    -0.048 A 
ATOM     27  C   UNL     1      -2.784   2.535   4.788  0.00  0.00    +0.005 A 
ATOM     28  C   UNL     1      -2.203   2.006   3.652  0.00  0.00    +0.023 A 
ATOM     29  C   UNL     1      -0.833   1.782   3.615  0.00  0.00    +0.033 A 
ATOM     30  C   UNL     1      -0.053   2.086   4.722  0.00  0.00    +0.023 A 
ATOM     31  C   UNL     1      -0.639   2.620   5.853  0.00  0.00    +0.005 A 
BRANCH  26  33
ATOM     32  C   UNL     1      -3.060   2.283   8.060  0.00  0.00    +0.009 C 
ATOM     33  C   UNL     1      -2.641   3.419   7.125  0.00  0.00    +0.032 C 
ENDBRANCH  26  33
ENDBRANCH  22  29
ENDBRANCH  21  23
ENDBRANCH  20  21
ENDBRANCH   1  20
TORSDOF 9
