REMARK  Name = ZINC48605097
REMARK  9 active torsions:
REMARK  status: ('A' for Active; 'I' for Inactive)
REMARK    1  A    between atoms: C_1  and  C_2
REMARK    2  A    between atoms: C_2  and  C_29
REMARK    3  A    between atoms: C_4  and  N_10
REMARK    4  A    between atoms: C_6  and  C_8
REMARK    5  A    between atoms: C_6  and  C_9
REMARK    6  A    between atoms: C_11  and  C_13
REMARK    7  A    between atoms: N_15  and  C_16
REMARK    8  A    between atoms: C_21  and  O_22
REMARK    9  A    between atoms: O_22  and  C_23
REMARK                            x       y       z     vdW  Elec       q    Type
REMARK                         _______ _______ _______ _____ _____    ______ ____
ROOT
ATOM      1  C   UNL     1      -5.976  -0.719   1.454  0.00  0.00    +0.303 C 
ATOM      2  O   UNL     1      -6.248  -1.095   0.332  0.00  0.00    -0.265 OA
ATOM      3  N   UNL     1      -6.949  -0.601   2.379  0.00  0.00    -0.275 N 
ATOM      4  H   UNL     1      -6.729  -0.323   3.282  0.00  0.00    +0.155 HD
ENDROOT
BRANCH   3   5
ATOM      5  C   UNL     1      -8.277  -0.880   2.038  0.00  0.00    +0.077 A 
ATOM      6  C   UNL     1      -8.559  -1.703   0.956  0.00  0.00    +0.027 A 
ATOM      7  C   UNL     1      -9.871  -1.978   0.621  0.00  0.00    +0.002 A 
ATOM      8  C   UNL     1     -10.905  -1.435   1.361  0.00  0.00    +0.004 A 
ATOM      9  C   UNL     1     -10.633  -0.615   2.440  0.00  0.00    +0.048 A 
ATOM     10  C   UNL     1      -9.320  -0.338   2.786  0.00  0.00    +0.150 A 
BRANCH  10  11
ATOM     11  O   UNL     1      -9.050   0.464   3.850  0.00  0.00    -0.454 OA
BRANCH  11  12
ATOM     12  C   UNL     1     -10.094   0.886   4.612  0.00  0.00    +0.129 A 
ATOM     13  C   UNL     1     -10.709   0.010   5.495  0.00  0.00    +0.046 A 
ATOM     14  C   UNL     1     -11.769   0.441   6.268  0.00  0.00    +0.004 A 
ATOM     15  C   UNL     1     -12.217   1.745   6.163  0.00  0.00    +0.000 A 
ATOM     16  C   UNL     1     -11.606   2.620   5.283  0.00  0.00    +0.004 A 
ATOM     17  C   UNL     1     -10.542   2.195   4.512  0.00  0.00    +0.046 A 
ENDBRANCH  11  12
ENDBRANCH  10  11
ENDBRANCH   3   5
BRANCH   1  19
ATOM     18  N   UNL     1      -3.592  -0.504   0.883  0.00  0.00    -0.305 N 
ATOM     19  C   UNL     1      -4.564  -0.387   1.809  0.00  0.00    +0.300 C 
ATOM     20  O   UNL     1      -4.293  -0.011   2.930  0.00  0.00    -0.265 OA
ATOM     21  H   UNL     1      -3.808  -0.805  -0.013  0.00  0.00    +0.149 HD
BRANCH  18  25
ATOM     22  C   UNL     1       0.104   1.889   0.989  0.00  0.00    -0.010 C 
ATOM     23  C   UNL     1       0.012   0.527   0.293  0.00  0.00    -0.072 C 
ATOM     24  C   UNL     1      -1.443   0.213  -0.035  0.00  0.00    +0.009 C 
ATOM     25  C   UNL     1      -2.203  -0.178   1.232  0.00  0.00    +0.071 C 
ATOM     26  C   UNL     1      -1.530  -1.413   1.830  0.00  0.00    +0.009 C 
ATOM     27  C   UNL     1      -0.075  -1.111   2.173  0.00  0.00    -0.072 C 
ATOM     28  N   UNL     1       0.662  -0.510   1.075  0.00  0.00    +0.386 N 
ATOM     29  C   UNL     1       0.607  -2.457   2.516  0.00  0.00    -0.010 C 
ATOM     30  C   UNL     1      -0.008  -0.241   3.432  0.00  0.00    -0.010 C 
ATOM     31  C   UNL     1       0.772   0.651  -1.048  0.00  0.00    -0.010 C 
ATOM     32  H   UNL     1       0.953  -1.258   0.437  0.00  0.00    -0.084 HD
ATOM     33  H   UNL     1       1.538  -0.130   1.447  0.00  0.00    -0.084 HD
ENDBRANCH  18  25
ENDBRANCH   1  19
TORSDOF 5
