REMARK  Name = ZINC45702101
REMARK  7 active torsions:
REMARK  status: ('A' for Active; 'I' for Inactive)
REMARK    1  A    between atoms: C_1  and  N_2
REMARK    2  A    between atoms: N_9  and  C_12
REMARK    3  A    between atoms: C_12  and  C_13
REMARK    4  A    between atoms: C_13  and  C_14
REMARK    5  A    between atoms: C_14  and  O_16
REMARK    6  A    between atoms: O_16  and  C_17
REMARK    7  A    between atoms: C_17  and  C_18
REMARK                            x       y       z     vdW  Elec       q    Type
REMARK                         _______ _______ _______ _____ _____    ______ ____
ROOT
ATOM      1  C   UNL     1      -2.347  -7.025  -7.158  0.00  0.00    +0.308 C 
ENDROOT
BRANCH   1   2
ATOM      2  C   UNL     1      -3.799  -7.326  -7.426  0.00  0.00    +0.170 A 
ATOM      3  N   UNL     1      -4.383  -8.320  -6.780  0.00  0.00    -0.214 NA
ATOM      4  C   UNL     1      -5.654  -8.634  -6.970  0.00  0.00    +0.128 A 
ATOM      5  C   UNL     1      -6.421  -7.878  -7.900  0.00  0.00    +0.051 A 
ATOM      6  C   UNL     1      -7.831  -8.044  -8.269  0.00  0.00    -0.025 A 
ATOM      7  C   UNL     1      -8.321  -7.190  -9.190  0.00  0.00    -0.004 A 
ATOM      8  S   UNL     1      -6.963  -6.126  -9.607  0.00  0.00    -0.073 S 
ATOM      9  C   UNL     1      -5.731  -6.836  -8.548  0.00  0.00    +0.114 A 
ATOM     10  N   UNL     1      -4.460  -6.587  -8.295  0.00  0.00    -0.221 NA
ATOM     11  C   UNL     1      -9.706  -7.145  -9.757  0.00  0.00    +0.043 C 
ATOM     12  C   UNL     1     -10.724  -7.185  -8.610  0.00  0.00    +0.005 C 
ATOM     13  C   UNL     1     -11.055  -8.643  -8.310  0.00  0.00    +0.001 C 
ATOM     14  C   UNL     1      -9.828  -9.518  -8.560  0.00  0.00    +0.005 C 
ATOM     15  C   UNL     1      -8.692  -9.126  -7.623  0.00  0.00    +0.037 C 
ATOM     16  N   UNL     1      -6.229  -9.682  -6.275  0.00  0.00    -0.343 N 
ATOM     17  H   UNL     1      -7.184  -9.685  -6.103  0.00  0.00    +0.144 HD
ATOM     18  H   UNL     1      -5.678 -10.416  -5.960  0.00  0.00    +0.144 HD
ENDBRANCH   1   2
BRANCH   1  19
ATOM     19  O   UNL     1      -2.245  -6.087  -6.085  0.00  0.00    -0.457 OA
BRANCH  19  20
ATOM     20  C   UNL     1      -1.009  -5.711  -5.720  0.00  0.00    +0.309 C 
ATOM     21  O   UNL     1      -0.046  -6.164  -6.292  0.00  0.00    -0.251 OA
BRANCH  20  22
ATOM     22  C   UNL     1      -0.823  -4.724  -4.596  0.00  0.00    +0.142 C 
BRANCH  22  23
ATOM     23  C   UNL     1       0.671  -4.469  -4.383  0.00  0.00    +0.137 C 
BRANCH  23  32
ATOM     24  C   UNL     1       1.452   0.576  -0.109  0.00  0.00    +0.174 C 
ATOM     25  N   UNL     1       1.359  -0.883  -0.201  0.00  0.00    -0.249 N 
ATOM     26  C   UNL     1       1.186  -1.598  -1.343  0.00  0.00    +0.165 A 
ATOM     27  C   UNL     1       1.155  -2.951  -0.968  0.00  0.00    +0.103 A 
ATOM     28  C   UNL     1       1.315  -3.001   0.429  0.00  0.00    +0.150 A 
ATOM     29  N   UNL     1       1.440  -1.780   0.872  0.00  0.00    -0.177 NA
ATOM     30  C   UNL     1       0.976  -3.953  -2.018  0.00  0.00    +0.265 A 
ATOM     31  O   UNL     1       0.940  -5.143  -1.757  0.00  0.00    -0.267 OA
ATOM     32  N   UNL     1       0.852  -3.510  -3.291  0.00  0.00    -0.298 N 
ATOM     33  C   UNL     1       0.895  -2.181  -3.560  0.00  0.00    +0.204 A 
ATOM     34  N   UNL     1       1.052  -1.275  -2.639  0.00  0.00    -0.218 NA
ENDBRANCH  23  32
ENDBRANCH  22  23
ENDBRANCH  20  22
ENDBRANCH  19  20
ENDBRANCH   1  19
TORSDOF 6
