REMARK  Name = ZINC39598955
REMARK  11 active torsions:
REMARK  status: ('A' for Active; 'I' for Inactive)
REMARK    1  A    between atoms: C_1  and  C_2
REMARK    2  A    between atoms: C_2  and  C_3
REMARK    3  A    between atoms: C_3  and  C_4
REMARK    4  A    between atoms: C_4  and  C_6
REMARK    5  A    between atoms: C_4  and  C_7
REMARK    6  A    between atoms: C_11  and  C_20
REMARK    7  A    between atoms: N_22  and  C_23
REMARK    8  A    between atoms: C_23  and  C_24
REMARK    9  A    between atoms: C_24  and  C_25
REMARK   10  A    between atoms: C_28  and  O_34
REMARK   11  A    between atoms: O_34  and  C_35
REMARK                            x       y       z     vdW  Elec       q    Type
REMARK                         _______ _______ _______ _____ _____    ______ ____
ROOT
ATOM      1  C   UNL     1       1.068  -2.475   2.596  0.00  0.00    +0.218 C 
ATOM      2  O   UNL     1       1.313  -1.758   3.543  0.00  0.00    -0.275 OA
ATOM      3  N   UNL     1       1.344  -3.793   2.660  0.00  0.00    -0.300 N 
ATOM      4  C   UNL     1       1.225  -4.799   1.578  0.00  0.00    +0.121 C 
ATOM      5  C   UNL     1       2.459  -5.712   1.758  0.00  0.00    +0.100 C 
ATOM      6  C   UNL     1       2.852  -5.555   3.236  0.00  0.00    -0.004 C 
ATOM      7  C   UNL     1       1.839  -4.562   3.826  0.00  0.00    +0.115 C 
ATOM      8  C   UNL     1       4.264  -4.988   3.350  0.00  0.00    -0.010 C 
ATOM      9  C   UNL     1       4.653  -4.894   4.828  0.00  0.00    -0.082 C 
ATOM     10  N   UNL     1       4.588  -6.228   5.439  0.00  0.00    +0.379 N 
ATOM     11  C   UNL     1       3.208  -6.726   5.408  0.00  0.00    -0.082 C 
ATOM     12  C   UNL     1       2.757  -6.897   3.955  0.00  0.00    -0.010 C 
ATOM     13  H   UNL     1       5.184  -6.860   4.927  0.00  0.00    -0.086 HD
ATOM     14  H   UNL     1       4.904  -6.173   6.396  0.00  0.00    -0.086 HD
ENDROOT
BRANCH   5  15
ATOM     15  C   UNL     1       3.583  -5.258   0.863  0.00  0.00    +0.218 C 
ATOM     16  O   UNL     1       3.644  -4.100   0.506  0.00  0.00    -0.275 OA
ATOM     17  N   UNL     1       4.519  -6.138   0.458  0.00  0.00    -0.315 N 
ATOM     18  H   UNL     1       4.470  -7.064   0.742  0.00  0.00    +0.149 HD
BRANCH  17  19
ATOM     19  C   UNL     1       5.612  -5.697  -0.413  0.00  0.00    +0.109 C 
BRANCH  19  20
ATOM     20  C   UNL     1       6.529  -6.882  -0.722  0.00  0.00    +0.056 C 
BRANCH  20  21
ATOM     21  C   UNL     1       7.653  -6.428  -1.617  0.00  0.00    -0.021 A 
ATOM     22  C   UNL     1       8.913  -5.814  -1.191  0.00  0.00    +0.006 A 
ATOM     23  C   UNL     1       9.453  -5.474   0.051  0.00  0.00    +0.056 A 
ATOM     24  C   UNL     1      10.704  -4.892   0.114  0.00  0.00    +0.121 A 
ATOM     25  C   UNL     1      11.422  -4.645  -1.052  0.00  0.00    +0.047 A 
ATOM     26  C   UNL     1      10.899  -4.976  -2.282  0.00  0.00    +0.030 A 
ATOM     27  C   UNL     1       9.641  -5.564  -2.367  0.00  0.00    +0.047 A 
ATOM     28  N   UNL     1       8.868  -5.998  -3.424  0.00  0.00    -0.360 N 
ATOM     29  C   UNL     1       7.691  -6.515  -2.956  0.00  0.00    +0.087 A 
ATOM     30  H   UNL     1       9.123  -5.948  -4.358  0.00  0.00    +0.165 HD
BRANCH  24  31
ATOM     31  O   UNL     1      11.235  -4.558   1.321  0.00  0.00    -0.495 OA
ATOM     32  C   UNL     1      12.532  -3.959   1.315  0.00  0.00    +0.277 C 
ENDBRANCH  24  31
ENDBRANCH  20  21
ENDBRANCH  19  20
ENDBRANCH  17  19
ENDBRANCH   5  15
BRANCH   1  33
ATOM     33  C   UNL     1       0.457  -1.893   1.348  0.00  0.00    +0.072 C 
ATOM     34  C   UNL     1       0.995  -0.477   1.129  0.00  0.00    +0.017 C 
BRANCH  33  35
ATOM     35  C   UNL     1      -1.065  -1.842   1.501  0.00  0.00    +0.012 C 
BRANCH  35  37
ATOM     36  C   UNL     1      -3.215  -1.318   0.343  0.00  0.00    +0.004 C 
ATOM     37  C   UNL     1      -1.694  -1.369   0.189  0.00  0.00    -0.003 C 
ENDBRANCH  35  37
ENDBRANCH  33  35
ENDBRANCH   1  33
TORSDOF 8
