REMARK  Name = ZINC39595668
REMARK  7 active torsions:
REMARK  status: ('A' for Active; 'I' for Inactive)
REMARK    1  A    between atoms: C_1  and  C_2
REMARK    2  A    between atoms: C_2  and  C_4
REMARK    3  A    between atoms: C_2  and  O_29
REMARK    4  A    between atoms: C_4  and  N_5
REMARK    5  A    between atoms: C_6  and  C_8
REMARK    6  A    between atoms: C_19  and  C_21
REMARK    7  A    between atoms: O_29  and  C_30
REMARK                            x       y       z     vdW  Elec       q    Type
REMARK                         _______ _______ _______ _____ _____    ______ ____
ROOT
ATOM      1  C   UNL     1      -2.277  -4.637  -0.380  0.00  0.00    +0.100 C 
ATOM      2  C   UNL     1      -1.679  -4.916  -1.776  0.00  0.00    +0.121 C 
ATOM      3  N   UNL     1      -2.458  -6.065  -2.295  0.00  0.00    -0.296 N 
ATOM      4  C   UNL     1      -3.849  -5.794  -1.859  0.00  0.00    +0.115 C 
ATOM      5  C   UNL     1      -3.702  -5.214  -0.438  0.00  0.00    -0.004 C 
ATOM      6  C   UNL     1      -3.868  -6.318   0.602  0.00  0.00    -0.010 C 
ATOM      7  C   UNL     1      -5.308  -6.837   0.563  0.00  0.00    -0.082 C 
ATOM      8  N   UNL     1      -6.235  -5.733   0.839  0.00  0.00    +0.379 N 
ATOM      9  C   UNL     1      -6.135  -4.718  -0.216  0.00  0.00    -0.082 C 
ATOM     10  C   UNL     1      -4.730  -4.110  -0.211  0.00  0.00    -0.010 C 
ATOM     11  C   UNL     1      -2.005  -7.118  -3.004  0.00  0.00    +0.249 C 
ATOM     12  O   UNL     1      -0.813  -7.244  -3.211  0.00  0.00    -0.270 OA
ATOM     13  H   UNL     1      -7.179  -6.089   0.874  0.00  0.00    -0.086 HD
ATOM     14  H   UNL     1      -6.004  -5.316   1.728  0.00  0.00    -0.086 HD
ENDROOT
BRANCH  11  15
ATOM     15  C   UNL     1      -2.955  -8.118  -3.528  0.00  0.00    +0.072 A 
ATOM     16  C   UNL     1      -4.225  -7.723  -3.955  0.00  0.00    +0.019 A 
ATOM     17  C   UNL     1      -5.108  -8.660  -4.444  0.00  0.00    +0.039 A 
ATOM     18  C   UNL     1      -4.739  -9.996  -4.514  0.00  0.00    +0.126 A 
ATOM     19  C   UNL     1      -3.482 -10.397  -4.093  0.00  0.00    +0.077 A 
ATOM     20  C   UNL     1      -2.585  -9.465  -3.606  0.00  0.00    +0.138 A 
ATOM     21  F   UNL     1      -1.357  -9.855  -3.200  0.00  0.00    -0.205 F 
ATOM     22  F   UNL     1      -5.611 -10.910  -4.994  0.00  0.00    -0.205 F 
ENDBRANCH  11  15
BRANCH   1  24
ATOM     23  N   UNL     1      -2.237  -2.693   1.149  0.00  0.00    -0.312 N 
ATOM     24  C   UNL     1      -2.323  -3.154  -0.115  0.00  0.00    +0.218 C 
ATOM     25  O   UNL     1      -2.436  -2.377  -1.038  0.00  0.00    -0.275 OA
ATOM     26  H   UNL     1      -2.146  -3.315   1.887  0.00  0.00    +0.149 HD
BRANCH  23  27
ATOM     27  C   UNL     1      -2.280  -1.251   1.406  0.00  0.00    +0.148 C 
BRANCH  27  29
ATOM     28  C   UNL     1      -2.210   0.507   3.180  0.00  0.00    +0.053 C 
ATOM     29  C   UNL     1      -2.165  -0.998   2.911  0.00  0.00    +0.187 C 
BRANCH  29  30
ATOM     30  O   UNL     1      -3.251  -1.636   3.586  0.00  0.00    -0.488 OA
BRANCH  30  31
ATOM     31  C   UNL     1      -3.057  -1.968   4.890  0.00  0.00    +0.121 A 
ATOM     32  C   UNL     1      -4.021  -2.696   5.571  0.00  0.00    +0.048 A 
ATOM     33  C   UNL     1      -3.823  -3.033   6.896  0.00  0.00    +0.042 A 
ATOM     34  C   UNL     1      -2.663  -2.643   7.544  0.00  0.00    +0.124 A 
ATOM     35  C   UNL     1      -1.700  -1.916   6.865  0.00  0.00    +0.042 A 
ATOM     36  C   UNL     1      -1.893  -1.584   5.538  0.00  0.00    +0.048 A 
ATOM     37  F   UNL     1      -2.470  -2.973   8.840  0.00  0.00    -0.205 F 
ENDBRANCH  30  31
ENDBRANCH  29  30
ENDBRANCH  27  29
ENDBRANCH  23  27
ENDBRANCH   1  24
TORSDOF 6
