REMARK  Name = ZINC39911560
REMARK  15 active torsions:
REMARK  status: ('A' for Active; 'I' for Inactive)
REMARK    1  A    between atoms: C_1  and  C_2
REMARK    2  A    between atoms: C_2  and  O_3
REMARK    3  A    between atoms: O_3  and  C_4
REMARK    4  A    between atoms: C_6  and  C_14
REMARK    5  A    between atoms: C_9  and  O_10
REMARK    6  A    between atoms: O_10  and  C_11
REMARK    7  A    between atoms: C_11  and  C_12
REMARK    8  A    between atoms: C_17  and  C_29
REMARK    9  A    between atoms: N_24  and  C_25
REMARK   10  A    between atoms: C_25  and  C_26
REMARK   11  A    between atoms: C_26  and  C_27
REMARK   12  A    between atoms: C_27  and  O_28
REMARK   13  A    between atoms: C_31  and  C_37
REMARK   14  A    between atoms: C_33  and  C_36
REMARK   15  A    between atoms: C_34  and  O_35
REMARK                            x       y       z     vdW  Elec       q    Type
REMARK                         _______ _______ _______ _____ _____    ______ ____
ROOT
ATOM      1  C   UNL     1       0.147  -4.974  -0.003  0.00  0.00    +0.141 C 
ATOM      2  C   UNL     1       0.790  -5.335  -1.314  0.00  0.00    +0.035 A 
ATOM      3  C   UNL     1       1.395  -4.887  -2.493  0.00  0.00    +0.102 A 
ATOM      4  N   UNL     1       1.713  -5.952  -3.203  0.00  0.00    -0.173 NA
ATOM      5  N   UNL     1       1.369  -7.027  -2.588  0.00  0.00    -0.272 N 
ATOM      6  H   UNL     1       1.506  -7.928  -2.922  0.00  0.00    +0.189 HD
ATOM      7  C   UNL     1       0.784  -6.714  -1.394  0.00  0.00    +0.126 A 
ATOM      8  C   UNL     1       0.159  -7.249  -0.180  0.00  0.00    +0.265 C 
ATOM      9  O   UNL     1       0.000  -8.432   0.056  0.00  0.00    -0.268 OA
ATOM     10  N   UNL     1      -0.215  -6.246   0.637  0.00  0.00    -0.285 N 
ENDROOT
BRANCH   3  11
ATOM     11  C   UNL     1       1.634  -3.473  -2.876  0.00  0.00    +0.044 A 
ATOM     12  C   UNL     1       1.363  -2.448  -1.972  0.00  0.00    +0.017 A 
ATOM     13  C   UNL     1       1.587  -1.135  -2.333  0.00  0.00    -0.049 A 
ATOM     14  C   UNL     1       2.080  -0.832  -3.590  0.00  0.00    +0.010 A 
ATOM     15  C   UNL     1       2.351  -1.841  -4.494  0.00  0.00    -0.008 A 
ATOM     16  C   UNL     1       2.136  -3.164  -4.143  0.00  0.00    +0.129 A 
ATOM     17  C   UNL     1       2.886  -1.502  -5.862  0.00  0.00    +0.047 C 
ATOM     18  C   UNL     1       1.294  -0.027  -1.354  0.00  0.00    +0.044 C 
BRANCH  16  19
ATOM     19  O   UNL     1       2.409  -4.157  -5.029  0.00  0.00    -0.506 OA
ATOM     20  H   UNL     1       1.664  -4.391  -5.599  0.00  0.00    +0.292 HD
ENDBRANCH  16  19
ENDBRANCH   3  11
BRANCH   1  23
ATOM     21  C   UNL     1      -3.340  -3.956  -1.038  0.00  0.00    +0.162 A 
ATOM     22  C   UNL     1      -2.204  -4.718  -0.818  0.00  0.00    +0.055 A 
ATOM     23  C   UNL     1      -1.087  -4.144  -0.241  0.00  0.00    -0.019 A 
ATOM     24  C   UNL     1      -1.100  -2.809   0.119  0.00  0.00    +0.009 A 
ATOM     25  C   UNL     1      -2.230  -2.043  -0.098  0.00  0.00    +0.050 A 
ATOM     26  C   UNL     1      -3.351  -2.611  -0.682  0.00  0.00    +0.162 A 
BRANCH  21  27
ATOM     27  O   UNL     1      -4.440  -4.519  -1.607  0.00  0.00    -0.489 OA
BRANCH  27  29
ATOM     28  C   UNL     1      -5.752  -6.396  -2.380  0.00  0.00    +0.048 C 
ATOM     29  C   UNL     1      -4.397  -5.928  -1.845  0.00  0.00    +0.226 C 
ENDBRANCH  27  29
ENDBRANCH  21  27
BRANCH  26  30
ATOM     30  O   UNL     1      -4.462  -1.857  -0.900  0.00  0.00    -0.484 OA
BRANCH  30  31
ATOM     31  C   UNL     1      -4.401  -0.484  -0.509  0.00  0.00    +0.256 C 
BRANCH  31  32
ATOM     32  C   UNL     1      -5.713   0.187  -0.827  0.00  0.00    +0.006 C 
ATOM     33  C   UNL     1      -6.276   0.975   0.056  0.00  0.00    +0.007 C 
ENDBRANCH  31  32
ENDBRANCH  30  31
ENDBRANCH  26  30
ENDBRANCH   1  23
BRANCH  10  34
ATOM     34  C   UNL     1      -0.869  -6.396   1.939  0.00  0.00    +0.111 C 
BRANCH  34  35
ATOM     35  C   UNL     1      -2.387  -6.404   1.749  0.00  0.00    +0.047 C 
BRANCH  35  36
ATOM     36  C   UNL     1      -3.071  -6.561   3.109  0.00  0.00    +0.157 C 
BRANCH  36  37
ATOM     37  O   UNL     1      -4.489  -6.569   2.931  0.00  0.00    -0.395 OA
ATOM     38  H   UNL     1      -4.988  -6.665   3.754  0.00  0.00    +0.209 HD
ENDBRANCH  36  37
ENDBRANCH  35  36
ENDBRANCH  34  35
ENDBRANCH  10  34
TORSDOF 12
