REMARK  Name = ZINC14989852
REMARK  12 active torsions:
REMARK  status: ('A' for Active; 'I' for Inactive)
REMARK    1  A    between atoms: C_1  and  O_2
REMARK    2  A    between atoms: O_2  and  C_3
REMARK    3  A    between atoms: C_3  and  C_4
REMARK    4  A    between atoms: C_4  and  N_5
REMARK    5  A    between atoms: C_8  and  C_12
REMARK    6  A    between atoms: C_8  and  C_21
REMARK    7  A    between atoms: C_12  and  C_13
REMARK    8  A    between atoms: C_17  and  O_19
REMARK    9  A    between atoms: O_19  and  C_20
REMARK   10  A    between atoms: C_26  and  C_27
REMARK   11  A    between atoms: C_26  and  N_67
REMARK   12  A    between atoms: C_28  and  C_29
REMARK                            x       y       z     vdW  Elec       q    Type
REMARK                         _______ _______ _______ _____ _____    ______ ____
ROOT
ATOM      1  N   UNL     1       5.343   0.590  -0.721  0.00  0.00    -0.222 N 
ATOM      2  C   UNL     1       4.361   1.294  -0.117  0.00  0.00    +0.247 C 
ATOM      3  O   UNL     1       4.140   1.376   1.073  0.00  0.00    -0.273 OA
ATOM      4  C   UNL     1       3.590   1.960  -1.239  0.00  0.00    +0.119 C 
ATOM      5  N   UNL     1       4.292   1.517  -2.456  0.00  0.00    -0.284 N 
ATOM      6  C   UNL     1       5.299   0.722  -2.052  0.00  0.00    +0.309 C 
ATOM      7  O   UNL     1       6.081   0.184  -2.811  0.00  0.00    -0.252 OA
ATOM      8  H   UNL     1       4.071   1.752  -3.371  0.00  0.00    +0.151 HD
ENDROOT
BRANCH   4   9
ATOM      9  C   UNL     1       2.137   1.483  -1.252  0.00  0.00    +0.018 C 
ATOM     10  C   UNL     1       1.417   1.995  -0.001  0.00  0.00    -0.013 C 
ATOM     11  C   UNL     1      -0.018   1.464   0.010  0.00  0.00    -0.078 C 
ATOM     12  C   UNL     1       0.646  -0.520  -1.213  0.00  0.00    -0.078 C 
ATOM     13  C   UNL     1       2.101  -0.048  -1.260  0.00  0.00    -0.013 C 
ATOM     14  N   UNL     1       0.018  -0.014   0.026  0.00  0.00    +0.382 N 
ATOM     15  H   UNL     1       0.572  -0.325   0.832  0.00  0.00    -0.081 HD
BRANCH  14  16
ATOM     16  C   UNL     1      -1.354  -0.550   0.152  0.00  0.00    -0.051 C 
BRANCH  16  17
ATOM     17  C   UNL     1      -1.329  -2.034  -0.105  0.00  0.00    -0.042 C 
ATOM     18  C   UNL     1      -1.804  -2.876   0.808  0.00  0.00    +0.040 C 
BRANCH  18  19
ATOM     19  C   UNL     1      -1.780  -4.324   0.557  0.00  0.00    +0.127 A 
ATOM     20  C   UNL     1      -2.233  -5.291   1.405  0.00  0.00    +0.049 A 
ATOM     21  C   UNL     1      -2.015  -6.526   0.764  0.00  0.00    +0.042 A 
ATOM     22  C   UNL     1      -1.446  -6.258  -0.428  0.00  0.00    +0.195 A 
ATOM     23  O   UNL     1      -1.311  -4.928  -0.553  0.00  0.00    -0.464 OA
ENDBRANCH  18  19
ENDBRANCH  16  17
ENDBRANCH  14  16
ENDBRANCH   4   9
BRANCH   1  24
ATOM     24  C   UNL     1       6.335  -0.217  -0.007  0.00  0.00    +0.146 C 
BRANCH  24  25
ATOM     25  C   UNL     1       7.552   0.649   0.327  0.00  0.00    +0.179 C 
BRANCH  25  27
ATOM     26  C   UNL     1       8.237   2.546   1.621  0.00  0.00    +0.194 C 
ATOM     27  O   UNL     1       7.169   1.677   1.243  0.00  0.00    -0.381 OA
ENDBRANCH  25  27
ENDBRANCH  24  25
ENDBRANCH   1  24
BRANCH   4  28
ATOM     28  C   UNL     1       3.654   3.483  -1.105  0.00  0.00    +0.070 C 
BRANCH  28  29
ATOM     29  C   UNL     1       5.086   3.938  -1.219  0.00  0.00    -0.041 A 
ATOM     30  C   UNL     1       5.869   4.043  -0.084  0.00  0.00    +0.004 A 
ATOM     31  C   UNL     1       7.185   4.454  -0.185  0.00  0.00    +0.004 A 
ATOM     32  C   UNL     1       7.717   4.773  -1.420  0.00  0.00    +0.045 A 
ATOM     33  C   UNL     1       6.932   4.675  -2.559  0.00  0.00    +0.120 A 
ATOM     34  C   UNL     1       5.613   4.256  -2.455  0.00  0.00    +0.049 A 
BRANCH  33  35
ATOM     35  O   UNL     1       7.453   4.988  -3.774  0.00  0.00    -0.495 OA
ATOM     36  C   UNL     1       8.817   5.412  -3.805  0.00  0.00    +0.277 C 
ENDBRANCH  33  35
ENDBRANCH  28  29
ENDBRANCH   4  28
TORSDOF 10
