REMARK  Name = ZINC22617685
REMARK  8 active torsions:
REMARK  status: ('A' for Active; 'I' for Inactive)
REMARK    1  A    between atoms: C_3  and  C_6
REMARK    2  A    between atoms: C_6  and  N_7
REMARK    3  A    between atoms: N_7  and  S_8
REMARK    4  A    between atoms: S_8  and  C_11
REMARK    5  A    between atoms: C_14  and  C_17
REMARK    6  A    between atoms: C_18  and  C_19
REMARK    7  A    between atoms: N_21  and  N_22
REMARK    8  A    between atoms: C_23  and  C_25
REMARK                            x       y       z     vdW  Elec       q    Type
REMARK                         _______ _______ _______ _____ _____    ______ ____
ROOT
ATOM      1  C   UNL     1      -9.480   0.970   3.131  0.00  0.00    +0.013 C 
ATOM      2  C   UNL     1      -8.655   0.661   2.110  0.00  0.00    +0.069 C 
ENDROOT
BRANCH   1   6
ATOM      3  C   UNL     1     -13.460  -0.498   3.160  0.00  0.00    +0.105 A 
ATOM      4  C   UNL     1     -13.012   0.298   4.200  0.00  0.00    +0.029 A 
ATOM      5  C   UNL     1     -11.719   0.778   4.198  0.00  0.00    +0.010 A 
ATOM      6  C   UNL     1     -10.861   0.460   3.141  0.00  0.00    -0.025 A 
ATOM      7  C   UNL     1     -11.323  -0.340   2.091  0.00  0.00    +0.010 A 
ATOM      8  C   UNL     1     -12.616  -0.817   2.110  0.00  0.00    +0.029 A 
BRANCH   3   9
ATOM      9  S   UNL     1     -15.113  -1.107   3.172  0.00  0.00    +0.059 S 
ATOM     10  O   UNL     1     -15.122  -2.275   2.363  0.00  0.00    -0.153 OA
ATOM     11  O   UNL     1     -15.532  -1.119   4.530  0.00  0.00    -0.153 OA
BRANCH   9  12
ATOM     12  N   UNL     1     -16.054   0.013   2.397  0.00  0.00    -0.183 NA
ATOM     13  H   UNL     1     -16.713   0.665   2.989  0.00  0.00    +0.148 HD
BRANCH  12  14
ATOM     14  C   UNL     1     -15.848   0.281   0.971  0.00  0.00    +0.180 C 
BRANCH  14  17
ATOM     15  C   UNL     1     -18.418   2.651  -0.198  0.00  0.00    +0.041 A 
ATOM     16  C   UNL     1     -17.161   2.377   0.390  0.00  0.00    +0.046 A 
ATOM     17  C   UNL     1     -17.032   1.038   0.426  0.00  0.00    +0.120 A 
ATOM     18  O   UNL     1     -18.135   0.491  -0.110  0.00  0.00    -0.466 OA
ATOM     19  C   UNL     1     -18.981   1.464  -0.485  0.00  0.00    +0.195 A 
ENDBRANCH  14  17
ENDBRANCH  12  14
ENDBRANCH   9  12
ENDBRANCH   3   9
ENDBRANCH   1   6
BRANCH   2  20
ATOM     20  C   UNL     1      -7.281   1.168   2.100  0.00  0.00    +0.253 C 
ATOM     21  O   UNL     1      -6.884   1.868   3.012  0.00  0.00    -0.269 OA
ATOM     22  N   UNL     1      -6.457   0.859   1.079  0.00  0.00    -0.231 N 
ATOM     23  H   UNL     1      -6.816   0.226   0.254  0.00  0.00    +0.173 HD
BRANCH  22  24
ATOM     24  N   UNL     1      -5.143   1.344   1.069  0.00  0.00    -0.234 N 
ATOM     25  C   UNL     1      -4.318   1.035   0.049  0.00  0.00    +0.235 C 
ATOM     26  O   UNL     1      -4.714   0.337  -0.861  0.00  0.00    -0.274 OA
ATOM     27  H   UNL     1      -4.784   1.976   1.894  0.00  0.00    +0.173 HD
BRANCH  25  28
ATOM     28  C   UNL     1      -2.904   1.556   0.038  0.00  0.00    +0.049 C 
ATOM     29  C   UNL     1      -2.188   1.063  -1.221  0.00  0.00    +0.019 C 
ATOM     30  C   UNL     1      -0.753   1.593  -1.232  0.00  0.00    -0.009 C 
ATOM     31  C   UNL     1      -0.013   1.086   0.008  0.00  0.00    +0.007 C 
ATOM     32  C   UNL     1      -0.729   1.579   1.267  0.00  0.00    -0.009 C 
ATOM     33  C   UNL     1      -2.164   1.050   1.278  0.00  0.00    +0.019 C 
ATOM     34  C   UNL     1      -0.750   3.109   1.275  0.00  0.00    +0.007 C 
ATOM     35  C   UNL     1      -1.490   3.616   0.036  0.00  0.00    -0.009 C 
ATOM     36  C   UNL     1      -0.773   3.123  -1.223  0.00  0.00    +0.007 C 
ATOM     37  C   UNL     1      -2.925   3.086   0.047  0.00  0.00    +0.019 C 
ENDBRANCH  25  28
ENDBRANCH  22  24
ENDBRANCH   2  20
TORSDOF 8
