REMARK  Name = ZINC02250225
REMARK  4 active torsions:
REMARK  status: ('A' for Active; 'I' for Inactive)
REMARK    1  A    between atoms: C_1  and  C_2
REMARK    2  A    between atoms: C_2  and  O_3
REMARK    3  A    between atoms: C_8  and  C_22
REMARK    4  A    between atoms: C_11  and  C_15
REMARK                            x       y       z     vdW  Elec       q    Type
REMARK                         _______ _______ _______ _____ _____    ______ ____
ROOT
ATOM      1  C   UNL     1      -0.018   1.503   0.010  0.00  0.00    +0.107 C 
ATOM      2  C   UNL     1       0.002  -0.004   0.002  0.00  0.00    +0.164 C 
ATOM      3  N   UNL     1       0.000  -0.648  -1.127  0.00  0.00    -0.298 N 
ATOM      4  C   UNL     1       0.019  -2.020  -1.134  0.00  0.00    +0.251 A 
ATOM      5  N   UNL     1       0.024  -2.781  -2.212  0.00  0.00    -0.129 NA
ATOM      6  N   UNL     1       0.046  -4.103  -1.769  0.00  0.00    -0.219 N 
ATOM      7  C   UNL     1       0.070  -5.343  -2.539  0.00  0.00    +0.165 C 
ATOM      8  C   UNL     1      -0.204  -6.511  -1.631  0.00  0.00    +0.028 C 
ATOM      9  C   UNL     1      -0.200  -6.422  -0.308  0.00  0.00    +0.039 C 
ATOM     10  N   UNL     1       0.058  -5.215   0.354  0.00  0.00    -0.283 N 
ATOM     11  C   UNL     1       0.048  -4.059  -0.412  0.00  0.00    +0.220 A 
ATOM     12  N   UNL     1       0.040  -2.808  -0.044  0.00  0.00    -0.178 NA
ATOM     13  H   UNL     1      -0.015  -0.158  -1.964  0.00  0.00    +0.171 HD
ATOM     14  H   UNL     1       0.236  -5.189   1.307  0.00  0.00    +0.155 HD
ENDROOT
BRANCH   9  15
ATOM     15  C   UNL     1      -0.475  -7.637   0.493  0.00  0.00    -0.004 A 
ATOM     16  C   UNL     1      -0.730  -8.852  -0.142  0.00  0.00    +0.011 A 
ATOM     17  C   UNL     1      -0.986  -9.980   0.610  0.00  0.00    +0.020 A 
ATOM     18  C   UNL     1      -0.992  -9.907   1.992  0.00  0.00    +0.041 A 
ATOM     19  C   UNL     1      -0.740  -8.703   2.628  0.00  0.00    +0.020 A 
ATOM     20  C   UNL     1      -0.476  -7.570   1.886  0.00  0.00    +0.011 A 
ATOM     21 CL   UNL     1      -1.316 -11.330   2.932  0.00  0.00    -0.084 Cl
ENDBRANCH   9  15
BRANCH   7  22
ATOM     22  C   UNL     1       1.425  -5.512  -3.176  0.00  0.00    -0.019 A 
ATOM     23  C   UNL     1       2.555  -5.594  -2.384  0.00  0.00    +0.007 A 
ATOM     24  C   UNL     1       3.799  -5.749  -2.967  0.00  0.00    +0.020 A 
ATOM     25  C   UNL     1       3.912  -5.822  -4.344  0.00  0.00    +0.041 A 
ATOM     26  C   UNL     1       2.781  -5.740  -5.136  0.00  0.00    +0.020 A 
ATOM     27  C   UNL     1       1.538  -5.590  -4.552  0.00  0.00    +0.007 A 
ATOM     28 CL   UNL     1       5.474  -6.016  -5.077  0.00  0.00    -0.084 Cl
ENDBRANCH   7  22
BRANCH   2  29
ATOM     29  O   UNL     1       0.022  -0.685   1.166  0.00  0.00    -0.497 OA
ATOM     30  H   UNL     1       0.022  -0.120   1.952  0.00  0.00    +0.293 HD
ENDBRANCH   2  29
TORSDOF 3
