REMARK  Name = ZINC62254792
REMARK  7 active torsions:
REMARK  status: ('A' for Active; 'I' for Inactive)
REMARK    1  A    between atoms: C_1  and  C_2
REMARK    2  A    between atoms: C_2  and  C_3
REMARK    3  A    between atoms: C_2  and  C_16
REMARK    4  A    between atoms: C_3  and  N_4
REMARK    5  A    between atoms: N_4  and  C_5
REMARK    6  A    between atoms: C_5  and  C_6
REMARK    7  A    between atoms: C_16  and  N_17
REMARK                            x       y       z     vdW  Elec       q    Type
REMARK                         _______ _______ _______ _____ _____    ______ ____
ROOT
ATOM      1  N   UNL     1      -0.057  -0.113  -2.444  0.00  0.00    +0.382 N 
ATOM      2  H   UNL     1      -0.975  -0.528  -2.395  0.00  0.00    -0.085 HD
ATOM      3  H   UNL     1      -0.143   0.892  -2.478  0.00  0.00    -0.085 HD
ENDROOT
BRANCH   1   4
ATOM      4  C   UNL     1       0.718  -0.497  -1.257  0.00  0.00    -0.077 C 
BRANCH   4   6
ATOM      5  C   UNL     1      -0.019   1.526   0.010  0.00  0.00    +0.007 C 
ATOM      6  C   UNL     1       0.002  -0.004   0.002  0.00  0.00    -0.011 C 
BRANCH   6   7
ATOM      7  C   UNL     1       0.742  -0.511   1.242  0.00  0.00    +0.124 C 
BRANCH   7   8
ATOM      8  N   UNL     1      -0.008  -0.140   2.444  0.00  0.00    -0.338 N 
ATOM      9  C   UNL     1       0.129   1.017   3.162  0.00  0.00    +0.104 A 
ATOM     10  C   UNL     1      -0.748   0.949   4.182  0.00  0.00    +0.101 A 
ATOM     11  N   UNL     1      -1.403  -0.218   4.089  0.00  0.00    -0.352 N 
ATOM     12  C   UNL     1      -0.969  -0.873   3.047  0.00  0.00    +0.173 A 
ATOM     13  H   UNL     1      -2.093  -0.525   4.697  0.00  0.00    +0.166 HD
ENDBRANCH   7   8
ENDBRANCH   6   7
ENDBRANCH   4   6
ENDBRANCH   1   4
BRANCH   1  14
ATOM     14  C   UNL     1       0.630  -0.587  -3.652  0.00  0.00    -0.047 C 
BRANCH  14  15
ATOM     15  C   UNL     1      -0.165  -0.192  -4.870  0.00  0.00    -0.060 A 
ATOM     16  C   UNL     1      -1.138  -1.041  -5.364  0.00  0.00    +0.051 A 
ATOM     17  C   UNL     1      -1.870  -0.681  -6.483  0.00  0.00    +0.168 A 
ATOM     18  C   UNL     1      -1.624   0.538  -7.109  0.00  0.00    +0.180 A 
ATOM     19  C   UNL     1      -0.647   1.385  -6.609  0.00  0.00    +0.063 A 
ATOM     20  C   UNL     1       0.076   1.021  -5.488  0.00  0.00    +0.021 A 
ATOM     21 BR   UNL     1      -0.309   3.042  -7.456  0.00  0.00    -0.046 Br
ATOM     22  O   UNL     1      -2.467   0.658  -8.176  0.00  0.00    -0.451 OA
ATOM     23  C   UNL     1      -2.947  -0.673  -8.439  0.00  0.00    +0.466 C 
ATOM     24  O   UNL     1      -2.867  -1.325  -7.157  0.00  0.00    -0.453 OA
ENDBRANCH  14  15
ENDBRANCH   1  14
TORSDOF 6
