REMARK  Name = ZINC25052093
REMARK  7 active torsions:
REMARK  status: ('A' for Active; 'I' for Inactive)
REMARK    1  A    between atoms: C_1  and  C_2
REMARK    2  A    between atoms: C_2  and  C_4
REMARK    3  A    between atoms: C_2  and  S_14
REMARK    4  A    between atoms: N_10  and  C_11
REMARK    5  A    between atoms: N_10  and  C_12
REMARK    6  A    between atoms: S_14  and  C_15
REMARK    7  A    between atoms: N_19  and  C_20
REMARK                            x       y       z     vdW  Elec       q    Type
REMARK                         _______ _______ _______ _____ _____    ______ ____
ROOT
ATOM      1  C   UNL     1      -0.006   0.007   0.025  0.00  0.00    +0.198 A 
ATOM      2  N   UNL     1       0.005   1.308   0.188  0.00  0.00    -0.120 NA
ATOM      3  N   UNL     1       1.330   1.748   0.082  0.00  0.00    -0.112 NA
ATOM      4  C   UNL     1       2.089   0.704  -0.143  0.00  0.00    +0.225 A 
ATOM      5  N   UNL     1       1.284  -0.402  -0.184  0.00  0.00    -0.259 N 
ATOM      6  N   UNL     1       3.467   0.717  -0.311  0.00  0.00    -0.299 N 
ATOM      7  C   UNL     1       4.138   1.250   0.882  0.00  0.00    +0.108 C 
ATOM      8  C   UNL     1       5.653   1.115   0.720  0.00  0.00    +0.019 C 
ATOM      9  C   UNL     1       6.100   1.884  -0.526  0.00  0.00    +0.003 C 
ATOM     10  C   UNL     1       5.351   1.342  -1.746  0.00  0.00    +0.019 C 
ATOM     11  C   UNL     1       3.844   1.470  -1.513  0.00  0.00    +0.108 C 
ENDROOT
BRANCH   5  12
ATOM     12  C   UNL     1       1.705  -1.722  -0.403  0.00  0.00    +0.052 A 
ATOM     13  C   UNL     1       2.501  -2.362   0.536  0.00  0.00    +0.026 A 
ATOM     14  C   UNL     1       2.910  -3.664   0.320  0.00  0.00    +0.002 A 
ATOM     15  C   UNL     1       2.537  -4.325  -0.835  0.00  0.00    +0.000 A 
ATOM     16  C   UNL     1       1.748  -3.688  -1.775  0.00  0.00    +0.002 A 
ATOM     17  C   UNL     1       1.331  -2.388  -1.562  0.00  0.00    +0.026 A 
ENDBRANCH   5  12
BRANCH   1  18
ATOM     18  S   UNL     1      -1.429  -1.031   0.067  0.00  0.00    -0.075 S 
BRANCH  18  20
ATOM     19  C   UNL     1      -2.950   1.068  -0.808  0.00  0.00    +0.028 C 
ATOM     20  C   UNL     1      -2.800   0.116   0.380  0.00  0.00    +0.119 C 
BRANCH  20  21
ATOM     21  C   UNL     1      -4.076  -0.665   0.563  0.00  0.00    +0.149 A 
ATOM     22  N   UNL     1      -4.372  -1.647  -0.270  0.00  0.00    -0.198 NA
ATOM     23  C   UNL     1      -5.496  -2.342  -0.109  0.00  0.00    +0.217 A 
ATOM     24  N   UNL     1      -6.325  -2.040   0.885  0.00  0.00    -0.181 NA
ATOM     25  C   UNL     1      -6.026  -1.048   1.717  0.00  0.00    +0.222 A 
ATOM     26  N   UNL     1      -4.898  -0.361   1.552  0.00  0.00    -0.198 NA
ATOM     27  N   UNL     1      -6.883  -0.731   2.750  0.00  0.00    -0.306 N 
ATOM     28  C   UNL     1      -6.552   0.362   3.668  0.00  0.00    +0.132 C 
ATOM     29  C   UNL     1      -8.125  -1.488   2.930  0.00  0.00    +0.132 C 
ATOM     30  N   UNL     1      -5.803  -3.371  -0.976  0.00  0.00    -0.327 N 
ATOM     31  H   UNL     1      -6.732  -3.944  -0.842  0.00  0.00    +0.145 HD
ATOM     32  H   UNL     1      -5.118  -3.617  -1.801  0.00  0.00    +0.145 HD
ENDBRANCH  20  21
ENDBRANCH  18  20
ENDBRANCH   1  18
TORSDOF 4
