REMARK  Name = ZINC13333041
REMARK  9 active torsions:
REMARK  status: ('A' for Active; 'I' for Inactive)
REMARK    1  A    between atoms: C_4  and  C_7
REMARK    2  A    between atoms: C_7  and  C_8
REMARK    3  A    between atoms: C_8  and  C_10
REMARK    4  A    between atoms: C_8  and  N_12
REMARK    5  A    between atoms: C_22  and  S_23
REMARK    6  A    between atoms: S_23  and  C_24
REMARK    7  A    between atoms: C_24  and  C_25
REMARK    8  A    between atoms: N_27  and  C_28
REMARK    9  A    between atoms: C_28  and  C_33
REMARK                            x       y       z     vdW  Elec       q    Type
REMARK                         _______ _______ _______ _____ _____    ______ ____
ROOT
ATOM      1  N   UNL     1       1.119   2.067   0.003  0.00  0.00    -0.273 N 
ATOM      2  C   UNL     1       2.338   1.480  -0.012  0.00  0.00    +0.263 A 
ATOM      3  O   UNL     1       3.358   2.144  -0.019  0.00  0.00    -0.267 OA
ATOM      4  C   UNL     1       2.384   0.011  -0.021  0.00  0.00    +0.065 A 
ATOM      5  C   UNL     1       3.590  -0.688  -0.035  0.00  0.00    +0.015 A 
ATOM      6  C   UNL     1       3.576  -2.055  -0.043  0.00  0.00    +0.001 A 
ATOM      7  C   UNL     1       2.375  -2.753  -0.034  0.00  0.00    +0.002 A 
ATOM      8  C   UNL     1       1.179  -2.093  -0.020  0.00  0.00    +0.028 A 
ATOM      9  C   UNL     1       1.160  -0.695  -0.013  0.00  0.00    +0.079 A 
ATOM     10  N   UNL     1       0.002  -0.004   0.002  0.00  0.00    -0.223 NA
ATOM     11  C   UNL     1      -0.016   1.306   0.009  0.00  0.00    +0.173 A 
ENDROOT
BRANCH   1  12
ATOM     12  C   UNL     1       1.015   3.528   0.011  0.00  0.00    +0.209 C 
BRANCH  12  13
ATOM     13  C   UNL     1       1.676   4.086  -1.223  0.00  0.00    +0.379 C 
ATOM     14  O   UNL     1       2.182   3.339  -2.027  0.00  0.00    -0.244 OA
ATOM     15  O   UNL     1       1.703   5.412  -1.429  0.00  0.00    -0.244 OA
ENDBRANCH  12  13
BRANCH  12  16
ATOM     16  C   UNL     1       1.710   4.082   1.256  0.00  0.00    +0.072 C 
BRANCH  16  20
ATOM     17  C   UNL     1      -0.378   2.781   4.749  0.00  0.00    +0.000 A 
ATOM     18  C   UNL     1       0.650   2.014   4.233  0.00  0.00    +0.000 A 
ATOM     19  C   UNL     1       1.326   2.435   3.102  0.00  0.00    +0.004 A 
ATOM     20  C   UNL     1       0.973   3.623   2.488  0.00  0.00    -0.045 A 
ATOM     21  C   UNL     1      -0.052   4.391   3.008  0.00  0.00    +0.004 A 
ATOM     22  C   UNL     1      -0.731   3.968   4.135  0.00  0.00    +0.000 A 
ENDBRANCH  16  20
ENDBRANCH  12  16
ENDBRANCH   1  12
BRANCH  11  23
ATOM     23  S   UNL     1      -1.576   2.125   0.021  0.00  0.00    -0.078 S 
BRANCH  23  24
ATOM     24  C   UNL     1      -2.683   0.692   0.018  0.00  0.00    +0.173 C 
BRANCH  24  25
ATOM     25  C   UNL     1      -4.114   1.163   0.028  0.00  0.00    +0.224 C 
ATOM     26  O   UNL     1      -4.362   2.351   0.035  0.00  0.00    -0.275 OA
ATOM     27  N   UNL     1      -5.119   0.266   0.027  0.00  0.00    -0.297 N 
ATOM     28  H   UNL     1      -4.921  -0.684   0.021  0.00  0.00    +0.150 HD
BRANCH  27  29
ATOM     29  C   UNL     1      -6.511   0.724   0.036  0.00  0.00    +0.121 C 
ATOM     30  C   UNL     1      -6.794   1.526   1.323  0.00  0.00    +0.041 C 
ATOM     31  C   UNL     1      -8.243   1.131   1.704  0.00  0.00    +0.003 C 
ATOM     32  C   UNL     1      -8.293  -0.376   1.347  0.00  0.00    +0.003 C 
ATOM     33  C   UNL     1      -7.463  -0.485   0.051  0.00  0.00    +0.041 C 
BRANCH  29  34
ATOM     34  C   UNL     1      -6.774   1.558  -1.147  0.00  0.00    +0.088 C 
ATOM     35  N   UNL     1      -6.977   2.202  -2.061  0.00  0.00    -0.194 NA
ENDBRANCH  29  34
ENDBRANCH  27  29
ENDBRANCH  24  25
ENDBRANCH  23  24
ENDBRANCH  11  23
TORSDOF 9
