REMARK  Name = ZINC64492076
REMARK  13 active torsions:
REMARK  status: ('A' for Active; 'I' for Inactive)
REMARK    1  A    between atoms: C_1  and  C_2
REMARK    2  A    between atoms: N_8  and  C_9
REMARK    3  A    between atoms: C_9  and  C_10
REMARK    4  A    between atoms: C_10  and  N_11
REMARK    5  A    between atoms: C_12  and  C_14
REMARK    6  A    between atoms: C_21  and  C_23
REMARK    7  A    between atoms: C_25  and  C_36
REMARK    8  A    between atoms: C_26  and  C_30
REMARK    9  A    between atoms: C_27  and  C_29
REMARK   10  A    between atoms: C_30  and  O_32
REMARK   11  A    between atoms: O_32  and  C_33
REMARK   12  A    between atoms: C_33  and  C_34
REMARK   13  A    between atoms: C_33  and  C_35
REMARK                            x       y       z     vdW  Elec       q    Type
REMARK                         _______ _______ _______ _____ _____    ______ ____
ROOT
ATOM      1  C   UNL     1       0.083   0.933   7.127  0.00  0.00    +0.092 C 
ATOM      2  C   UNL     1       1.013   0.834   8.339  0.00  0.00    +0.016 C 
ATOM      3  C   UNL     1       0.324   1.440   9.563  0.00  0.00    +0.020 C 
ATOM      4  C   UNL     1      -0.954   0.651   9.868  0.00  0.00    +0.108 C 
ATOM      5  N   UNL     1      -1.789   0.619   8.660  0.00  0.00    -0.296 N 
ATOM      6  C   UNL     1      -1.197   0.139   7.404  0.00  0.00    +0.120 C 
ATOM      7  C   UNL     1      -3.075   1.021   8.703  0.00  0.00    +0.261 C 
ATOM      8  O   UNL     1      -3.720   1.103   7.677  0.00  0.00    -0.269 OA
ENDROOT
BRANCH   7   9
ATOM      9  C   UNL     1      -3.699   1.364   9.999  0.00  0.00    +0.111 C 
ATOM     10  N   UNL     1      -3.178   1.207  11.180  0.00  0.00    -0.250 NA
ATOM     11  C   UNL     1      -3.973   1.606  12.176  0.00  0.00    +0.049 C 
ATOM     12  C   UNL     1      -5.155   2.089  11.724  0.00  0.00    +0.066 C 
ATOM     13  C   UNL     1      -5.071   1.974  10.213  0.00  0.00    +0.078 C 
ATOM     14  C   UNL     1      -6.165   1.046   9.681  0.00  0.00    +0.019 C 
ATOM     15  C   UNL     1      -3.599   1.527  13.634  0.00  0.00    +0.066 C 
BRANCH  12  16
ATOM     16  C   UNL     1      -6.269   2.613  12.520  0.00  0.00    +0.338 C 
ATOM     17  O   UNL     1      -6.186   2.647  13.732  0.00  0.00    -0.245 OA
BRANCH  16  18
ATOM     18  O   UNL     1      -7.385   3.058  11.907  0.00  0.00    -0.459 OA
BRANCH  18  19
ATOM     19  C   UNL     1      -8.430   3.555  12.744  0.00  0.00    +0.171 C 
ATOM     20  C   UNL     1      -8.235   5.056  12.967  0.00  0.00    +0.052 C 
ATOM     21  C   UNL     1      -9.782   3.312  12.070  0.00  0.00    +0.052 C 
ENDBRANCH  18  19
ENDBRANCH  16  18
ENDBRANCH  12  16
ENDBRANCH   7   9
BRANCH   1  23
ATOM     22  N   UNL     1       0.142   0.346   4.725  0.00  0.00    -0.317 N 
ATOM     23  C   UNL     1       0.775   0.365   5.915  0.00  0.00    +0.218 C 
ATOM     24  O   UNL     1       1.902  -0.074   6.009  0.00  0.00    -0.275 OA
ATOM     25  H   UNL     1      -0.759   0.697   4.649  0.00  0.00    +0.149 HD
BRANCH  22  26
ATOM     26  C   UNL     1       0.815  -0.206   3.546  0.00  0.00    +0.085 C 
BRANCH  26  27
ATOM     27  C   UNL     1      -0.116  -0.109   2.336  0.00  0.00    -0.059 C 
BRANCH  27  34
ATOM     28  C   UNL     1      -0.595   1.030  -0.186  0.00  0.00    -0.013 C 
ATOM     29  C   UNL     1      -0.286  -0.460  -0.029  0.00  0.00    -0.072 C 
ATOM     30  C   UNL     1       0.447  -0.961  -1.275  0.00  0.00    -0.016 C 
ATOM     31  C   UNL     1       0.754  -2.453  -1.115  0.00  0.00    -0.003 C 
ATOM     32  C   UNL     1       1.573  -2.661   0.163  0.00  0.00    -0.019 C 
ATOM     33  C   UNL     1       0.798  -2.096   1.356  0.00  0.00    -0.078 C 
ATOM     34  N   UNL     1       0.559  -0.662   1.154  0.00  0.00    +0.382 N 
ATOM     35  H   UNL     1       1.441  -0.190   1.021  0.00  0.00    -0.081 HD
ENDBRANCH  27  34
ENDBRANCH  26  27
ENDBRANCH  22  26
ENDBRANCH   1  23
TORSDOF 8
