REMARK  Name = ZINC63547121
REMARK  6 active torsions:
REMARK  status: ('A' for Active; 'I' for Inactive)
REMARK    1  A    between atoms: C_1  and  C_2
REMARK    2  A    between atoms: C_8  and  C_11
REMARK    3  A    between atoms: C_11  and  C_12
REMARK    4  A    between atoms: C_12  and  N_13
REMARK    5  A    between atoms: C_14  and  C_16
REMARK    6  A    between atoms: C_23  and  C_26
REMARK                            x       y       z     vdW  Elec       q    Type
REMARK                         _______ _______ _______ _____ _____    ______ ____
ROOT
ATOM      1  C   UNL     1      -2.534  -2.338   7.783  0.00  0.00    +0.185 C 
ATOM      2  C   UNL     1      -2.031  -0.938   8.078  0.00  0.00    +0.043 C 
ATOM      3  C   UNL     1      -2.927  -0.376   8.869  0.00  0.00    +0.107 C 
ATOM      4  N   UNL     1      -2.914   0.917   9.412  0.00  0.00    -0.302 N 
ATOM      5  C   UNL     1      -3.730   1.107  10.543  0.00  0.00    +0.033 C 
ATOM      6  C   UNL     1      -4.835   0.168  10.802  0.00  0.00    +0.052 C 
ATOM      7  C   UNL     1      -4.931  -0.985  10.118  0.00  0.00    +0.133 C 
ATOM      8  N   UNL     1      -3.980  -1.254   9.145  0.00  0.00    -0.217 N 
ATOM      9  N   UNL     1      -3.917  -2.336   8.314  0.00  0.00    -0.219 NA
ATOM     10  C   UNL     1      -3.504   2.131  11.376  0.00  0.00    -0.048 C 
ATOM     11  C   UNL     1      -2.700   3.351  11.746  0.00  0.00    +0.037 C 
ATOM     12  C   UNL     1      -3.875   2.902  12.617  0.00  0.00    +0.037 C 
ATOM     13  H   UNL     1      -4.591  -2.257   7.567  0.00  0.00    +0.146 HD
ATOM     14  H   UNL     1      -2.380   1.632   9.033  0.00  0.00    +0.153 HD
ENDROOT
BRANCH   1  16
ATOM     15  N   UNL     1      -1.377  -2.600   5.613  0.00  0.00    -0.313 N 
ATOM     16  C   UNL     1      -2.537  -2.599   6.299  0.00  0.00    +0.236 C 
ATOM     17  O   UNL     1      -3.583  -2.808   5.722  0.00  0.00    -0.274 OA
ATOM     18  H   UNL     1      -0.540  -2.433   6.075  0.00  0.00    +0.149 HD
BRANCH  15  19
ATOM     19  C   UNL     1      -1.379  -2.854   4.170  0.00  0.00    +0.108 C 
BRANCH  19  20
ATOM     20  C   UNL     1       0.055  -2.799   3.641  0.00  0.00    +0.052 C 
BRANCH  20  28
ATOM     21  C   UNL     1      -0.018   1.503   0.010  0.00  0.00    +0.044 C 
ATOM     22  C   UNL     1       0.002  -0.004   0.002  0.00  0.00    -0.050 A 
ATOM     23  C   UNL     1       0.005  -0.680  -1.226  0.00  0.00    +0.005 A 
ATOM     24  C   UNL     1       0.023  -2.026  -1.317  0.00  0.00    +0.026 A 
ATOM     25  C   UNL     1       0.039  -2.826  -0.141  0.00  0.00    +0.043 A 
ATOM     26  N   UNL     1       0.057  -4.126   0.030  0.00  0.00    -0.380 N 
ATOM     27  C   UNL     1       0.067  -4.408   1.470  0.00  0.00    +0.144 C 
ATOM     28  C   UNL     1       0.052  -3.060   2.156  0.00  0.00    -0.040 C 
ATOM     29  C   UNL     1       0.036  -2.137   1.168  0.00  0.00    -0.001 A 
ATOM     30  C   UNL     1       0.022  -0.669   1.180  0.00  0.00    +0.013 A 
ATOM     31  H   UNL     1       0.062  -4.790  -0.677  0.00  0.00    +0.160 HD
ENDBRANCH  20  28
ENDBRANCH  19  20
ENDBRANCH  15  19
ENDBRANCH   1  16
BRANCH   7  32
ATOM     32  C   UNL     1      -6.044  -1.961  10.402  0.00  0.00    +0.432 C 
ATOM     33  F   UNL     1      -6.859  -1.455  11.419  0.00  0.00    -0.165 F 
ATOM     34  F   UNL     1      -6.806  -2.149   9.243  0.00  0.00    -0.165 F 
ATOM     35  F   UNL     1      -5.499  -3.184  10.805  0.00  0.00    -0.165 F 
ENDBRANCH   7  32
TORSDOF 5
