REMARK  Name = ZINC44318800
REMARK  11 active torsions:
REMARK  status: ('A' for Active; 'I' for Inactive)
REMARK    1  A    between atoms: C_1  and  C_2
REMARK    2  A    between atoms: C_2  and  C_3
REMARK    3  A    between atoms: C_2  and  C_4
REMARK    4  A    between atoms: C_2  and  O_5
REMARK    5  A    between atoms: O_5  and  C_6
REMARK    6  A    between atoms: N_8  and  CA_9
REMARK    7  A    between atoms: CA_9  and  C_11
REMARK    8  A    between atoms: CA_9  and  C_27
REMARK    9  A    between atoms: C_11  and  C_12
REMARK   10  A    between atoms: C_15  and  C_17
REMARK   11  A    between atoms: C_17  and  N_18
REMARK                            x       y       z     vdW  Elec       q    Type
REMARK                         _______ _______ _______ _____ _____    ______ ____
ROOT
ATOM      1  C   UNL     1       3.569   0.946  -4.814  0.00  0.00    +0.108 A 
ATOM      2  C   UNL     1       3.926   2.226  -5.022  0.00  0.00    +0.045 A 
ATOM      3  C   UNL     1       2.869   2.835  -5.736  0.00  0.00    +0.047 A 
ATOM      4  C   UNL     1       1.929   1.891  -5.923  0.00  0.00    +0.126 A 
ATOM      5  O   UNL     1       2.361   0.747  -5.367  0.00  0.00    -0.463 OA
ENDROOT
BRANCH   1   6
ATOM      6  C   UNL     1       4.388  -0.092  -4.090  0.00  0.00    +0.108 C 
BRANCH   6   7
ATOM      7  CA  UNL     1       4.035  -0.071  -2.601  0.00  0.00    +0.196 C 
BRANCH   7  10
ATOM      8  C   UNL     1       1.952  -0.085  -1.337  0.00  0.00    +0.401 C 
ATOM      9  O   UNL     1       2.488   0.619  -0.503  0.00  0.00    -0.226 OA
ATOM     10  N   UNL     1       2.641  -0.485  -2.424  0.00  0.00    -0.267 N 
ATOM     11  H   UNL     1       2.213  -1.047  -3.089  0.00  0.00    +0.153 HD
BRANCH   8  12
ATOM     12  O   UNL     1       0.671  -0.465  -1.174  0.00  0.00    -0.445 OA
BRANCH  12  14
ATOM     13  C   UNL     1      -0.019   1.526   0.010  0.00  0.00    +0.055 C 
ATOM     14  C   UNL     1       0.002  -0.004   0.002  0.00  0.00    +0.107 C 
ATOM     15  C   UNL     1       0.742  -0.511   1.242  0.00  0.00    +0.055 C 
ATOM     16  C   UNL     1      -1.433  -0.534   0.013  0.00  0.00    +0.055 C 
ENDBRANCH  12  14
ENDBRANCH   8  12
ENDBRANCH   7  10
BRANCH   7  17
ATOM     17  C   UNL     1       4.939  -1.021  -1.858  0.00  0.00    +0.376 C 
ATOM     18  O   UNL     1       4.488  -2.053  -1.392  0.00  0.00    -0.244 OA
ATOM     19  OXT UNL     1       6.121  -0.756  -1.723  0.00  0.00    -0.244 OA
ENDBRANCH   7  17
ENDBRANCH   6   7
ENDBRANCH   1   6
BRANCH   4  20
ATOM     20  C   UNL     1       0.617   2.083  -6.638  0.00  0.00    +0.217 C 
BRANCH  20  21
ATOM     21  N   UNL     1       0.789   1.786  -8.063  0.00  0.00    -0.261 N 
ATOM     22  C   UNL     1       0.066   0.902  -8.783  0.00  0.00    +0.126 A 
ATOM     23  C   UNL     1       0.535   0.923 -10.052  0.00  0.00    +0.086 A 
ATOM     24  C   UNL     1       1.580   1.852 -10.110  0.00  0.00    +0.249 A 
ATOM     25  N   UNL     1       1.730   2.373  -8.919  0.00  0.00    -0.145 NA
ATOM     26  N   UNL     1       2.376   2.189 -11.311  0.00  0.00    +0.078 N 
ATOM     27  O   UNL     1       2.142   1.643 -12.364  0.00  0.00    -0.125 OA
ATOM     28  O   UNL     1       3.259   3.012 -11.240  0.00  0.00    -0.125 OA
ATOM     29 BR   UNL     1      -0.109  -0.118 -11.493  0.00  0.00    -0.045 Br
ENDBRANCH  20  21
ENDBRANCH   4  20
TORSDOF 8
