REMARK  Name = ZINC13132148
REMARK  6 active torsions:
REMARK  status: ('A' for Active; 'I' for Inactive)
REMARK    1  A    between atoms: C_1  and  O_2
REMARK    2  A    between atoms: O_2  and  C_3
REMARK    3  A    between atoms: C_6  and  C_9
REMARK    4  A    between atoms: C_12  and  C_21
REMARK    5  A    between atoms: C_24  and  O_27
REMARK    6  A    between atoms: O_27  and  C_28
REMARK                            x       y       z     vdW  Elec       q    Type
REMARK                         _______ _______ _______ _____ _____    ______ ____
ROOT
ATOM      1  C   UNL     1       2.505  -2.503  -4.381  0.00  0.00    +0.106 C 
ATOM      2  C   UNL     1       1.442  -2.971  -5.383  0.00  0.00    +0.058 C 
ATOM      3  C   UNL     1       0.455  -3.916  -4.686  0.00  0.00    +0.143 C 
ATOM      4  N   UNL     1       1.211  -4.931  -3.953  0.00  0.00    -0.224 N 
ATOM      5  C   UNL     1       2.514  -4.808  -3.604  0.00  0.00    +0.216 A 
ATOM      6  N   UNL     1       2.869  -5.892  -2.966  0.00  0.00    -0.180 NA
ATOM      7  C   UNL     1       1.822  -6.727  -2.887  0.00  0.00    +0.233 A 
ATOM      8  N   UNL     1       0.787  -6.173  -3.480  0.00  0.00    -0.132 NA
ATOM      9  N   UNL     1       1.830  -7.981  -2.275  0.00  0.00    -0.326 N 
ATOM     10  N   UNL     1       3.266  -3.678  -3.914  0.00  0.00    -0.307 N 
ATOM     11  H   UNL     1       2.641  -8.312  -1.859  0.00  0.00    +0.145 HD
ATOM     12  H   UNL     1       1.024  -8.520  -2.264  0.00  0.00    +0.145 HD
ATOM     13  H   UNL     1       4.232  -3.662  -3.830  0.00  0.00    +0.149 HD
ENDROOT
BRANCH   1  17
ATOM     14  C   UNL     1       0.606  -0.607  -1.056  0.00  0.00    +0.120 A 
ATOM     15  C   UNL     1       1.173   0.161  -2.062  0.00  0.00    +0.046 A 
ATOM     16  C   UNL     1       1.786  -0.455  -3.136  0.00  0.00    +0.009 A 
ATOM     17  C   UNL     1       1.835  -1.835  -3.209  0.00  0.00    -0.027 A 
ATOM     18  C   UNL     1       1.270  -2.602  -2.207  0.00  0.00    +0.009 A 
ATOM     19  C   UNL     1       0.661  -1.992  -1.128  0.00  0.00    +0.046 A 
BRANCH  14  21
ATOM     20  C   UNL     1      -0.017   1.425   0.010  0.00  0.00    +0.277 C 
ATOM     21  O   UNL     1       0.002  -0.004   0.002  0.00  0.00    -0.495 OA
ENDBRANCH  14  21
ENDBRANCH   1  17
BRANCH   3  22
ATOM     22  C   UNL     1      -0.420  -4.581  -5.717  0.00  0.00    -0.023 A 
ATOM     23  C   UNL     1       0.148  -5.368  -6.701  0.00  0.00    +0.009 A 
ATOM     24  C   UNL     1      -0.652  -5.978  -7.648  0.00  0.00    +0.046 A 
ATOM     25  C   UNL     1      -2.027  -5.801  -7.609  0.00  0.00    +0.120 A 
ATOM     26  C   UNL     1      -2.596  -5.012  -6.620  0.00  0.00    +0.046 A 
ATOM     27  C   UNL     1      -1.792  -4.408  -5.673  0.00  0.00    +0.009 A 
BRANCH  25  28
ATOM     28  O   UNL     1      -2.817  -6.400  -8.540  0.00  0.00    -0.495 OA
ATOM     29  C   UNL     1      -4.224  -6.174  -8.439  0.00  0.00    +0.277 C 
ENDBRANCH  25  28
ENDBRANCH   3  22
TORSDOF 4
