REMARK  Name = ZINC04222091
REMARK  9 active torsions:
REMARK  status: ('A' for Active; 'I' for Inactive)
REMARK    1  A    between atoms: C_1  and  C_2
REMARK    2  A    between atoms: C_10  and  C_12
REMARK    3  A    between atoms: C_12  and  S_13
REMARK    4  A    between atoms: S_13  and  C_16
REMARK    5  A    between atoms: C_23  and  C_44
REMARK    6  A    between atoms: C_26  and  O_43
REMARK    7  A    between atoms: C_28  and  C_32
REMARK    8  A    between atoms: C_32  and  C_34
REMARK    9  A    between atoms: C_32  and  C_35
REMARK                            x       y       z     vdW  Elec       q    Type
REMARK                         _______ _______ _______ _____ _____    ______ ____
ROOT
ATOM      1  C   UNL     1       7.683   7.689  -4.821  0.00  0.00    +0.014 C 
ATOM      2  C   UNL     1       8.635   7.487  -3.641  0.00  0.00    +0.042 C 
ATOM      3  C   UNL     1       7.946   7.917  -2.355  0.00  0.00    +0.057 A 
ATOM      4  C   UNL     1       8.633   8.617  -1.415  0.00  0.00    +0.015 A 
ATOM      5  S   UNL     1       7.417   8.863  -0.148  0.00  0.00    -0.057 S 
ATOM      6  C   UNL     1       6.114   8.029  -0.940  0.00  0.00    +0.165 A 
ATOM      7  N   UNL     1       6.675   7.646  -2.067  0.00  0.00    -0.229 NA
ATOM      8  N   UNL     1       4.811   7.824  -0.498  0.00  0.00    -0.263 N 
ATOM      9  C   UNL     1       4.424   8.300   0.702  0.00  0.00    +0.240 C 
ATOM     10  O   UNL     1       5.212   8.907   1.397  0.00  0.00    -0.274 OA
ATOM     11  C   UNL     1      10.052   9.058  -1.467  0.00  0.00    +0.051 C 
ATOM     12  C   UNL     1      10.773   8.299  -2.598  0.00  0.00    -0.022 C 
ATOM     13  C   UNL     1       9.899   8.330  -3.854  0.00  0.00    +0.033 C 
ATOM     14  C   UNL     1      10.659   7.726  -5.039  0.00  0.00    +0.123 C 
ATOM     15  C   UNL     1      11.961   8.487  -5.280  0.00  0.00    +0.029 C 
ATOM     16  C   UNL     1      12.836   8.377  -4.028  0.00  0.00    +0.007 C 
ATOM     17  C   UNL     1      12.098   9.022  -2.856  0.00  0.00    +0.008 C 
ATOM     18  C   UNL     1      11.028   6.850  -2.175  0.00  0.00    +0.012 C 
ATOM     19  H   UNL     1       4.182   7.338  -1.053  0.00  0.00    +0.157 HD
ENDROOT
BRANCH  15  20
ATOM     20  C   UNL     1      11.650   9.959  -5.561  0.00  0.00    +0.078 C 
ATOM     21  C   UNL     1      10.882  10.075  -6.880  0.00  0.00    +0.017 C 
BRANCH  20  22
ATOM     22  C   UNL     1      12.938  10.735  -5.660  0.00  0.00    +0.219 C 
ATOM     23  O   UNL     1      13.967  10.166  -5.959  0.00  0.00    -0.275 OA
ATOM     24  N   UNL     1      12.947  12.060  -5.415  0.00  0.00    -0.300 N 
ATOM     25  C   UNL     1      11.684  12.759  -5.172  0.00  0.00    +0.118 C 
ATOM     26  C   UNL     1      11.660  13.272  -3.723  0.00  0.00    +0.088 C 
ATOM     27  S   UNL     1      13.104  14.347  -3.464  0.00  0.00    -0.158 S 
ATOM     28  C   UNL     1      14.497  13.302  -3.985  0.00  0.00    +0.088 C 
ATOM     29  C   UNL     1      14.219  12.784  -5.401  0.00  0.00    +0.118 C 
ENDBRANCH  20  22
ENDBRANCH  15  20
BRANCH  14  30
ATOM     30  O   UNL     1       9.844   7.800  -6.211  0.00  0.00    -0.391 OA
ATOM     31  H   UNL     1      10.261   7.436  -7.003  0.00  0.00    +0.210 HD
ENDBRANCH  14  30
BRANCH   9  32
ATOM     32  C   UNL     1       3.013   8.077   1.181  0.00  0.00    +0.267 C 
BRANCH  32  33
ATOM     33  S   UNL     1       2.804   8.831   2.818  0.00  0.00    +0.005 S 
ATOM     34  O   UNL     1       2.881  10.246   2.719  0.00  0.00    -0.169 OA
ATOM     35  O   UNL     1       3.576   8.129   3.782  0.00  0.00    -0.169 OA
BRANCH  33  36
ATOM     36  C   UNL     1       1.129   8.502   3.257  0.00  0.00    +0.089 A 
ATOM     37  C   UNL     1       0.136   9.401   2.915  0.00  0.00    +0.027 A 
ATOM     38  C   UNL     1      -1.178   9.143   3.259  0.00  0.00    +0.002 A 
ATOM     39  C   UNL     1      -1.498   7.987   3.946  0.00  0.00    +0.000 A 
ATOM     40  C   UNL     1      -0.505   7.089   4.289  0.00  0.00    +0.002 A 
ATOM     41  C   UNL     1       0.809   7.347   3.945  0.00  0.00    +0.027 A 
ENDBRANCH  33  36
ENDBRANCH  32  33
ENDBRANCH   9  32
TORSDOF 6
