REMARK  Name = ZINC12104899
REMARK  12 active torsions:
REMARK  status: ('A' for Active; 'I' for Inactive)
REMARK    1  A    between atoms: C_1  and  C_2
REMARK    2  A    between atoms: C_2  and  N_3
REMARK    3  A    between atoms: C_6  and  C_19
REMARK    4  A    between atoms: C_7  and  N_18
REMARK    5  A    between atoms: N_8  and  C_11
REMARK    6  A    between atoms: C_11  and  C_12
REMARK    7  A    between atoms: C_19  and  C_21
REMARK    8  A    between atoms: C_21  and  S_22
REMARK    9  A    between atoms: S_22  and  C_23
REMARK   10  A    between atoms: C_27  and  C_29
REMARK   11  A    between atoms: C_29  and  C_30
REMARK   12  A    between atoms: C_30  and  C_31
REMARK                            x       y       z     vdW  Elec       q    Type
REMARK                         _______ _______ _______ _____ _____    ______ ____
ROOT
ATOM      1  N   UNL     1       0.837  -0.455  -1.136  0.00  0.00    -0.260 N 
ATOM      2  C   UNL     1      -0.002  -0.654  -2.173  0.00  0.00    +0.269 A 
ATOM      3  O   UNL     1      -1.192  -0.426  -2.061  0.00  0.00    -0.267 OA
ATOM      4  C   UNL     1       0.550  -1.149  -3.440  0.00  0.00    +0.121 A 
ATOM      5  C   UNL     1       1.933  -1.392  -3.504  0.00  0.00    +0.116 A 
ATOM      6  N   UNL     1       2.697  -1.159  -2.395  0.00  0.00    -0.277 N 
ATOM      7  C   UNL     1       2.152  -0.700  -1.258  0.00  0.00    +0.334 A 
ATOM      8  O   UNL     1       2.875  -0.503  -0.300  0.00  0.00    -0.246 OA
ENDROOT
BRANCH   5   9
ATOM      9  N   UNL     1       2.503  -1.852  -4.651  0.00  0.00    -0.344 N 
ATOM     10  H   UNL     1       1.969  -1.938  -5.456  0.00  0.00    +0.144 HD
ATOM     11  H   UNL     1       3.442  -2.095  -4.662  0.00  0.00    +0.144 HD
ENDBRANCH   5   9
BRANCH   1  13
ATOM     12  C   UNL     1       0.337   1.569   0.143  0.00  0.00    +0.027 C 
ATOM     13  C   UNL     1       0.309   0.039   0.138  0.00  0.00    +0.126 C 
ENDBRANCH   1  13
BRANCH   4  14
ATOM     14  C   UNL     1      -0.281  -1.375  -4.558  0.00  0.00    +0.182 C 
ATOM     15  O   UNL     1       0.209  -1.682  -5.627  0.00  0.00    -0.291 OA
BRANCH  14  16
ATOM     16  C   UNL     1      -1.776  -1.236  -4.426  0.00  0.00    +0.157 C 
BRANCH  16  17
ATOM     17  S   UNL     1      -2.559  -1.587  -6.024  0.00  0.00    -0.079 S 
BRANCH  17  18
ATOM     18  C   UNL     1      -4.281  -1.385  -5.708  0.00  0.00    +0.185 A 
ATOM     19  N   UNL     1      -5.278  -1.549  -6.604  0.00  0.00    -0.254 N 
ATOM     20  H   UNL     1      -5.187  -1.798  -7.537  0.00  0.00    +0.191 HD
ATOM     21  N   UNL     1      -6.474  -1.286  -5.916  0.00  0.00    -0.157 NA
ATOM     22  C   UNL     1      -6.149  -0.988  -4.686  0.00  0.00    +0.152 A 
ATOM     23  N   UNL     1      -4.824  -1.053  -4.556  0.00  0.00    -0.206 NA
BRANCH  22  24
ATOM     24  C   UNL     1      -7.119  -0.635  -3.588  0.00  0.00    +0.078 C 
BRANCH  24  25
ATOM     25  C   UNL     1      -7.544  -1.908  -2.854  0.00  0.00    +0.011 C 
BRANCH  25  26
ATOM     26  C   UNL     1      -8.528  -1.548  -1.739  0.00  0.00    -0.011 C 
ATOM     27  C   UNL     1      -7.808  -0.745  -0.636  0.00  0.00    +0.003 C 
ATOM     28  C   UNL     1      -8.450  -1.246   0.681  0.00  0.00    +0.000 C 
ATOM     29  C   UNL     1      -8.644  -2.759   0.412  0.00  0.00    +0.000 C 
ATOM     30  C   UNL     1      -9.060  -2.829  -1.072  0.00  0.00    +0.003 C 
ENDBRANCH  25  26
ENDBRANCH  24  25
ENDBRANCH  22  24
ENDBRANCH  17  18
ENDBRANCH  16  17
ENDBRANCH  14  16
ENDBRANCH   4  14
BRANCH   6  31
ATOM     31  C   UNL     1       4.139  -1.408  -2.451  0.00  0.00    +0.163 C 
BRANCH  31  32
ATOM     32  C   UNL     1       4.848  -0.157  -2.900  0.00  0.00    -0.028 A 
ATOM     33  C   UNL     1       5.064   0.071  -4.246  0.00  0.00    +0.005 A 
ATOM     34  C   UNL     1       5.715   1.219  -4.658  0.00  0.00    +0.000 A 
ATOM     35  C   UNL     1       6.150   2.140  -3.723  0.00  0.00    +0.000 A 
ATOM     36  C   UNL     1       5.933   1.913  -2.377  0.00  0.00    +0.000 A 
ATOM     37  C   UNL     1       5.279   0.767  -1.966  0.00  0.00    +0.005 A 
ENDBRANCH  31  32
ENDBRANCH   6  31
TORSDOF 11
