REMARK  Name = ZINC11029106
REMARK  9 active torsions:
REMARK  status: ('A' for Active; 'I' for Inactive)
REMARK    1  A    between atoms: C_1  and  C_2
REMARK    2  A    between atoms: C_2  and  C_4
REMARK    3  A    between atoms: C_2  and  O_20
REMARK    4  A    between atoms: N_6  and  C_7
REMARK    5  A    between atoms: C_7  and  C_8
REMARK    6  A    between atoms: N_10  and  C_11
REMARK    7  A    between atoms: O_20  and  C_21
REMARK    8  A    between atoms: C_21  and  C_23
REMARK    9  A    between atoms: C_26  and  N_30
REMARK                            x       y       z     vdW  Elec       q    Type
REMARK                         _______ _______ _______ _____ _____    ______ ____
ROOT
ATOM      1  C   UNL     1      -3.707   1.407  -0.010  0.00  0.00    +0.254 C 
ATOM      2  O   UNL     1      -3.945   2.596  -0.007  0.00  0.00    -0.272 OA
ATOM      3  N   UNL     1      -2.430   0.976  -0.007  0.00  0.00    -0.304 N 
ATOM      4  H   UNL     1      -2.239   0.025  -0.009  0.00  0.00    +0.149 HD
ENDROOT
BRANCH   1   6
ATOM      5  C   UNL     1      -4.814  -0.379  -1.326  0.00  0.00    +0.062 C 
ATOM      6  C   UNL     1      -4.838   0.412  -0.016  0.00  0.00    +0.259 C 
BRANCH   6   7
ATOM      7  O   UNL     1      -6.103   1.116   0.101  0.00  0.00    -0.449 OA
BRANCH   7   8
ATOM      8  C   UNL     1      -7.110   0.465   0.714  0.00  0.00    +0.341 C 
ATOM      9  O   UNL     1      -6.938  -0.660   1.139  0.00  0.00    -0.245 OA
BRANCH   8  10
ATOM     10  C   UNL     1      -8.425   1.119   0.869  0.00  0.00    +0.077 A 
ATOM     11  C   UNL     1      -8.627   2.413   0.382  0.00  0.00    +0.018 A 
ATOM     12  C   UNL     1      -9.858   3.017   0.530  0.00  0.00    +0.033 A 
ATOM     13  C   UNL     1     -10.892   2.347   1.161  0.00  0.00    +0.128 A 
ATOM     14  C   UNL     1     -10.700   1.066   1.645  0.00  0.00    +0.053 A 
ATOM     15  C   UNL     1      -9.475   0.445   1.499  0.00  0.00    +0.057 A 
ATOM     16 CL   UNL     1      -9.237  -1.165   2.102  0.00  0.00    -0.083 Cl
BRANCH  13  17
ATOM     17  N   UNL     1     -12.209   3.003   1.316  0.00  0.00    +0.056 N 
ATOM     18  O   UNL     1     -12.381   4.131   0.889  0.00  0.00    -0.126 OA
ATOM     19  O   UNL     1     -13.121   2.416   1.870  0.00  0.00    -0.126 OA
ENDBRANCH  13  17
ENDBRANCH   8  10
ENDBRANCH   7   8
ENDBRANCH   6   7
ENDBRANCH   1   6
BRANCH   3  20
ATOM     20  C   UNL     1      -1.330   1.943  -0.001  0.00  0.00    +0.200 C 
BRANCH  20  21
ATOM     21  C   UNL     1      -0.014   1.208   0.001  0.00  0.00    +0.234 C 
ATOM     22  O   UNL     1       0.003  -0.005  -0.002  0.00  0.00    -0.274 OA
ATOM     23  N   UNL     1       1.143   1.898   0.001  0.00  0.00    -0.282 N 
ATOM     24  H   UNL     1       1.131   2.866  -0.061  0.00  0.00    +0.155 HD
BRANCH  23  25
ATOM     25  C   UNL     1       2.365   1.218   0.092  0.00  0.00    +0.072 A 
ATOM     26  C   UNL     1       2.514  -0.025  -0.508  0.00  0.00    +0.029 A 
ATOM     27  C   UNL     1       3.720  -0.694  -0.422  0.00  0.00    +0.043 A 
ATOM     28  C   UNL     1       4.779  -0.131   0.270  0.00  0.00    +0.161 A 
ATOM     29  C   UNL     1       4.633   1.108   0.875  0.00  0.00    +0.195 A 
ATOM     30  C   UNL     1       3.427   1.784   0.787  0.00  0.00    +0.182 A 
ATOM     31  F   UNL     1       3.284   2.991   1.375  0.00  0.00    -0.200 F 
ATOM     32  F   UNL     1       5.667   1.656   1.550  0.00  0.00    -0.199 F 
ATOM     33  F   UNL     1       5.955  -0.789   0.356  0.00  0.00    -0.202 F 
ENDBRANCH  23  25
ENDBRANCH  20  21
ENDBRANCH   3  20
TORSDOF 8
