REMARK  Name = ZINC17170423
REMARK  9 active torsions:
REMARK  status: ('A' for Active; 'I' for Inactive)
REMARK    1  A    between atoms: C_1  and  C_2
REMARK    2  A    between atoms: C_2  and  C_3
REMARK    3  A    between atoms: C_2  and  C_4
REMARK    4  A    between atoms: C_4  and  C_6
REMARK    5  A    between atoms: C_4  and  N_18
REMARK    6  A    between atoms: N_8  and  N_9
REMARK    7  A    between atoms: C_10  and  C_12
REMARK    8  A    between atoms: N_18  and  S_19
REMARK    9  A    between atoms: S_19  and  C_22
REMARK                            x       y       z     vdW  Elec       q    Type
REMARK                         _______ _______ _______ _____ _____    ______ ____
ROOT
ATOM      1  C   UNL     1      -1.612  -0.632  -0.086  0.00  0.00    +0.166 C 
ENDROOT
BRANCH   1   2
ATOM      2  C   UNL     1      -2.724  -0.232  -1.020  0.00  0.00    +0.248 C 
ATOM      3  O   UNL     1      -3.244  -1.062  -1.735  0.00  0.00    -0.273 OA
ATOM      4  N   UNL     1      -3.142   1.049  -1.061  0.00  0.00    -0.233 N 
ATOM      5  H   UNL     1      -2.677   1.728  -0.547  0.00  0.00    +0.173 HD
BRANCH   4   6
ATOM      6  N   UNL     1      -4.249   1.400  -1.844  0.00  0.00    -0.230 N 
ATOM      7  C   UNL     1      -4.667   2.681  -1.885  0.00  0.00    +0.260 C 
ATOM      8  O   UNL     1      -4.084   3.531  -1.242  0.00  0.00    -0.269 OA
ATOM      9  H   UNL     1      -4.715   0.721  -2.357  0.00  0.00    +0.173 HD
BRANCH   7  10
ATOM     10  C   UNL     1      -5.835   3.051  -2.712  0.00  0.00    +0.038 A 
ATOM     11  C   UNL     1      -6.511   2.076  -3.447  0.00  0.00    +0.013 A 
ATOM     12  C   UNL     1      -7.601   2.429  -4.216  0.00  0.00    +0.001 A 
ATOM     13  C   UNL     1      -8.024   3.745  -4.260  0.00  0.00    +0.000 A 
ATOM     14  C   UNL     1      -7.358   4.717  -3.534  0.00  0.00    +0.001 A 
ATOM     15  C   UNL     1      -6.271   4.377  -2.756  0.00  0.00    +0.013 A 
ENDBRANCH   7  10
ENDBRANCH   4   6
ENDBRANCH   1   2
BRANCH   1  17
ATOM     16  C   UNL     1       0.831  -0.403   0.385  0.00  0.00    +0.009 C 
ATOM     17  C   UNL     1      -0.280  -0.107  -0.625  0.00  0.00    +0.010 C 
ATOM     18  C   UNL     1       0.041  -0.795  -1.953  0.00  0.00    +0.009 C 
ENDBRANCH   1  17
BRANCH   1  19
ATOM     19  N   UNL     1      -1.557  -2.093   0.011  0.00  0.00    -0.178 NA
ATOM     20  H   UNL     1      -1.349  -2.624  -0.774  0.00  0.00    +0.149 HD
BRANCH  19  21
ATOM     21  S   UNL     1      -1.850  -2.838   1.461  0.00  0.00    +0.059 S 
ATOM     22  O   UNL     1      -1.843  -4.236   1.207  0.00  0.00    -0.153 OA
ATOM     23  O   UNL     1      -0.986  -2.231   2.411  0.00  0.00    -0.153 OA
BRANCH  21  24
ATOM     24  C   UNL     1      -3.494  -2.421   1.938  0.00  0.00    +0.105 A 
ATOM     25  C   UNL     1      -3.728  -1.291   2.699  0.00  0.00    +0.029 A 
ATOM     26  C   UNL     1      -5.018  -0.964   3.072  0.00  0.00    +0.017 A 
ATOM     27  C   UNL     1      -6.075  -1.767   2.685  0.00  0.00    +0.018 A 
ATOM     28  C   UNL     1      -5.841  -2.898   1.924  0.00  0.00    +0.017 A 
ATOM     29  C   UNL     1      -4.551  -3.222   1.546  0.00  0.00    +0.029 A 
ATOM     30 BR   UNL     1      -7.840  -1.320   3.197  0.00  0.00    -0.050 Br
ENDBRANCH  21  24
ENDBRANCH  19  21
ENDBRANCH   1  19
TORSDOF 7
