REMARK  Name = ZINC29278632
REMARK  14 active torsions:
REMARK  status: ('A' for Active; 'I' for Inactive)
REMARK    1  A    between atoms: C_1  and  C_2
REMARK    2  A    between atoms: C_2  and  C_3
REMARK    3  A    between atoms: C_3  and  C_4
REMARK    4  A    between atoms: C_4  and  N_5
REMARK    5  A    between atoms: C_6  and  N_33
REMARK    6  A    between atoms: C_7  and  N_14
REMARK    7  A    between atoms: N_14  and  C_15
REMARK    8  A    between atoms: C_15  and  C_16
REMARK    9  A    between atoms: C_16  and  C_17
REMARK   10  A    between atoms: C_17  and  C_18
REMARK   11  A    between atoms: C_17  and  C_19
REMARK   12  A    between atoms: C_20  and  C_22
REMARK   13  A    between atoms: C_23  and  C_32
REMARK   14  A    between atoms: C_25  and  C_27
REMARK                            x       y       z     vdW  Elec       q    Type
REMARK                         _______ _______ _______ _____ _____    ______ ____
ROOT
ATOM      1  N   UNL     1       2.483   4.279  -0.070  0.00  0.00    -0.259 N 
ATOM      2  C   UNL     1       3.514   3.413  -0.117  0.00  0.00    +0.270 C 
ATOM      3  O   UNL     1       3.308   2.216  -0.043  0.00  0.00    -0.268 OA
ENDROOT
BRANCH   1   6
ATOM      4  N   UNL     1      -1.001   3.541  -0.976  0.00  0.00    -0.280 N 
ATOM      5  C   UNL     1       0.284   4.026  -1.058  0.00  0.00    +0.127 A 
ATOM      6  C   UNL     1       1.158   3.796  -0.015  0.00  0.00    +0.140 A 
ATOM      7  C   UNL     1       0.706   3.070   1.103  0.00  0.00    +0.277 A 
ATOM      8  O   UNL     1       1.458   2.853   2.038  0.00  0.00    -0.266 OA
ATOM      9  N   UNL     1      -0.563   2.618   1.133  0.00  0.00    -0.273 N 
ATOM     10  H   UNL     1      -0.922   2.046   2.002  0.00  0.00    +0.173 HD
ATOM     11  C   UNL     1      -1.402   2.856   0.110  0.00  0.00    +0.331 A 
ATOM     12  O   UNL     1      -2.544   2.441   0.166  0.00  0.00    -0.246 OA
BRANCH   5  13
ATOM     13  N   UNL     1       0.692   4.730  -2.166  0.00  0.00    -0.343 N 
ATOM     14  H   UNL     1       1.721   5.114  -2.224  0.00  0.00    +0.144 HD
ATOM     15  H   UNL     1      -0.010   4.909  -2.993  0.00  0.00    +0.144 HD
ENDBRANCH   5  13
BRANCH   4  16
ATOM     16  C   UNL     1      -1.940   3.778  -2.076  0.00  0.00    +0.128 C 
BRANCH  16  17
ATOM     17  C   UNL     1      -1.843   2.632  -3.084  0.00  0.00    +0.021 C 
BRANCH  17  19
ATOM     18  C   UNL     1      -2.727   1.732  -5.241  0.00  0.00    +0.004 C 
ATOM     19  C   UNL     1      -2.824   2.879  -4.232  0.00  0.00    -0.002 C 
ENDBRANCH  17  19
ENDBRANCH  16  17
ENDBRANCH   4  16
ENDBRANCH   1   6
BRANCH   2  20
ATOM     20  C   UNL     1       4.892   3.916  -0.258  0.00  0.00    +0.137 A 
ATOM     21  C   UNL     1       5.936   3.042  -0.429  0.00  0.00    +0.019 A 
ATOM     22  S   UNL     1       7.286   4.130  -0.539  0.00  0.00    -0.069 S 
ATOM     23  C   UNL     1       6.380   5.656  -0.342  0.00  0.00    +0.144 A 
ATOM     24  N   UNL     1       5.139   5.217  -0.214  0.00  0.00    -0.231 NA
ATOM     25  C   UNL     1       5.917   1.537  -0.505  0.00  0.00    +0.054 C 
BRANCH  23  26
ATOM     26  C   UNL     1       6.883   7.039  -0.326  0.00  0.00    +0.160 A 
ATOM     27  C   UNL     1       8.185   7.419  -0.458  0.00  0.00    +0.052 A 
ATOM     28  C   UNL     1       8.206   8.824  -0.386  0.00  0.00    +0.042 A 
ATOM     29  C   UNL     1       6.933   9.231  -0.207  0.00  0.00    +0.196 A 
ATOM     30  O   UNL     1       6.137   8.150  -0.171  0.00  0.00    -0.461 OA
ENDBRANCH  23  26
ENDBRANCH   2  20
BRANCH   1  31
ATOM     31  C   UNL     1       2.736   5.722  -0.075  0.00  0.00    +0.114 C 
BRANCH  31  32
ATOM     32  C   UNL     1       3.057   6.188   1.347  0.00  0.00    +0.022 C 
BRANCH  32  33
ATOM     33  C   UNL     1       3.321   7.695   1.341  0.00  0.00    -0.016 C 
ATOM     34  C   UNL     1       2.041   8.437   0.951  0.00  0.00    +0.007 C 
ATOM     35  C   UNL     1       3.763   8.140   2.737  0.00  0.00    +0.007 C 
ENDBRANCH  32  33
ENDBRANCH  31  32
ENDBRANCH   1  31
TORSDOF 10
