REMARK  Name = ZINC63557636
REMARK  10 active torsions:
REMARK  status: ('A' for Active; 'I' for Inactive)
REMARK    1  A    between atoms: C_1  and  C_2
REMARK    2  A    between atoms: C_2  and  O_3
REMARK    3  A    between atoms: O_3  and  C_4
REMARK    4  A    between atoms: C_4  and  C_5
REMARK    5  A    between atoms: C_5  and  C_6
REMARK    6  A    between atoms: C_10  and  N_13
REMARK    7  A    between atoms: C_14  and  C_16
REMARK    8  A    between atoms: N_21  and  C_23
REMARK    9  A    between atoms: C_23  and  C_24
REMARK   10  A    between atoms: C_24  and  C_25
REMARK                            x       y       z     vdW  Elec       q    Type
REMARK                         _______ _______ _______ _____ _____    ______ ____
ROOT
ATOM      1  C   UNL     1       7.236  -5.493  -1.547  0.00  0.00    +0.101 C 
ATOM      2  C   UNL     1       7.898  -6.221  -2.740  0.00  0.00    +0.110 C 
ATOM      3  C   UNL     1       9.268  -6.605  -2.226  0.00  0.00    +0.216 C 
ATOM      4  O   UNL     1      10.202  -6.941  -2.923  0.00  0.00    -0.276 OA
ATOM      5  N   UNL     1       9.299  -6.520  -0.885  0.00  0.00    -0.300 N 
ATOM      6  C   UNL     1       8.002  -6.093  -0.347  0.00  0.00    +0.121 C 
ENDROOT
BRANCH   1   8
ATOM      7  N   UNL     1       4.936  -5.434  -2.456  0.00  0.00    -0.290 N 
ATOM      8  C   UNL     1       5.767  -5.817  -1.466  0.00  0.00    +0.220 C 
ATOM      9  O   UNL     1       5.331  -6.423  -0.509  0.00  0.00    -0.275 OA
ATOM     10  H   UNL     1       5.285  -4.950  -3.221  0.00  0.00    +0.151 HD
BRANCH   7  14
ATOM     11  C   UNL     1       1.558  -3.789  -2.683  0.00  0.00    +0.132 C 
ATOM     12  N   UNL     1       2.356  -4.207  -3.878  0.00  0.00    -0.241 NA
ATOM     13  N   UNL     1       2.846  -5.569  -3.699  0.00  0.00    -0.227 NA
ATOM     14  C   UNL     1       3.508  -5.750  -2.377  0.00  0.00    +0.216 C 
ATOM     15  S   UNL     1       2.610  -4.510  -1.349  0.00  0.00    -0.102 S 
ATOM     16  H   UNL     1       1.811  -4.127  -4.723  0.00  0.00    +0.142 HD
ATOM     17  H   UNL     1       2.103  -6.240  -3.826  0.00  0.00    +0.143 HD
BRANCH  11  18
ATOM     18  C   UNL     1       1.478  -2.265  -2.569  0.00  0.00    +0.059 C 
BRANCH  18  19
ATOM     19  C   UNL     1       0.746  -1.888  -1.280  0.00  0.00    +0.162 C 
BRANCH  19  20
ATOM     20  O   UNL     1       0.671  -0.465  -1.174  0.00  0.00    -0.380 OA
BRANCH  20  22
ATOM     21  C   UNL     1      -0.019   1.526   0.010  0.00  0.00    +0.034 C 
ATOM     22  C   UNL     1       0.002  -0.004   0.002  0.00  0.00    +0.156 C 
ENDBRANCH  20  22
ENDBRANCH  19  20
ENDBRANCH  18  19
ENDBRANCH  11  18
ENDBRANCH   7  14
ENDBRANCH   1   8
BRANCH   5  23
ATOM     23  C   UNL     1      10.477  -6.815  -0.065  0.00  0.00    +0.112 C 
BRANCH  23  24
ATOM     24  C   UNL     1      11.300  -5.539   0.123  0.00  0.00    +0.052 C 
BRANCH  24  25
ATOM     25  C   UNL     1      12.511  -5.842   0.967  0.00  0.00    -0.040 C 
ATOM     26  C   UNL     1      13.755  -6.141   0.526  0.00  0.00    +0.000 A 
ATOM     27  C   UNL     1      14.329  -6.268  -0.819  0.00  0.00    +0.030 A 
ATOM     28  C   UNL     1      15.638  -6.587  -0.946  0.00  0.00    +0.042 A 
ATOM     29  C   UNL     1      16.457  -6.798   0.172  0.00  0.00    +0.022 A 
ATOM     30  C   UNL     1      16.002  -6.698   1.439  0.00  0.00    +0.027 A 
ATOM     31  C   UNL     1      14.641  -6.368   1.690  0.00  0.00    +0.043 A 
ATOM     32  N   UNL     1      13.972  -6.216   2.806  0.00  0.00    -0.380 N 
ATOM     33  C   UNL     1      12.585  -5.868   2.477  0.00  0.00    +0.144 C 
ATOM     34 CL   UNL     1      16.321  -6.738  -2.535  0.00  0.00    -0.084 Cl
ATOM     35  H   UNL     1      14.333  -6.313   3.701  0.00  0.00    +0.160 HD
ENDBRANCH  24  25
ENDBRANCH  23  24
ENDBRANCH   5  23
TORSDOF 9
