REMARK  Name = ZINC14779803
REMARK  6 active torsions:
REMARK  status: ('A' for Active; 'I' for Inactive)
REMARK    1  A    between atoms: C_6  and  C_7
REMARK    2  A    between atoms: C_10  and  C_12
REMARK    3  A    between atoms: C_12  and  C_13
REMARK    4  A    between atoms: C_13  and  C_14
REMARK    5  A    between atoms: N_16  and  C_17
REMARK    6  A    between atoms: C_20  and  N_23
REMARK                            x       y       z     vdW  Elec       q    Type
REMARK                         _______ _______ _______ _____ _____    ______ ____
ROOT
ATOM      1  C   UNL     1      -4.881  -1.148   0.039  0.00  0.00    +0.103 C 
ENDROOT
BRANCH   1   5
ATOM      2  C   UNL     1      -1.264  -0.787   0.014  0.00  0.00    +0.153 A 
ATOM      3  C   UNL     1      -1.406  -2.137   0.007  0.00  0.00    +0.132 A 
ATOM      4  N   UNL     1      -2.720  -2.405   0.016  0.00  0.00    -0.333 N 
ATOM      5  C   UNL     1      -3.380  -1.281   0.027  0.00  0.00    +0.175 A 
ATOM      6  O   UNL     1      -2.509  -0.263   0.032  0.00  0.00    -0.442 OA
ATOM      7  H   UNL     1      -3.115  -3.291   0.013  0.00  0.00    +0.168 HD
BRANCH   2  13
ATOM      8  C   UNL     1      -0.002   1.361   0.024  0.00  0.00    +0.013 A 
ATOM      9  C   UNL     1       1.188   2.057   0.021  0.00  0.00    +0.021 A 
ATOM     10  C   UNL     1       2.393   1.374   0.003  0.00  0.00    +0.041 A 
ATOM     11  C   UNL     1       2.410  -0.010  -0.012  0.00  0.00    +0.021 A 
ATOM     12  C   UNL     1       1.226  -0.717  -0.009  0.00  0.00    +0.013 A 
ATOM     13  C   UNL     1       0.009  -0.035   0.010  0.00  0.00    +0.019 A 
ATOM     14 CL   UNL     1       3.887   2.258  -0.002  0.00  0.00    -0.084 Cl
ENDBRANCH   2  13
ENDBRANCH   1   5
BRANCH   1  15
ATOM     15  C   UNL     1      -5.379  -1.111   1.486  0.00  0.00    +0.105 C 
BRANCH  15  16
ATOM     16  C   UNL     1      -6.880  -0.978   1.498  0.00  0.00    +0.218 C 
ATOM     17  O   UNL     1      -7.492  -0.919   0.452  0.00  0.00    -0.275 OA
ATOM     18  N   UNL     1      -7.542  -0.926   2.670  0.00  0.00    -0.285 N 
ATOM     19  H   UNL     1      -7.061  -1.041   3.505  0.00  0.00    +0.155 HD
BRANCH  18  20
ATOM     20  C   UNL     1      -8.924  -0.705   2.684  0.00  0.00    +0.034 A 
ATOM     21  C   UNL     1      -9.499   0.045   3.701  0.00  0.00    +0.025 A 
ATOM     22  C   UNL     1     -10.863   0.261   3.712  0.00  0.00    +0.034 A 
ATOM     23  C   UNL     1     -11.656  -0.270   2.711  0.00  0.00    +0.126 A 
ATOM     24  C   UNL     1     -11.087  -1.018   1.697  0.00  0.00    +0.034 A 
ATOM     25  C   UNL     1      -9.723  -1.232   1.677  0.00  0.00    +0.025 A 
BRANCH  23  26
ATOM     26  N   UNL     1     -13.118  -0.036   2.725  0.00  0.00    +0.056 N 
ATOM     27  O   UNL     1     -13.617   0.617   3.611  0.00  0.00    -0.126 OA
ATOM     28  O   UNL     1     -13.812  -0.500   1.851  0.00  0.00    -0.126 OA
ENDBRANCH  23  26
ENDBRANCH  18  20
ENDBRANCH  15  16
ENDBRANCH   1  15
TORSDOF 6
