REMARK  Name = ZINC22285767
REMARK  11 active torsions:
REMARK  status: ('A' for Active; 'I' for Inactive)
REMARK    1  A    between atoms: C_1  and  C_2
REMARK    2  A    between atoms: C_2  and  O_3
REMARK    3  A    between atoms: O_3  and  C_4
REMARK    4  A    between atoms: C_4  and  C_6
REMARK    5  A    between atoms: C_7  and  C_20
REMARK    6  A    between atoms: C_12  and  C_14
REMARK    7  A    between atoms: C_20  and  O_21
REMARK    8  A    between atoms: O_21  and  C_22
REMARK    9  A    between atoms: C_22  and  C_24
REMARK   10  A    between atoms: C_25  and  C_31
REMARK   11  A    between atoms: N_27  and  C_30
REMARK                            x       y       z     vdW  Elec       q    Type
REMARK                         _______ _______ _______ _____ _____    ______ ____
ROOT
ATOM      1  C   UNL     1       1.363   4.221   1.117  0.00  0.00    +0.081 C 
ATOM      2  C   UNL     1       1.166   3.534  -0.029  0.00  0.00    +0.061 C 
ATOM      3  N   UNL     1       0.661   4.147  -1.140  0.00  0.00    -0.269 N 
ATOM      4  C   UNL     1       0.318   5.441  -1.183  0.00  0.00    +0.304 C 
ATOM      5  O   UNL     1      -0.129   5.897  -2.218  0.00  0.00    -0.252 OA
ATOM      6  N   UNL     1       0.457   6.256  -0.119  0.00  0.00    -0.288 N 
ATOM      7  C   UNL     1       1.000   5.692   1.129  0.00  0.00    +0.144 C 
ATOM      8  H   UNL     1       0.516   3.573  -2.067  0.00  0.00    +0.156 HD
ATOM      9  H   UNL     1       0.177   7.318  -0.166  0.00  0.00    +0.151 HD
ENDROOT
BRANCH   7  10
ATOM     10  C   UNL     1       2.236   6.473   1.493  0.00  0.00    -0.022 A 
ATOM     11  C   UNL     1       3.199   6.729   0.534  0.00  0.00    +0.006 A 
ATOM     12  C   UNL     1       4.331   7.449   0.867  0.00  0.00    +0.000 A 
ATOM     13  C   UNL     1       4.505   7.905   2.161  0.00  0.00    +0.000 A 
ATOM     14  C   UNL     1       3.544   7.645   3.120  0.00  0.00    +0.000 A 
ATOM     15  C   UNL     1       2.410   6.928   2.787  0.00  0.00    +0.006 A 
ENDBRANCH   7  10
BRANCH   1  16
ATOM     16  C   UNL     1       1.891   3.588   2.267  0.00  0.00    +0.339 C 
ATOM     17  O   UNL     1       1.149   3.253   3.171  0.00  0.00    -0.245 OA
BRANCH  16  18
ATOM     18  O   UNL     1       3.217   3.356   2.361  0.00  0.00    -0.462 OA
BRANCH  18  20
ATOM     19  C   UNL     1       5.198   2.536   3.475  0.00  0.00    +0.048 C 
ATOM     20  C   UNL     1       3.680   2.713   3.550  0.00  0.00    +0.229 C 
ENDBRANCH  18  20
ENDBRANCH  16  18
ENDBRANCH   1  16
BRANCH   2  21
ATOM     21  C   UNL     1       1.515   2.069  -0.085  0.00  0.00    +0.283 C 
BRANCH  21  22
ATOM     22  O   UNL     1       0.305   1.291  -0.283  0.00  0.00    -0.455 OA
BRANCH  22  23
ATOM     23  C   UNL     1       0.444  -0.048  -0.356  0.00  0.00    +0.344 C 
ATOM     24  O   UNL     1       1.546  -0.551  -0.257  0.00  0.00    -0.245 OA
BRANCH  23  25
ATOM     25  C   UNL     1      -0.739  -0.900  -0.555  0.00  0.00    +0.118 A 
ATOM     26  C   UNL     1      -1.282  -1.307  -1.796  0.00  0.00    +0.075 A 
ATOM     27  N   UNL     1      -2.322  -2.056  -1.556  0.00  0.00    -0.175 NA
ATOM     28  N   UNL     1      -2.501  -2.156  -0.172  0.00  0.00    -0.255 N 
ATOM     29  C   UNL     1      -1.533  -1.449   0.436  0.00  0.00    +0.141 A 
ATOM     30 CL   UNL     1      -1.319  -1.260   2.148  0.00  0.00    -0.062 Cl
ATOM     31  C   UNL     1      -3.564  -2.905   0.502  0.00  0.00    +0.174 C 
ATOM     32  C   UNL     1      -0.749  -0.942  -3.158  0.00  0.00    +0.068 C 
ENDBRANCH  23  25
ENDBRANCH  22  23
ENDBRANCH  21  22
ENDBRANCH   2  21
TORSDOF 8
