REMARK  Name = ZINC10325836
REMARK  7 active torsions:
REMARK  status: ('A' for Active; 'I' for Inactive)
REMARK    1  A    between atoms: C_1  and  C_2
REMARK    2  A    between atoms: C_2  and  C_4
REMARK    3  A    between atoms: C_2  and  O_29
REMARK    4  A    between atoms: N_6  and  N_7
REMARK    5  A    between atoms: C_8  and  C_10
REMARK    6  A    between atoms: C_22  and  C_25
REMARK    7  A    between atoms: O_29  and  C_30
REMARK                            x       y       z     vdW  Elec       q    Type
REMARK                         _______ _______ _______ _____ _____    ______ ____
ROOT
ATOM      1  C   UNL     1      -2.415   0.795   0.841  0.00  0.00    +0.079 C 
ATOM      2  C   UNL     1      -2.607  -0.250  -0.262  0.00  0.00    +0.032 C 
ATOM      3  C   UNL     1      -3.924  -0.994  -0.029  0.00  0.00    +0.107 C 
ATOM      4  N   UNL     1      -5.037  -0.037  -0.036  0.00  0.00    -0.314 N 
ATOM      5  C   UNL     1      -4.898   0.947   1.045  0.00  0.00    +0.107 C 
ATOM      6  C   UNL     1      -3.611   1.750   0.844  0.00  0.00    +0.032 C 
ATOM      7  C   UNL     1      -6.260  -0.694   0.043  0.00  0.00    +0.142 A 
ATOM      8  C   UNL     1      -6.583  -1.680  -0.911  0.00  0.00    +0.049 A 
ATOM      9  C   UNL     1      -7.775  -2.329  -0.844  0.00  0.00    +0.053 A 
ATOM     10  C   UNL     1      -8.677  -2.002   0.187  0.00  0.00    +0.178 A 
ATOM     11  N   UNL     1      -9.882  -2.434   0.520  0.00  0.00    -0.128 NA
ATOM     12  N   UNL     1     -10.286  -1.801   1.566  0.00  0.00    -0.123 NA
ATOM     13  C   UNL     1      -9.376  -0.941   1.953  0.00  0.00    +0.258 A 
ATOM     14  N   UNL     1      -8.333  -1.037   1.101  0.00  0.00    -0.187 N 
ATOM     15  N   UNL     1      -7.098  -0.393   1.007  0.00  0.00    -0.148 NA
ENDROOT
BRANCH   1  17
ATOM     16  N   UNL     1       0.036   0.934   0.534  0.00  0.00    -0.234 N 
ATOM     17  C   UNL     1      -1.150   1.573   0.583  0.00  0.00    +0.232 C 
ATOM     18  O   UNL     1      -1.199   2.773   0.420  0.00  0.00    -0.274 OA
ATOM     19  H   UNL     1       0.075  -0.027   0.664  0.00  0.00    +0.173 HD
BRANCH  16  22
ATOM     20  C   UNL     1       2.396   1.016   0.234  0.00  0.00    +0.270 C 
ATOM     21  O   UNL     1       2.445  -0.185   0.397  0.00  0.00    -0.270 OA
ATOM     22  N   UNL     1       1.211   1.656   0.289  0.00  0.00    -0.231 N 
ATOM     23  H   UNL     1       1.172   2.616   0.158  0.00  0.00    +0.173 HD
BRANCH  20  25
ATOM     24  C   UNL     1       3.921   2.752   1.133  0.00  0.00    +0.062 C 
ATOM     25  C   UNL     1       3.660   1.793  -0.030  0.00  0.00    +0.257 C 
BRANCH  25  26
ATOM     26  O   UNL     1       4.758   0.887  -0.156  0.00  0.00    -0.480 OA
BRANCH  26  27
ATOM     27  C   UNL     1       5.829   1.312  -0.878  0.00  0.00    +0.122 A 
ATOM     28  C   UNL     1       5.867   2.611  -1.363  0.00  0.00    +0.048 A 
ATOM     29  C   UNL     1       6.959   3.043  -2.092  0.00  0.00    +0.042 A 
ATOM     30  C   UNL     1       8.009   2.177  -2.347  0.00  0.00    +0.124 A 
ATOM     31  C   UNL     1       7.969   0.879  -1.869  0.00  0.00    +0.042 A 
ATOM     32  C   UNL     1       6.881   0.446  -1.135  0.00  0.00    +0.048 A 
ATOM     33  F   UNL     1       9.073   2.600  -3.064  0.00  0.00    -0.205 F 
ENDBRANCH  26  27
ENDBRANCH  25  26
ENDBRANCH  20  25
ENDBRANCH  16  22
ENDBRANCH   1  17
BRANCH  13  34
ATOM     34  C   UNL     1      -9.475  -0.013   3.136  0.00  0.00    +0.454 C 
ATOM     35  F   UNL     1     -10.522  -0.426   3.966  0.00  0.00    -0.163 F 
ATOM     36  F   UNL     1      -8.273  -0.040   3.852  0.00  0.00    -0.163 F 
ATOM     37  F   UNL     1      -9.722   1.289   2.687  0.00  0.00    -0.163 F 
ENDBRANCH  13  34
TORSDOF 6
