REMARK  Name = ZINC01771872
REMARK  4 active torsions:
REMARK  status: ('A' for Active; 'I' for Inactive)
REMARK    1  A    between atoms: C_1  and  C_2
REMARK    2  A    between atoms: C_2  and  C_3
REMARK    3  A    between atoms: C_6  and  C_9
REMARK    4  A    between atoms: C_12  and  C_19
REMARK                            x       y       z     vdW  Elec       q    Type
REMARK                         _______ _______ _______ _____ _____    ______ ____
ROOT
ATOM      1  C   UNL     1       2.707  -1.868  -4.752  0.00  0.00    +0.148 C 
ATOM      2  C   UNL     1       3.783  -0.857  -5.167  0.00  0.00    +0.088 C 
ATOM      3  C   UNL     1       4.780  -1.481  -6.102  0.00  0.00    +0.055 C 
ATOM      4  N   UNL     1       5.135  -2.735  -6.021  0.00  0.00    -0.214 NA
ATOM      5  C   UNL     1       4.524  -3.528  -5.101  0.00  0.00    +0.270 A 
ATOM      6  N   UNL     1       3.365  -3.142  -4.477  0.00  0.00    -0.202 N 
ATOM      7  N   UNL     1       3.037  -4.184  -3.617  0.00  0.00    -0.042 NA
ATOM      8  N   UNL     1       3.946  -5.092  -3.772  0.00  0.00    -0.021 NA
ATOM      9  N   UNL     1       4.819  -4.717  -4.645  0.00  0.00    -0.088 NA
ENDROOT
BRANCH   3  10
ATOM     10  C   UNL     1       5.381  -0.644  -7.153  0.00  0.00    -0.003 A 
ATOM     11  C   UNL     1       5.028   0.704  -7.265  0.00  0.00    +0.011 A 
ATOM     12  C   UNL     1       5.595   1.482  -8.252  0.00  0.00    +0.020 A 
ATOM     13  C   UNL     1       6.513   0.931  -9.131  0.00  0.00    +0.041 A 
ATOM     14  C   UNL     1       6.867  -0.404  -9.026  0.00  0.00    +0.020 A 
ATOM     15  C   UNL     1       6.313  -1.192  -8.040  0.00  0.00    +0.011 A 
ATOM     16 CL   UNL     1       7.222   1.918 -10.371  0.00  0.00    -0.084 Cl
ENDBRANCH   3  10
BRANCH   1  20
ATOM     17  C   UNL     1       0.707  -0.490  -1.238  0.00  0.00    -0.048 A 
ATOM     18  C   UNL     1      -0.011  -0.719  -2.397  0.00  0.00    +0.004 A 
ATOM     19  C   UNL     1       0.636  -1.164  -3.534  0.00  0.00    +0.006 A 
ATOM     20  C   UNL     1       2.002  -1.381  -3.513  0.00  0.00    -0.023 A 
ATOM     21  C   UNL     1       2.720  -1.152  -2.354  0.00  0.00    +0.006 A 
ATOM     22  C   UNL     1       2.073  -0.702  -1.218  0.00  0.00    +0.004 A 
BRANCH  17  24
ATOM     23  C   UNL     1      -0.019   1.526   0.010  0.00  0.00    +0.009 C 
ATOM     24  C   UNL     1       0.002  -0.004   0.002  0.00  0.00    +0.032 C 
ENDBRANCH  17  24
ENDBRANCH   1  20
TORSDOF 3
