REMARK  Name = ZINC40814653
REMARK  10 active torsions:
REMARK  status: ('A' for Active; 'I' for Inactive)
REMARK    1  A    between atoms: C_1  and  C_2
REMARK    2  A    between atoms: C_6  and  C_7
REMARK    3  A    between atoms: C_7  and  O_9
REMARK    4  A    between atoms: O_9  and  C_10
REMARK    5  A    between atoms: C_10  and  C_11
REMARK    6  A    between atoms: C_10  and  C_12
REMARK    7  A    between atoms: N_17  and  N_18
REMARK    8  A    between atoms: C_19  and  C_21
REMARK    9  A    between atoms: C_21  and  C_22
REMARK   10  A    between atoms: C_25  and  N_28
REMARK                            x       y       z     vdW  Elec       q    Type
REMARK                         _______ _______ _______ _____ _____    ______ ____
ROOT
ATOM      1  C   UNL     1      -0.018   1.503   0.010  0.00  0.00    +0.048 C 
ATOM      2  C   UNL     1       0.002  -0.004   0.002  0.00  0.00    +0.011 A 
ATOM      3  C   UNL     1       0.008  -0.838  -1.122  0.00  0.00    +0.042 A 
ATOM      4  C   UNL     1       0.026  -2.138  -0.672  0.00  0.00    +0.115 A 
ATOM      5  O   UNL     1       0.034  -2.112   0.658  0.00  0.00    -0.452 OA
ATOM      6  C   UNL     1       0.024  -0.831   1.091  0.00  0.00    +0.215 A 
ATOM      7  C   UNL     1       0.033  -3.327  -1.599  0.00  0.00    +0.075 C 
ATOM      8  C   UNL     1      -0.492  -2.902  -2.974  0.00  0.00    +0.014 C 
ATOM      9  C   UNL     1       0.280  -1.685  -3.494  0.00  0.00    +0.058 C 
ATOM     10  C   UNL     1       0.001  -0.512  -2.566  0.00  0.00    +0.070 C 
ATOM     11  N   UNL     1      -0.226   0.687  -3.007  0.00  0.00    -0.184 NA
ENDROOT
BRANCH  11  12
ATOM     12  N   UNL     1      -0.221   0.938  -4.385  0.00  0.00    -0.206 N 
ATOM     13  C   UNL     1      -0.457   2.183  -4.844  0.00  0.00    +0.237 C 
ATOM     14  O   UNL     1      -0.674   3.086  -4.064  0.00  0.00    -0.274 OA
ATOM     15  H   UNL     1      -0.048   0.216  -5.010  0.00  0.00    +0.177 HD
BRANCH  13  16
ATOM     16  C   UNL     1      -0.452   2.454  -6.327  0.00  0.00    +0.132 C 
BRANCH  16  17
ATOM     17  C   UNL     1      -0.741   3.912  -6.572  0.00  0.00    -0.038 A 
ATOM     18  C   UNL     1      -2.045   4.342  -6.728  0.00  0.00    +0.006 A 
ATOM     19  C   UNL     1      -2.310   5.680  -6.953  0.00  0.00    +0.033 A 
ATOM     20  C   UNL     1      -1.270   6.588  -7.022  0.00  0.00    +0.126 A 
ATOM     21  C   UNL     1       0.034   6.159  -6.866  0.00  0.00    +0.033 A 
ATOM     22  C   UNL     1       0.299   4.821  -6.637  0.00  0.00    +0.006 A 
BRANCH  20  23
ATOM     23  N   UNL     1      -1.554   8.021  -7.265  0.00  0.00    +0.056 N 
ATOM     24  O   UNL     1      -2.695   8.396  -7.402  0.00  0.00    -0.126 OA
ATOM     25  O   UNL     1      -0.644   8.815  -7.325  0.00  0.00    -0.126 OA
ENDBRANCH  20  23
ENDBRANCH  16  17
ENDBRANCH  13  16
ENDBRANCH  11  12
BRANCH   6  26
ATOM     26  C   UNL     1       0.032  -0.401   2.493  0.00  0.00    +0.375 C 
ATOM     27  O   UNL     1       0.019   0.784   2.765  0.00  0.00    -0.241 OA
BRANCH  26  28
ATOM     28  O   UNL     1       0.054  -1.320   3.480  0.00  0.00    -0.456 OA
BRANCH  28  29
ATOM     29  C   UNL     1       0.061  -0.829   4.822  0.00  0.00    +0.171 C 
ATOM     30  C   UNL     1      -1.379  -0.674   5.315  0.00  0.00    +0.052 C 
ATOM     31  C   UNL     1       0.805  -1.818   5.723  0.00  0.00    +0.052 C 
ENDBRANCH  28  29
ENDBRANCH  26  28
ENDBRANCH   6  26
TORSDOF 7
