REMARK  Name = ZINC13225047
REMARK  7 active torsions:
REMARK  status: ('A' for Active; 'I' for Inactive)
REMARK    1  A    between atoms: C_4  and  C_7
REMARK    2  A    between atoms: C_7  and  C_9
REMARK    3  A    between atoms: C_7  and  N_12
REMARK    4  A    between atoms: C_9  and  C_10
REMARK    5  A    between atoms: C_13  and  C_15
REMARK    6  A    between atoms: C_18  and  C_20
REMARK    7  A    between atoms: C_23  and  N_27
REMARK                            x       y       z     vdW  Elec       q    Type
REMARK                         _______ _______ _______ _____ _____    ______ ____
ROOT
ATOM      1  N   UNL     1      -0.416  -2.624  -1.421  0.00  0.00    -0.301 N 
ATOM      2  C   UNL     1       0.923  -2.623  -1.580  0.00  0.00    +0.280 C 
ATOM      3  O   UNL     1       1.646  -2.303  -0.655  0.00  0.00    -0.267 OA
ATOM      4  H   UNL     1      -0.994  -2.810  -2.176  0.00  0.00    +0.150 HD
ENDROOT
BRANCH   2   5
ATOM      5  C   UNL     1       1.507  -3.008  -2.868  0.00  0.00    +0.190 A 
ATOM      6  C   UNL     1       2.851  -3.045  -3.167  0.00  0.00    +0.055 A 
ATOM      7  C   UNL     1       2.957  -3.466  -4.497  0.00  0.00    +0.051 A 
ATOM      8  C   UNL     1       1.687  -3.661  -4.958  0.00  0.00    +0.137 A 
ATOM      9  O   UNL     1       0.822  -3.382  -3.969  0.00  0.00    -0.450 OA
BRANCH   8  10
ATOM     10  C   UNL     1       1.324  -4.104  -6.319  0.00  0.00    +0.036 A 
ATOM     11  C   UNL     1       1.865  -3.461  -7.434  0.00  0.00    +0.015 A 
ATOM     12  C   UNL     1       1.525  -3.883  -8.703  0.00  0.00    +0.033 A 
ATOM     13  C   UNL     1       0.642  -4.935  -8.873  0.00  0.00    +0.128 A 
ATOM     14  C   UNL     1       0.099  -5.575  -7.774  0.00  0.00    +0.053 A 
ATOM     15  C   UNL     1       0.433  -5.166  -6.498  0.00  0.00    +0.054 A 
ATOM     16 CL   UNL     1      -0.251  -5.970  -5.119  0.00  0.00    -0.083 Cl
BRANCH  13  17
ATOM     17  N   UNL     1       0.278  -5.378 -10.238  0.00  0.00    +0.056 N 
ATOM     18  O   UNL     1      -0.498  -6.303 -10.391  0.00  0.00    -0.126 OA
ATOM     19  O   UNL     1       0.756  -4.817 -11.207  0.00  0.00    -0.126 OA
ENDBRANCH  13  17
ENDBRANCH   8  10
ENDBRANCH   2   5
BRANCH   1  20
ATOM     20  C   UNL     1      -0.996  -2.345  -0.105  0.00  0.00    +0.114 C 
BRANCH  20  24
ATOM     21  C   UNL     1      -0.894  -5.888   2.279  0.00  0.00    +0.000 A 
ATOM     22  C   UNL     1      -0.608  -4.662   2.851  0.00  0.00    +0.000 A 
ATOM     23  C   UNL     1      -0.642  -3.515   2.079  0.00  0.00    +0.005 A 
ATOM     24  C   UNL     1      -0.960  -3.595   0.736  0.00  0.00    -0.027 A 
ATOM     25  C   UNL     1      -1.250  -4.820   0.166  0.00  0.00    +0.005 A 
ATOM     26  C   UNL     1      -1.212  -5.967   0.937  0.00  0.00    +0.000 A 
ENDBRANCH  20  24
BRANCH  20  27
ATOM     27  C   UNL     1      -2.446  -1.886  -0.274  0.00  0.00    +0.152 C 
BRANCH  27  28
ATOM     28  C   UNL     1      -2.474  -0.564  -0.997  0.00  0.00    +0.358 C 
ATOM     29  O   UNL     1      -1.440   0.006  -1.253  0.00  0.00    -0.246 OA
ATOM     30  O   UNL     1      -3.647  -0.021  -1.357  0.00  0.00    -0.246 OA
ENDBRANCH  27  28
ENDBRANCH  20  27
ENDBRANCH   1  20
TORSDOF 7
