REMARK  Name = ZINC14740944
REMARK  6 active torsions:
REMARK  status: ('A' for Active; 'I' for Inactive)
REMARK    1  A    between atoms: C_1  and  N_2
REMARK    2  A    between atoms: C_5  and  C_7
REMARK    3  A    between atoms: C_20  and  N_64
REMARK    4  A    between atoms: C_24  and  C_25
REMARK    5  A    between atoms: C_24  and  N_64
REMARK    6  A    between atoms: C_25  and  O_31
REMARK                            x       y       z     vdW  Elec       q    Type
REMARK                         _______ _______ _______ _____ _____    ______ ____
ROOT
ATOM      1  C   UNL     1      -0.702  -5.086   0.930  0.00  0.00    +0.172 C 
ATOM      2  N   UNL     1       0.264  -3.986   0.994  0.00  0.00    -0.270 N 
ATOM      3  C   UNL     1      -0.027  -2.693   0.779  0.00  0.00    +0.043 A 
ATOM      4  C   UNL     1       1.125  -1.993   0.925  0.00  0.00    +0.004 A 
ATOM      5  C   UNL     1       2.114  -2.939   1.242  0.00  0.00    +0.151 A 
ATOM      6  N   UNL     1       1.517  -4.118   1.264  0.00  0.00    -0.166 NA
ATOM      7  C   UNL     1       1.246  -0.502   0.765  0.00  0.00    +0.023 C 
ATOM      8  C   UNL     1      -0.003   0.005   0.032  0.00  0.00    -0.067 C 
ATOM      9  C   UNL     1      -1.257  -0.557   0.706  0.00  0.00    -0.009 C 
ATOM     10  C   UNL     1      -1.354  -2.065   0.439  0.00  0.00    +0.054 C 
ENDROOT
BRANCH   5  11
ATOM     11  C   UNL     1       3.543  -2.669   1.500  0.00  0.00    +0.267 C 
ATOM     12  O   UNL     1       3.988  -1.549   1.343  0.00  0.00    -0.268 OA
ATOM     13  N   UNL     1       4.354  -3.665   1.910  0.00  0.00    -0.292 N 
ATOM     14  C   UNL     1       5.763  -3.413   2.253  0.00  0.00    +0.113 C 
ATOM     15  C   UNL     1       5.944  -3.712   3.741  0.00  0.00    +0.054 C 
ATOM     16  C   UNL     1       5.318  -5.033   4.102  0.00  0.00    -0.041 A 
ATOM     17  C   UNL     1       5.739  -5.645   5.277  0.00  0.00    +0.004 A 
ATOM     18  C   UNL     1       5.201  -6.852   5.670  0.00  0.00    +0.000 A 
ATOM     19  C   UNL     1       4.232  -7.460   4.893  0.00  0.00    +0.000 A 
ATOM     20  C   UNL     1       3.814  -6.855   3.725  0.00  0.00    +0.005 A 
ATOM     21  C   UNL     1       4.359  -5.642   3.325  0.00  0.00    -0.027 A 
ATOM     22  C   UNL     1       3.866  -5.042   2.037  0.00  0.00    +0.143 C 
ENDBRANCH   5  11
BRANCH   8  23
ATOM     23  N   UNL     1      -0.032   1.479   0.089  0.00  0.00    +0.383 N 
ATOM     24  H   UNL     1       0.928   1.839   0.042  0.00  0.00    -0.085 HD
ATOM     25  H   UNL     1      -0.466   1.775   0.972  0.00  0.00    -0.085 HD
BRANCH  23  26
ATOM     26  C   UNL     1      -0.811   2.021  -1.041  0.00  0.00    -0.047 C 
BRANCH  26  27
ATOM     27  C   UNL     1      -0.824   3.548  -0.955  0.00  0.00    +0.051 C 
ATOM     28  C   UNL     1      -1.351   3.977   0.416  0.00  0.00    +0.033 C 
ATOM     29  C   UNL     1      -1.363   5.505   0.502  0.00  0.00    +0.003 C 
ATOM     30  C   UNL     1      -2.271   6.069  -0.593  0.00  0.00    +0.000 C 
ATOM     31  C   UNL     1      -1.744   5.640  -1.963  0.00  0.00    +0.003 C 
ATOM     32  C   UNL     1      -1.731   4.113  -2.050  0.00  0.00    +0.033 C 
BRANCH  27  33
ATOM     33  O   UNL     1       0.504   4.046  -1.132  0.00  0.00    -0.390 OA
ATOM     34  H   UNL     1       1.135   3.728  -0.472  0.00  0.00    +0.210 HD
ENDBRANCH  27  33
ENDBRANCH  26  27
ENDBRANCH  23  26
ENDBRANCH   8  23
TORSDOF 5
