REMARK  Name = ZINC15236759
REMARK  9 active torsions:
REMARK  status: ('A' for Active; 'I' for Inactive)
REMARK    1  A    between atoms: C_1  and  C_2
REMARK    2  A    between atoms: C_2  and  C_24
REMARK    3  A    between atoms: N_5  and  C_9
REMARK    4  A    between atoms: C_9  and  C_10
REMARK    5  A    between atoms: C_10  and  C_12
REMARK    6  A    between atoms: C_10  and  O_23
REMARK    7  A    between atoms: C_12  and  O_13
REMARK    8  A    between atoms: O_13  and  C_14
REMARK    9  A    between atoms: C_18  and  N_20
REMARK                            x       y       z     vdW  Elec       q    Type
REMARK                         _______ _______ _______ _____ _____    ______ ____
ROOT
ATOM      1  C   UNL     1       1.738  -1.204  -1.279  0.00  0.00    +0.047 C 
ATOM      2  C   UNL     1       1.419  -0.406  -0.014  0.00  0.00    +0.135 C 
ATOM      3  C   UNL     1       2.164   0.914  -0.014  0.00  0.00    +0.251 C 
ATOM      4  O   UNL     1       3.365   1.077  -0.025  0.00  0.00    -0.272 OA
ATOM      5  N   UNL     1       1.213   1.869   0.001  0.00  0.00    -0.221 N 
ATOM      6  C   UNL     1      -0.016   1.341   0.009  0.00  0.00    +0.310 C 
ATOM      7  O   UNL     1      -1.036   2.003   0.018  0.00  0.00    -0.252 OA
ATOM      8  N   UNL     1       0.002  -0.004   0.002  0.00  0.00    -0.281 N 
ATOM      9  H   UNL     1      -0.768  -0.594   0.006  0.00  0.00    +0.152 HD
ENDROOT
BRANCH   2  10
ATOM     10  C   UNL     1       1.757  -1.206   1.218  0.00  0.00    -0.015 A 
ATOM     11  C   UNL     1       3.042  -1.132   1.753  0.00  0.00    +0.007 A 
ATOM     12  C   UNL     1       3.380  -1.840   2.865  0.00  0.00    +0.009 A 
ATOM     13  C   UNL     1       2.421  -2.660   3.485  0.00  0.00    -0.018 A 
ATOM     14  C   UNL     1       2.733  -3.406   4.635  0.00  0.00    +0.008 A 
ATOM     15  C   UNL     1       1.779  -4.189   5.208  0.00  0.00    +0.001 A 
ATOM     16  C   UNL     1       0.494  -4.263   4.673  0.00  0.00    +0.001 A 
ATOM     17  C   UNL     1       0.156  -3.555   3.561  0.00  0.00    +0.008 A 
ATOM     18  C   UNL     1       1.115  -2.736   2.941  0.00  0.00    -0.018 A 
ATOM     19  C   UNL     1       0.802  -1.984   1.795  0.00  0.00    +0.014 A 
ENDBRANCH   2  10
BRANCH   5  20
ATOM     20  C   UNL     1       1.491   3.307   0.005  0.00  0.00    +0.152 C 
BRANCH  20  21
ATOM     21  C   UNL     1       1.602   3.801   1.448  0.00  0.00    +0.170 C 
BRANCH  21  22
ATOM     22  O   UNL     1       2.735   3.195   2.074  0.00  0.00    -0.387 OA
ATOM     23  H   UNL     1       3.576   3.393   1.639  0.00  0.00    +0.210 HD
ENDBRANCH  21  22
BRANCH  21  24
ATOM     24  C   UNL     1       1.768   5.322   1.456  0.00  0.00    +0.261 C 
BRANCH  24  25
ATOM     25  O   UNL     1       1.755   5.796   2.804  0.00  0.00    -0.489 OA
BRANCH  25  26
ATOM     26  C   UNL     1       1.892   7.136   2.988  0.00  0.00    +0.123 A 
ATOM     27  C   UNL     1       2.043   7.976   1.894  0.00  0.00    +0.046 A 
ATOM     28  C   UNL     1       2.178   9.337   2.084  0.00  0.00    +0.006 A 
ATOM     29  C   UNL     1       2.174   9.862   3.364  0.00  0.00    +0.033 A 
ATOM     30  C   UNL     1       2.029   9.027   4.455  0.00  0.00    +0.130 A 
ATOM     31  C   UNL     1       1.888   7.664   4.271  0.00  0.00    +0.078 A 
BRANCH  30  32
ATOM     32  N   UNL     1       2.024   9.591   5.823  0.00  0.00    +0.057 N 
ATOM     33  O   UNL     1       1.897   8.856   6.786  0.00  0.00    -0.126 OA
ATOM     34  O   UNL     1       2.148  10.792   5.987  0.00  0.00    -0.126 OA
ENDBRANCH  30  32
ENDBRANCH  25  26
ENDBRANCH  24  25
ENDBRANCH  21  24
ENDBRANCH  20  21
ENDBRANCH   5  20
TORSDOF 8
