REMARK  Name = ZINC09287357
REMARK  9 active torsions:
REMARK  status: ('A' for Active; 'I' for Inactive)
REMARK    1  A    between atoms: C_4  and  C_7
REMARK    2  A    between atoms: C_7  and  C_8
REMARK    3  A    between atoms: C_13  and  C_14
REMARK    4  A    between atoms: C_13  and  N_65
REMARK    5  A    between atoms: C_14  and  C_15
REMARK    6  A    between atoms: C_15  and  N_16
REMARK    7  A    between atoms: C_17  and  C_19
REMARK    8  A    between atoms: C_19  and  N_20
REMARK    9  A    between atoms: C_25  and  C_30
REMARK                            x       y       z     vdW  Elec       q    Type
REMARK                         _______ _______ _______ _____ _____    ______ ____
ROOT
ATOM      1  N   UNL     1       5.351  11.531  -1.658  0.00  0.00    -0.314 N 
ATOM      2  C   UNL     1       4.412  10.597  -1.407  0.00  0.00    +0.235 C 
ATOM      3  O   UNL     1       3.843  10.047  -2.327  0.00  0.00    -0.274 OA
ATOM      4  H   UNL     1       5.806  11.971  -0.922  0.00  0.00    +0.149 HD
ENDROOT
BRANCH   1   5
ATOM      5  C   UNL     1       5.684  11.882  -3.041  0.00  0.00    +0.102 C 
BRANCH   5   6
ATOM      6  C   UNL     1       6.771  12.959  -3.045  0.00  0.00    +0.000 C 
BRANCH   6   7
ATOM      7  C   UNL     1       7.120  13.325  -4.489  0.00  0.00    -0.077 C 
BRANCH   7  13
ATOM      8  C   UNL     1       9.401  16.871  -5.198  0.00  0.00    -0.010 C 
ATOM      9  C   UNL     1       9.871  15.541  -5.793  0.00  0.00    -0.015 C 
ATOM     10  C   UNL     1       8.691  14.568  -5.848  0.00  0.00    -0.079 C 
ATOM     11  C   UNL     1       7.662  15.615  -3.920  0.00  0.00    -0.079 C 
ATOM     12  C   UNL     1       8.812  16.619  -3.807  0.00  0.00    -0.015 C 
ATOM     13  N   UNL     1       8.185  14.349  -4.476  0.00  0.00    +0.380 N 
ATOM     14  H   UNL     1       8.957  14.019  -3.885  0.00  0.00    -0.082 HD
BRANCH   8  15
ATOM     15  C   UNL     1      10.589  17.829  -5.085  0.00  0.00    +0.038 C 
BRANCH  15  19
ATOM     16  C   UNL     1       9.219  21.649  -3.753  0.00  0.00    +0.000 A 
ATOM     17  C   UNL     1       9.604  20.693  -2.832  0.00  0.00    +0.000 A 
ATOM     18  C   UNL     1      10.047  19.457  -3.263  0.00  0.00    +0.003 A 
ATOM     19  C   UNL     1      10.105  19.176  -4.615  0.00  0.00    -0.047 A 
ATOM     20  C   UNL     1       9.725  20.134  -5.537  0.00  0.00    +0.003 A 
ATOM     21  C   UNL     1       9.277  21.369  -5.106  0.00  0.00    +0.000 A 
ENDBRANCH  15  19
ENDBRANCH   8  15
ENDBRANCH   7  13
ENDBRANCH   6   7
ENDBRANCH   5   6
ENDBRANCH   1   5
BRANCH   2  22
ATOM     22  C   UNL     1       4.069  10.236   0.015  0.00  0.00    +0.243 C 
BRANCH  22  23
ATOM     23  N   UNL     1       3.028   9.205   0.020  0.00  0.00    -0.217 N 
ATOM     24  C   UNL     1       3.369   7.896   0.009  0.00  0.00    +0.293 A 
ATOM     25  O   UNL     1       4.538   7.552  -0.004  0.00  0.00    -0.264 OA
ATOM     26  C   UNL     1       2.288   6.904   0.014  0.00  0.00    +0.135 A 
ATOM     27  C   UNL     1       2.261   5.529   0.014  0.00  0.00    +0.064 A 
ATOM     28  C   UNL     1       0.915   5.133   0.019  0.00  0.00    +0.100 A 
ATOM     29  N   UNL     1       0.158   6.217   0.032  0.00  0.00    -0.164 NA
ATOM     30  N   UNL     1       0.987   7.345   0.029  0.00  0.00    -0.214 N 
ATOM     31  C   UNL     1       0.729   8.697   0.039  0.00  0.00    +0.245 A 
ATOM     32  N   UNL     1       1.678   9.571   0.035  0.00  0.00    -0.156 NA
BRANCH  28  33
ATOM     33  C   UNL     1       0.425   3.737   0.017  0.00  0.00    +0.039 A 
ATOM     34  C   UNL     1      -0.864   3.276   0.027  0.00  0.00    +0.018 A 
ATOM     35  C   UNL     1      -1.080   1.915   0.017  0.00  0.00    +0.008 A 
ATOM     36  C   UNL     1      -0.013   1.076   0.008  0.00  0.00    +0.046 A 
ATOM     37  S   UNL     1       1.360   2.217   0.001  0.00  0.00    -0.095 S 
ENDBRANCH  28  33
ENDBRANCH  22  23
ENDBRANCH   2  22
TORSDOF 9
