REMARK  Name = ZINC64983080
REMARK  12 active torsions:
REMARK  status: ('A' for Active; 'I' for Inactive)
REMARK    1  A    between atoms: C_1  and  C_2
REMARK    2  A    between atoms: C_6  and  O_9
REMARK    3  A    between atoms: C_7  and  C_8
REMARK    4  A    between atoms: O_9  and  C_10
REMARK    5  A    between atoms: C_10  and  C_12
REMARK    6  A    between atoms: C_10  and  C_13
REMARK    7  A    between atoms: N_15  and  C_16
REMARK    8  A    between atoms: C_19  and  S_22
REMARK    9  A    between atoms: S_22  and  N_25
REMARK   10  A    between atoms: N_25  and  C_26
REMARK   11  A    between atoms: C_27  and  C_32
REMARK   12  A    between atoms: C_28  and  C_31
REMARK                            x       y       z     vdW  Elec       q    Type
REMARK                         _______ _______ _______ _____ _____    ______ ____
ROOT
ATOM      1  C   UNL     1       1.183  -6.730   4.779  0.00  0.00    +0.034 A 
ATOM      2  C   UNL     1       1.796  -7.976   4.744  0.00  0.00    +0.025 A 
ATOM      3  C   UNL     1       2.271  -8.542   5.911  0.00  0.00    +0.031 A 
ATOM      4  C   UNL     1       2.136  -7.871   7.112  0.00  0.00    +0.111 A 
ATOM      5  C   UNL     1       1.526  -6.631   7.150  0.00  0.00    +0.031 A 
ATOM      6  C   UNL     1       1.054  -6.056   5.986  0.00  0.00    +0.025 A 
ENDROOT
BRANCH   1   9
ATOM      7  C   UNL     1       0.734  -4.815   3.440  0.00  0.00    +0.258 C 
ATOM      8  O   UNL     1       1.268  -4.119   4.277  0.00  0.00    -0.271 OA
ATOM      9  N   UNL     1       0.701  -6.153   3.599  0.00  0.00    -0.282 N 
ATOM     10  H   UNL     1       0.342  -6.716   2.895  0.00  0.00    +0.155 HD
BRANCH   7  11
ATOM     11  C   UNL     1       0.109  -4.185   2.222  0.00  0.00    +0.256 C 
ATOM     12  C   UNL     1      -1.403  -4.419   2.247  0.00  0.00    +0.062 C 
BRANCH  11  13
ATOM     13  O   UNL     1       0.373  -2.781   2.224  0.00  0.00    -0.480 OA
BRANCH  13  19
ATOM     14  C   UNL     1       1.091   1.280  -0.387  0.00  0.00    +0.044 C 
ATOM     15  C   UNL     1       0.699  -0.172  -0.291  0.00  0.00    -0.044 A 
ATOM     16  C   UNL     1       0.320  -0.862  -1.428  0.00  0.00    +0.004 A 
ATOM     17  C   UNL     1      -0.040  -2.194  -1.343  0.00  0.00    +0.004 A 
ATOM     18  C   UNL     1      -0.023  -2.839  -0.121  0.00  0.00    +0.046 A 
ATOM     19  C   UNL     1       0.356  -2.149   1.021  0.00  0.00    +0.125 A 
ATOM     20  C   UNL     1       0.723  -0.814   0.932  0.00  0.00    -0.006 A 
ATOM     21  C   UNL     1       1.142  -0.063   2.170  0.00  0.00    +0.048 C 
ENDBRANCH  13  19
ENDBRANCH  11  13
ENDBRANCH   7  11
ENDBRANCH   1   9
BRANCH   4  22
ATOM     22  S   UNL     1       2.744  -8.597   8.598  0.00  0.00    +0.094 S 
ATOM     23  O   UNL     1       2.009  -8.014   9.665  0.00  0.00    -0.148 OA
ATOM     24  O   UNL     1       2.783 -10.000   8.378  0.00  0.00    -0.148 OA
BRANCH  22  25
ATOM     25  N   UNL     1       4.314  -8.102   8.779  0.00  0.00    -0.057 NA
BRANCH  25  26
ATOM     26  C   UNL     1       5.050  -8.523   9.871  0.00  0.00    +0.262 A 
ATOM     27  C   UNL     1       6.339  -8.191  10.144  0.00  0.00    +0.037 A 
ATOM     28  C   UNL     1       6.706  -8.824  11.339  0.00  0.00    +0.085 A 
ATOM     29  N   UNL     1       5.683  -9.509  11.770  0.00  0.00    -0.081 NA
ATOM     30  O   UNL     1       4.616  -9.329  10.855  0.00  0.00    -0.336 OA
ATOM     31  C   UNL     1       8.052  -8.730  12.011  0.00  0.00    +0.069 C 
ATOM     32  C   UNL     1       7.220  -7.299   9.308  0.00  0.00    +0.051 C 
ENDBRANCH  25  26
ENDBRANCH  22  25
ENDBRANCH   4  22
TORSDOF 7
