REMARK  Name = ZINC24709773
REMARK  10 active torsions:
REMARK  status: ('A' for Active; 'I' for Inactive)
REMARK    1  A    between atoms: C_1  and  C_2
REMARK    2  A    between atoms: C_2  and  C_3
REMARK    3  A    between atoms: C_3  and  C_4
REMARK    4  A    between atoms: C_4  and  C_30
REMARK    5  A    between atoms: N_7  and  C_11
REMARK    6  A    between atoms: C_11  and  C_12
REMARK    7  A    between atoms: N_14  and  C_15
REMARK    8  A    between atoms: C_15  and  C_20
REMARK    9  A    between atoms: C_30  and  C_31
REMARK   10  A    between atoms: C_31  and  C_32
REMARK                            x       y       z     vdW  Elec       q    Type
REMARK                         _______ _______ _______ _____ _____    ______ ____
ROOT
ATOM      1  C   UNL     1       4.987   1.357  -0.022  0.00  0.00    +0.232 C 
ATOM      2  O   UNL     1       4.243   1.795  -0.874  0.00  0.00    -0.274 OA
ATOM      3  N   UNL     1       4.773   0.131   0.495  0.00  0.00    -0.304 N 
ATOM      4  H   UNL     1       5.396  -0.232   1.326  0.00  0.00    +0.150 HD
ENDROOT
BRANCH   3   5
ATOM      5  C   UNL     1       3.711  -0.718  -0.050  0.00  0.00    +0.060 C 
ATOM      6  C   UNL     1       3.927  -0.932  -1.562  0.00  0.00    +0.030 C 
ATOM      7  C   UNL     1       4.680  -2.283  -1.651  0.00  0.00    +0.002 C 
ATOM      8  C   UNL     1       4.008  -3.122  -0.535  0.00  0.00    +0.002 C 
ATOM      9  C   UNL     1       3.762  -2.111   0.603  0.00  0.00    +0.030 C 
BRANCH   5  10
ATOM     10  C   UNL     1       2.366  -0.083   0.195  0.00  0.00    -0.020 A 
ATOM     11  C   UNL     1       2.239   0.923   1.134  0.00  0.00    +0.009 A 
ATOM     12  C   UNL     1       1.007   1.507   1.362  0.00  0.00    +0.050 A 
ATOM     13  C   UNL     1      -0.104   1.085   0.648  0.00  0.00    +0.162 A 
ATOM     14  C   UNL     1       0.024   0.076  -0.299  0.00  0.00    +0.162 A 
ATOM     15  C   UNL     1       1.263  -0.507  -0.521  0.00  0.00    +0.055 A 
ATOM     16  O   UNL     1      -1.052  -0.347  -1.016  0.00  0.00    -0.485 OA
ATOM     17  C   UNL     1      -2.344  -0.002  -0.503  0.00  0.00    +0.270 C 
ATOM     18  C   UNL     1      -2.324   1.481  -0.108  0.00  0.00    +0.270 C 
ATOM     19  O   UNL     1      -1.312   1.664   0.889  0.00  0.00    -0.485 OA
ENDBRANCH   5  10
ENDBRANCH   3   5
BRANCH   1  20
ATOM     20  C   UNL     1       6.151   2.185   0.459  0.00  0.00    +0.213 C 
BRANCH  20  24
ATOM     21  C   UNL     1       6.555   5.132  -1.765  0.00  0.00    +0.113 C 
ATOM     22  C   UNL     1       6.822   3.683  -1.408  0.00  0.00    +0.247 C 
ATOM     23  O   UNL     1       7.487   2.885  -2.033  0.00  0.00    -0.273 OA
ATOM     24  N   UNL     1       6.166   3.466  -0.251  0.00  0.00    -0.215 N 
ATOM     25  C   UNL     1       5.534   4.567   0.172  0.00  0.00    +0.310 C 
ATOM     26  O   UNL     1       4.878   4.619   1.193  0.00  0.00    -0.252 OA
ATOM     27  N   UNL     1       5.705   5.610  -0.661  0.00  0.00    -0.285 N 
ATOM     28  H   UNL     1       5.351   6.651  -0.650  0.00  0.00    +0.151 HD
BRANCH  21  29
ATOM     29  C   UNL     1       5.812   5.234  -3.099  0.00  0.00    +0.035 C 
BRANCH  29  31
ATOM     30  C   UNL     1       3.734   4.597  -4.330  0.00  0.00    +0.004 C 
ATOM     31  C   UNL     1       4.476   4.495  -2.996  0.00  0.00    -0.001 C 
ENDBRANCH  29  31
ENDBRANCH  21  29
BRANCH  21  32
ATOM     32  C   UNL     1       7.866   5.920  -1.815  0.00  0.00    +0.035 C 
BRANCH  32  33
ATOM     33  C   UNL     1       8.611   5.755  -0.490  0.00  0.00    -0.001 C 
ATOM     34  C   UNL     1       9.922   6.543  -0.540  0.00  0.00    +0.004 C 
ENDBRANCH  32  33
ENDBRANCH  21  32
ENDBRANCH  20  24
ENDBRANCH   1  20
TORSDOF 8
