REMARK  Name = ZINC45727031
REMARK  6 active torsions:
REMARK  status: ('A' for Active; 'I' for Inactive)
REMARK    1  A    between atoms: C_1  and  C_2
REMARK    2  A    between atoms: C_2  and  C_3
REMARK    3  A    between atoms: C_2  and  C_4
REMARK    4  A    between atoms: C_9  and  N_12
REMARK    5  A    between atoms: N_12  and  C_13
REMARK    6  A    between atoms: C_18  and  N_19
REMARK                            x       y       z     vdW  Elec       q    Type
REMARK                         _______ _______ _______ _____ _____    ______ ____
ROOT
ATOM      1  N   UNL     1      -0.219   2.202   5.951  0.00  0.00    -0.339 N 
ATOM      2  H   UNL     1      -0.210   3.119   5.637  0.00  0.00    +0.146 HD
ENDROOT
BRANCH   1   8
ATOM      3  C   UNL     1      -0.843  -0.308   1.220  0.00  0.00    +0.218 C 
ATOM      4  O   UNL     1       0.074  -0.967   0.776  0.00  0.00    -0.275 OA
ATOM      5  N   UNL     1      -0.966  -0.135   2.550  0.00  0.00    -0.301 N 
ATOM      6  C   UNL     1      -2.126   0.574   3.109  0.00  0.00    +0.109 C 
ATOM      7  C   UNL     1      -1.625   1.705   4.013  0.00  0.00    +0.041 C 
ATOM      8  C   UNL     1      -0.674   1.128   5.064  0.00  0.00    +0.073 C 
ATOM      9  C   UNL     1       0.533   0.493   4.371  0.00  0.00    +0.041 C 
ATOM     10  C   UNL     1       0.053  -0.656   3.471  0.00  0.00    +0.109 C 
BRANCH   3  12
ATOM     11  C   UNL     1      -1.476   1.784   0.049  0.00  0.00    +0.017 C 
ATOM     12  C   UNL     1      -1.843   0.317   0.282  0.00  0.00    +0.069 C 
ATOM     13  C   UNL     1      -1.828  -0.431  -1.052  0.00  0.00    +0.017 C 
ENDBRANCH   3  12
ENDBRANCH   1   8
BRANCH   1  14
ATOM     14  C   UNL     1       0.203   1.903   7.250  0.00  0.00    +0.058 A 
ATOM     15  C   UNL     1       0.069   0.613   7.746  0.00  0.00    +0.026 A 
ATOM     16  C   UNL     1       0.487   0.321   9.029  0.00  0.00    +0.022 A 
ATOM     17  C   UNL     1       1.039   1.313   9.821  0.00  0.00    +0.043 A 
ATOM     18  C   UNL     1       1.174   2.599   9.329  0.00  0.00    +0.054 A 
ATOM     19  C   UNL     1       0.763   2.896   8.044  0.00  0.00    +0.148 A 
ATOM     20 CL   UNL     1       1.564   0.943  11.434  0.00  0.00    -0.083 Cl
BRANCH  19  21
ATOM     21  N   UNL     1       0.914   4.270   7.516  0.00  0.00    +0.058 N 
ATOM     22  O   UNL     1       1.234   4.443   6.364  0.00  0.00    -0.126 OA
ATOM     23  O   UNL     1       0.718   5.220   8.239  0.00  0.00    -0.126 OA
ENDBRANCH  19  21
ENDBRANCH   1  14
TORSDOF 4
