REMARK  Name = ZINC32968592
REMARK  10 active torsions:
REMARK  status: ('A' for Active; 'I' for Inactive)
REMARK    1  A    between atoms: C_1  and  C_2
REMARK    2  A    between atoms: C_2  and  C_3
REMARK    3  A    between atoms: C_3  and  N_4
REMARK    4  A    between atoms: N_4  and  C_5
REMARK    5  A    between atoms: C_5  and  C_6
REMARK    6  A    between atoms: N_8  and  C_9
REMARK    7  A    between atoms: C_18  and  C_20
REMARK    8  A    between atoms: C_20  and  C_21
REMARK    9  A    between atoms: C_24  and  S_26
REMARK   10  A    between atoms: S_26  and  N_29
REMARK                            x       y       z     vdW  Elec       q    Type
REMARK                         _______ _______ _______ _____ _____    ______ ____
ROOT
ATOM      1  N   UNL     1       3.669   6.183   0.312  0.00  0.00    -0.292 N 
ATOM      2  C   UNL     1       4.340   6.509  -0.811  0.00  0.00    +0.221 C 
ATOM      3  O   UNL     1       3.806   6.386  -1.893  0.00  0.00    -0.275 OA
ENDROOT
BRANCH   1   4
ATOM      4  C   UNL     1       4.314   6.332   1.619  0.00  0.00    +0.108 C 
BRANCH   4   6
ATOM      5  C   UNL     1       5.712   5.191   3.346  0.00  0.00    +0.005 C 
ATOM      6  C   UNL     1       5.039   5.035   1.981  0.00  0.00    +0.016 C 
ENDBRANCH   4   6
ENDBRANCH   1   4
BRANCH   1   7
ATOM      7  C   UNL     1       2.296   5.679   0.225  0.00  0.00    +0.203 C 
BRANCH   7   8
ATOM      8  C   UNL     1       2.319   4.177   0.104  0.00  0.00    +0.235 C 
ATOM      9  O   UNL     1       3.378   3.586   0.091  0.00  0.00    -0.274 OA
ATOM     10  N   UNL     1       1.163   3.491   0.009  0.00  0.00    -0.282 N 
ATOM     11  H   UNL     1       0.207   4.031  -0.053  0.00  0.00    +0.155 HD
BRANCH  10  12
ATOM     12  C   UNL     1       1.179   2.090  -0.009  0.00  0.00    +0.072 A 
ATOM     13  C   UNL     1       2.223   1.415  -0.628  0.00  0.00    +0.029 A 
ATOM     14  C   UNL     1       2.239   0.034  -0.646  0.00  0.00    +0.043 A 
ATOM     15  C   UNL     1       1.214  -0.680  -0.049  0.00  0.00    +0.161 A 
ATOM     16  C   UNL     1       0.169  -0.011   0.569  0.00  0.00    +0.195 A 
ATOM     17  C   UNL     1       0.150   1.374   0.590  0.00  0.00    +0.182 A 
ATOM     18  F   UNL     1      -0.870   2.028   1.187  0.00  0.00    -0.200 F 
ATOM     19  F   UNL     1      -0.831  -0.709   1.151  0.00  0.00    -0.199 F 
ATOM     20  F   UNL     1       1.232  -2.031  -0.069  0.00  0.00    -0.202 F 
ENDBRANCH  10  12
ENDBRANCH   7   8
ENDBRANCH   1   7
BRANCH   2  21
ATOM     21  C   UNL     1       5.752   7.028  -0.722  0.00  0.00    +0.138 C 
BRANCH  21  22
ATOM     22  C   UNL     1       6.270   7.316  -2.107  0.00  0.00    +0.000 A 
ATOM     23  C   UNL     1       6.197   8.464  -2.824  0.00  0.00    +0.013 A 
ATOM     24  C   UNL     1       6.750   8.499  -4.091  0.00  0.00    +0.036 A 
ATOM     25  C   UNL     1       7.347   7.384  -4.579  0.00  0.00    +0.142 A 
ATOM     26  S   UNL     1       7.145   6.235  -3.227  0.00  0.00    -0.073 S 
BRANCH  25  27
ATOM     27  S   UNL     1       8.127   7.136  -6.139  0.00  0.00    +0.062 S 
ATOM     28  O   UNL     1       8.086   5.739  -6.396  0.00  0.00    -0.153 OA
ATOM     29  O   UNL     1       7.566   8.090  -7.030  0.00  0.00    -0.153 OA
BRANCH  27  30
ATOM     30  N   UNL     1       9.723   7.537  -5.958  0.00  0.00    -0.203 NA
ATOM     31  H   UNL     1      10.248   7.395  -6.915  0.00  0.00    +0.144 HD
ATOM     32  H   UNL     1      10.179   6.894  -5.191  0.00  0.00    +0.144 HD
ENDBRANCH  27  30
ENDBRANCH  25  27
ENDBRANCH  21  22
ENDBRANCH   2  21
TORSDOF 9
