REMARK  Name = ZINC20348524
REMARK  11 active torsions:
REMARK  status: ('A' for Active; 'I' for Inactive)
REMARK    1  A    between atoms: C_1  and  C_2
REMARK    2  A    between atoms: C_6  and  C_38
REMARK    3  A    between atoms: C_7  and  N_8
REMARK    4  A    between atoms: C_9  and  C_11
REMARK    5  A    between atoms: C_11  and  S_12
REMARK    6  A    between atoms: S_12  and  C_13
REMARK    7  A    between atoms: C_14  and  C_36
REMARK    8  A    between atoms: C_15  and  C_30
REMARK    9  A    between atoms: C_17  and  C_21
REMARK   10  A    between atoms: C_18  and  C_20
REMARK   11  A    between atoms: N_23  and  C_24
REMARK                            x       y       z     vdW  Elec       q    Type
REMARK                         _______ _______ _______ _____ _____    ______ ____
ROOT
ATOM      1  C   UNL     1      -2.625  10.006  -1.177  0.00  0.00    +0.080 C 
ATOM      2  C   UNL     1      -1.641   9.564  -2.005  0.00  0.00    +0.069 C 
ATOM      3  C   UNL     1      -1.347   8.100  -2.153  0.00  0.00    +0.098 C 
ATOM      4  C   UNL     1      -1.975   7.311  -1.041  0.00  0.00    +0.044 C 
ATOM      5  C   UNL     1      -2.935   7.832  -0.260  0.00  0.00    +0.014 C 
ATOM      6  N   UNL     1      -3.378   9.113  -0.447  0.00  0.00    -0.312 N 
ATOM      7  C   UNL     1      -3.534   6.993   0.840  0.00  0.00    +0.061 C 
ATOM      8  H   UNL     1      -4.338   9.429  -0.013  0.00  0.00    +0.152 HD
ENDROOT
BRANCH   3   9
ATOM      9  C   UNL     1      -1.895   7.620  -3.473  0.00  0.00    -0.035 A 
ATOM     10  C   UNL     1      -3.252   7.694  -3.725  0.00  0.00    +0.004 A 
ATOM     11  C   UNL     1      -3.754   7.258  -4.937  0.00  0.00    +0.000 A 
ATOM     12  C   UNL     1      -2.901   6.740  -5.893  0.00  0.00    +0.000 A 
ATOM     13  C   UNL     1      -1.544   6.662  -5.638  0.00  0.00    +0.000 A 
ATOM     14  C   UNL     1      -1.041   7.101  -4.428  0.00  0.00    +0.004 A 
ENDBRANCH   3   9
BRANCH   4  15
ATOM     15  C   UNL     1      -1.541   5.984  -0.806  0.00  0.00    +0.247 C 
ATOM     16  O   UNL     1      -0.543   5.779  -0.139  0.00  0.00    -0.270 OA
ATOM     17  N   UNL     1      -2.232   4.947  -1.321  0.00  0.00    -0.282 N 
ATOM     18  H   UNL     1      -3.079   5.133  -1.997  0.00  0.00    +0.155 HD
BRANCH  17  19
ATOM     19  C   UNL     1      -1.871   3.636  -0.994  0.00  0.00    +0.034 A 
ATOM     20  C   UNL     1      -2.112   2.604  -1.892  0.00  0.00    +0.023 A 
ATOM     21  C   UNL     1      -1.755   1.310  -1.567  0.00  0.00    +0.002 A 
ATOM     22  C   UNL     1      -1.158   1.042  -0.349  0.00  0.00    +0.000 A 
ATOM     23  C   UNL     1      -0.922   2.066   0.550  0.00  0.00    +0.002 A 
ATOM     24  C   UNL     1      -1.271   3.363   0.228  0.00  0.00    +0.023 A 
ENDBRANCH  17  19
ENDBRANCH   4  15
BRANCH   2  25
ATOM     25  C   UNL     1      -0.867  10.514  -2.746  0.00  0.00    +0.098 C 
ATOM     26  N   UNL     1      -0.253  11.267  -3.333  0.00  0.00    -0.191 NA
ENDBRANCH   2  25
BRANCH   1  27
ATOM     27  S   UNL     1      -2.939  11.734  -1.037  0.00  0.00    -0.100 S 
BRANCH  27  28
ATOM     28  C   UNL     1      -4.300  11.710   0.157  0.00  0.00    +0.171 C 
BRANCH  28  30
ATOM     29  N   UNL     1      -5.754  13.351   1.303  0.00  0.00    -0.284 N 
ATOM     30  C   UNL     1      -4.747  13.122   0.438  0.00  0.00    +0.227 C 
ATOM     31  O   UNL     1      -4.199  14.053  -0.115  0.00  0.00    -0.275 OA
ATOM     32  H   UNL     1      -6.223  12.510   1.836  0.00  0.00    +0.155 HD
BRANCH  29  39
ATOM     33  C   UNL     1      -3.873  15.289   2.198  0.00  0.00    +0.045 C 
ATOM     34  C   UNL     1      -5.321  15.634   1.960  0.00  0.00    -0.029 A 
ATOM     35  C   UNL     1      -5.768  16.924   2.171  0.00  0.00    +0.005 A 
ATOM     36  C   UNL     1      -7.097  17.240   1.957  0.00  0.00    +0.001 A 
ATOM     37  C   UNL     1      -7.981  16.268   1.527  0.00  0.00    +0.005 A 
ATOM     38  C   UNL     1      -7.539  14.978   1.309  0.00  0.00    -0.029 A 
ATOM     39  C   UNL     1      -6.205  14.657   1.522  0.00  0.00    +0.039 A 
ATOM     40  C   UNL     1      -8.504  13.919   0.839  0.00  0.00    +0.045 C 
ENDBRANCH  29  39
ENDBRANCH  28  30
ENDBRANCH  27  28
ENDBRANCH   1  27
TORSDOF 8
