REMARK  Name = ZINC09502835
REMARK  10 active torsions:
REMARK  status: ('A' for Active; 'I' for Inactive)
REMARK    1  A    between atoms: C_1  and  C_2
REMARK    2  A    between atoms: C_3  and  C_16
REMARK    3  A    between atoms: C_4  and  C_15
REMARK    4  A    between atoms: N_5  and  C_7
REMARK    5  A    between atoms: C_16  and  N_61
REMARK    6  A    between atoms: C_17  and  N_61
REMARK    7  A    between atoms: C_18  and  C_19
REMARK    8  A    between atoms: C_18  and  N_61
REMARK    9  A    between atoms: N_21  and  C_22
REMARK   10  A    between atoms: C_23  and  C_30
REMARK                            x       y       z     vdW  Elec       q    Type
REMARK                         _______ _______ _______ _____ _____    ______ ____
ROOT
ATOM      1  C   UNL     1      -0.016   1.091   2.429  0.00  0.00    +0.019 C 
ENDROOT
BRANCH   1   2
ATOM      2  C   UNL     1      -0.125  -0.409   2.520  0.00  0.00    +0.201 C 
ATOM      3  O   UNL     1      -0.715  -1.027   1.659  0.00  0.00    -0.278 OA
ATOM      4  N   UNL     1       0.432  -1.064   3.557  0.00  0.00    -0.281 N 
ATOM      5  H   UNL     1       0.904  -0.570   4.246  0.00  0.00    +0.155 HD
BRANCH   4   6
ATOM      6  C   UNL     1       0.332  -2.445   3.640  0.00  0.00    +0.084 A 
ATOM      7  C   UNL     1       0.834  -3.286   4.619  0.00  0.00    +0.068 A 
ATOM      8  C   UNL     1       0.586  -4.720   4.470  0.00  0.00    -0.023 A 
ATOM      9  C   UNL     1      -0.114  -5.068   3.376  0.00  0.00    -0.004 A 
ATOM     10  S   UNL     1      -0.456  -3.533   2.550  0.00  0.00    -0.077 S 
ATOM     11  C   UNL     1      -0.324  -6.556   3.291  0.00  0.00    +0.043 C 
ATOM     12  C   UNL     1       0.713  -7.152   4.267  0.00  0.00    +0.010 C 
ATOM     13  C   UNL     1       0.919  -5.989   5.257  0.00  0.00    +0.037 C 
BRANCH   7  14
ATOM     14  C   UNL     1       1.585  -2.759   5.762  0.00  0.00    +0.244 C 
ATOM     15  O   UNL     1       0.999  -2.442   6.781  0.00  0.00    -0.270 OA
ATOM     16  N   UNL     1       2.923  -2.626   5.686  0.00  0.00    -0.325 N 
ATOM     17  H   UNL     1       3.390  -2.879   4.874  0.00  0.00    +0.145 HD
ATOM     18  H   UNL     1       3.420  -2.277   6.442  0.00  0.00    +0.145 HD
ENDBRANCH   7  14
ENDBRANCH   4   6
ENDBRANCH   1   2
BRANCH   1  20
ATOM     19  C   UNL     1      -0.013   1.086   0.008  0.00  0.00    -0.095 C 
ATOM     20  N   UNL     1      -0.727   1.548   1.217  0.00  0.00    +0.386 N 
ATOM     21  H   UNL     1      -1.674   1.153   1.216  0.00  0.00    -0.081 HD
BRANCH  20  22
ATOM     22  C   UNL     1      -0.822   3.023   1.213  0.00  0.00    -0.039 C 
BRANCH  22  25
ATOM     23  C   UNL     1      -3.965   3.385   1.404  0.00  0.00    +0.068 C 
ATOM     24  C   UNL     1      -3.122   3.609   0.175  0.00  0.00    +0.062 A 
ATOM     25  C   UNL     1      -1.735   3.449   0.092  0.00  0.00    -0.021 A 
ATOM     26  C   UNL     1      -1.356   3.749  -1.172  0.00  0.00    +0.038 A 
ATOM     27  N   UNL     1      -2.465   4.079  -1.867  0.00  0.00    -0.263 N 
ATOM     28  N   UNL     1      -3.561   3.987  -0.998  0.00  0.00    -0.176 NA
ATOM     29  C   UNL     1       0.052   3.717  -1.709  0.00  0.00    +0.065 C 
BRANCH  27  30
ATOM     30  C   UNL     1      -2.514   4.470  -3.278  0.00  0.00    +0.130 C 
ATOM     31  C   UNL     1      -3.407   3.490  -4.057  0.00  0.00    +0.051 C 
ATOM     32  C   UNL     1      -3.724   4.066  -5.458  0.00  0.00    +0.168 C 
ATOM     33  S   UNL     1      -3.635   5.881  -5.179  0.00  0.00    -0.029 S 
ATOM     34  O   UNL     1      -2.580   6.419  -5.965  0.00  0.00    -0.174 OA
ATOM     35  O   UNL     1      -4.940   6.431  -5.291  0.00  0.00    -0.174 OA
ATOM     36  C   UNL     1      -3.128   5.893  -3.407  0.00  0.00    +0.192 C 
ENDBRANCH  27  30
ENDBRANCH  22  25
ENDBRANCH  20  22
ENDBRANCH   1  20
TORSDOF 7
