REMARK  Name = ZINC47007060
REMARK  10 active torsions:
REMARK  status: ('A' for Active; 'I' for Inactive)
REMARK    1  A    between atoms: C_1  and  C_2
REMARK    2  A    between atoms: C_3  and  C_8
REMARK    3  A    between atoms: N_6  and  C_7
REMARK    4  A    between atoms: C_8  and  C_10
REMARK    5  A    between atoms: C_8  and  N_11
REMARK    6  A    between atoms: N_14  and  N_15
REMARK    7  A    between atoms: C_16  and  C_18
REMARK    8  A    between atoms: C_18  and  C_20
REMARK    9  A    between atoms: C_18  and  O_21
REMARK   10  A    between atoms: O_21  and  C_22
REMARK                            x       y       z     vdW  Elec       q    Type
REMARK                         _______ _______ _______ _____ _____    ______ ____
ROOT
ATOM      1  N   UNL     1       0.031  -1.218  -4.082  0.00  0.00    -0.292 N 
ATOM      2  C   UNL     1       0.778  -1.000  -5.183  0.00  0.00    +0.316 C 
ATOM      3  O   UNL     1       0.940   0.133  -5.593  0.00  0.00    -0.251 OA
ATOM      4  N   UNL     1       1.345  -2.038  -5.829  0.00  0.00    -0.218 N 
ATOM      5  H   UNL     1      -0.099  -2.122  -3.755  0.00  0.00    +0.151 HD
ATOM      6  H   UNL     1       1.882  -1.882  -6.621  0.00  0.00    +0.174 HD
ENDROOT
BRANCH   4   7
ATOM      7  N   UNL     1       1.157  -3.344  -5.356  0.00  0.00    -0.230 N 
ATOM      8  C   UNL     1       1.724  -4.382  -6.002  0.00  0.00    +0.270 C 
ATOM      9  O   UNL     1       2.396  -4.186  -6.992  0.00  0.00    -0.270 OA
ATOM     10  H   UNL     1       0.620  -3.501  -4.564  0.00  0.00    +0.173 HD
BRANCH   8  11
ATOM     11  C   UNL     1       1.523  -5.787  -5.494  0.00  0.00    +0.257 C 
ATOM     12  C   UNL     1       2.178  -5.930  -4.119  0.00  0.00    +0.062 C 
BRANCH  11  13
ATOM     13  O   UNL     1       2.119  -6.713  -6.404  0.00  0.00    -0.477 OA
BRANCH  13  14
ATOM     14  C   UNL     1       1.618  -7.976  -6.415  0.00  0.00    +0.157 A 
ATOM     15  C   UNL     1       0.654  -8.350  -5.490  0.00  0.00    +0.048 A 
ATOM     16  C   UNL     1       0.146  -9.635  -5.503  0.00  0.00    +0.004 A 
ATOM     17  C   UNL     1       0.598 -10.550  -6.437  0.00  0.00    +0.003 A 
ATOM     18  C   UNL     1       1.559 -10.182  -7.360  0.00  0.00    +0.042 A 
ATOM     19  C   UNL     1       2.066  -8.895  -7.356  0.00  0.00    +0.165 A 
ATOM     20  F   UNL     1       3.000  -8.533  -8.262  0.00  0.00    -0.202 F 
ENDBRANCH  13  14
ENDBRANCH  11  13
ENDBRANCH   8  11
ENDBRANCH   4   7
BRANCH   1  21
ATOM     21  C   UNL     1      -0.585  -0.089  -3.380  0.00  0.00    +0.105 C 
ATOM     22  C   UNL     1      -1.922   0.254  -4.041  0.00  0.00    +0.033 C 
BRANCH  21  25
ATOM     23  C   UNL     1      -1.014   1.907  -1.010  0.00  0.00    +0.065 C 
ATOM     24  C   UNL     1      -1.004   0.403  -0.913  0.00  0.00    +0.041 A 
ATOM     25  C   UNL     1      -0.818  -0.461  -1.938  0.00  0.00    +0.013 A 
ATOM     26  C   UNL     1      -0.880  -1.760  -1.423  0.00  0.00    +0.140 A 
ATOM     27  N   UNL     1      -1.096  -1.679  -0.136  0.00  0.00    -0.179 NA
ATOM     28  N   UNL     1      -1.173  -0.324   0.211  0.00  0.00    -0.271 N 
ATOM     29  C   UNL     1      -1.399   0.210   1.556  0.00  0.00    +0.172 C 
ENDBRANCH  21  25
ENDBRANCH   1  21
TORSDOF 6
