REMARK  Name = ZINC20834626
REMARK  10 active torsions:
REMARK  status: ('A' for Active; 'I' for Inactive)
REMARK    1  A    between atoms: C_1  and  C_2
REMARK    2  A    between atoms: C_2  and  C_3
REMARK    3  A    between atoms: C_2  and  C_4
REMARK    4  A    between atoms: C_2  and  C_5
REMARK    5  A    between atoms: C_8  and  C_10
REMARK    6  A    between atoms: C_10  and  S_11
REMARK    7  A    between atoms: S_11  and  C_12
REMARK    8  A    between atoms: N_17  and  N_18
REMARK    9  A    between atoms: C_19  and  C_20
REMARK   10  A    between atoms: C_25  and  O_26
REMARK                            x       y       z     vdW  Elec       q    Type
REMARK                         _______ _______ _______ _____ _____    ______ ____
ROOT
ATOM      1  C   UNL     1       5.872   0.507  -1.594  0.00  0.00    +0.211 A 
ATOM      2  N   UNL     1       6.767   0.486  -2.626  0.00  0.00    -0.186 NA
ATOM      3  C   UNL     1       8.025   0.446  -2.094  0.00  0.00    +0.232 A 
ATOM      4  N   UNL     1       7.913   0.442  -0.787  0.00  0.00    -0.245 N 
ATOM      5  N   UNL     1       6.549   0.486  -0.470  0.00  0.00    -0.144 NA
ATOM      6  N   UNL     1       9.213   0.414  -2.810  0.00  0.00    -0.205 N 
ATOM      7  H   UNL     1       9.192   0.420  -3.910  0.00  0.00    +0.177 HD
ATOM      8  H   UNL     1       8.815   0.409  -0.158  0.00  0.00    +0.192 HD
ENDROOT
BRANCH   6   9
ATOM      9  N   UNL     1      10.439   0.374  -2.133  0.00  0.00    -0.187 NA
ATOM     10  C   UNL     1      11.551   0.344  -2.803  0.00  0.00    +0.142 C 
BRANCH  10  11
ATOM     11  C   UNL     1      12.840   0.303  -2.091  0.00  0.00    +0.037 A 
ATOM     12  C   UNL     1      14.038   0.271  -2.808  0.00  0.00    +0.028 A 
ATOM     13  C   UNL     1      15.242   0.232  -2.135  0.00  0.00    +0.019 A 
ATOM     14  C   UNL     1      15.267   0.224  -0.750  0.00  0.00    +0.019 A 
ATOM     15  C   UNL     1      14.088   0.256  -0.030  0.00  0.00    +0.047 A 
ATOM     16  C   UNL     1      12.871   0.301  -0.690  0.00  0.00    +0.126 A 
ATOM     17 BR   UNL     1      16.863   0.188  -3.107  0.00  0.00    -0.050 Br
BRANCH  16  18
ATOM     18  O   UNL     1      11.712   0.338   0.018  0.00  0.00    -0.506 OA
ATOM     19  H   UNL     1      11.739   0.337   1.118  0.00  0.00    +0.292 HD
ENDBRANCH  16  18
ENDBRANCH  10  11
ENDBRANCH   6   9
BRANCH   1  20
ATOM     20  S   UNL     1       4.117   0.560  -1.745  0.00  0.00    -0.075 S 
BRANCH  20  21
ATOM     21  C   UNL     1       3.530   0.568  -0.029  0.00  0.00    +0.175 C 
BRANCH  21  25
ATOM     22  C   UNL     1      -0.016   1.298   0.009  0.00  0.00    +0.223 A 
ATOM     23  N   UNL     1       0.002  -0.004   0.002  0.00  0.00    -0.112 NA
ATOM     24  N   UNL     1       1.222  -0.414  -0.012  0.00  0.00    -0.111 NA
ATOM     25  C   UNL     1       2.023   0.612  -0.014  0.00  0.00    +0.227 A 
ATOM     26  O   UNL     1       1.261   1.718  -0.001  0.00  0.00    -0.423 OA
BRANCH  22  28
ATOM     27  C   UNL     1      -2.070   1.876   1.272  0.00  0.00    +0.020 C 
ATOM     28  C   UNL     1      -1.242   2.174   0.020  0.00  0.00    +0.040 C 
ATOM     29  C   UNL     1      -0.820   3.644   0.025  0.00  0.00    +0.020 C 
ATOM     30  C   UNL     1      -2.083   1.889  -1.226  0.00  0.00    +0.020 C 
ENDBRANCH  22  28
ENDBRANCH  21  25
ENDBRANCH  20  21
ENDBRANCH   1  20
TORSDOF 7
