REMARK  Name = ZINC57503478
REMARK  10 active torsions:
REMARK  status: ('A' for Active; 'I' for Inactive)
REMARK    1  A    between atoms: C_1  and  C_2
REMARK    2  A    between atoms: C_5  and  C_8
REMARK    3  A    between atoms: C_10  and  C_13
REMARK    4  A    between atoms: N_20  and  C_23
REMARK    5  A    between atoms: C_23  and  C_24
REMARK    6  A    between atoms: N_26  and  C_27
REMARK    7  A    between atoms: C_27  and  C_28
REMARK    8  A    between atoms: C_28  and  C_29
REMARK    9  A    between atoms: C_29  and  C_30
REMARK   10  A    between atoms: C_29  and  C_31
REMARK                            x       y       z     vdW  Elec       q    Type
REMARK                         _______ _______ _______ _____ _____    ______ ____
ROOT
ATOM      1  C   UNL     1       0.101  -7.465   1.612  0.00  0.00    +0.084 A 
ATOM      2  C   UNL     1       0.094  -7.290   2.986  0.00  0.00    +0.018 A 
ATOM      3  C   UNL     1       0.109  -8.414   3.824  0.00  0.00    +0.019 A 
ATOM      4  C   UNL     1       0.130  -9.663   3.323  0.00  0.00    +0.098 A 
ATOM      5  N   UNL     1       0.138  -9.899   1.972  0.00  0.00    -0.250 N 
ATOM      6  C   UNL     1       0.118  -8.839   1.084  0.00  0.00    +0.174 A 
ATOM      7  N   UNL     1       0.124  -9.315  -0.134  0.00  0.00    -0.148 NA
ATOM      8  N   UNL     1       0.142 -10.714  -0.050  0.00  0.00    -0.203 N 
ATOM      9  C   UNL     1       0.158 -11.043   1.259  0.00  0.00    +0.351 A 
ATOM     10  O   UNL     1       0.174 -12.173   1.714  0.00  0.00    -0.244 OA
ENDROOT
BRANCH   1  13
ATOM     11  C   UNL     1       0.059  -4.256  -0.021  0.00  0.00    +0.202 A 
ATOM     12  N   UNL     1       0.070  -5.042   1.066  0.00  0.00    -0.187 NA
ATOM     13  C   UNL     1       0.086  -6.307   0.704  0.00  0.00    +0.262 A 
ATOM     14  O   UNL     1       0.086  -6.359  -0.641  0.00  0.00    -0.332 OA
ATOM     15  N   UNL     1       0.064  -5.013  -1.093  0.00  0.00    -0.056 NA
BRANCH  11  20
ATOM     16  C   UNL     1      -0.018   1.503   0.010  0.00  0.00    +0.044 C 
ATOM     17  C   UNL     1       0.002  -0.004   0.002  0.00  0.00    -0.050 A 
ATOM     18  C   UNL     1       0.006  -0.687  -1.201  0.00  0.00    +0.004 A 
ATOM     19  C   UNL     1       0.024  -2.067  -1.214  0.00  0.00    +0.012 A 
ATOM     20  C   UNL     1       0.040  -2.772  -0.013  0.00  0.00    +0.022 A 
ATOM     21  C   UNL     1       0.036  -2.080   1.196  0.00  0.00    +0.012 A 
ATOM     22  C   UNL     1       0.023  -0.700   1.198  0.00  0.00    +0.004 A 
ENDBRANCH  11  20
ENDBRANCH   1  13
BRANCH   8  23
ATOM     23  C   UNL     1       0.153 -11.649  -1.178  0.00  0.00    +0.244 C 
BRANCH  23  24
ATOM     24  C   UNL     1      -1.264 -11.987  -1.564  0.00  0.00    +0.235 C 
ATOM     25  O   UNL     1      -2.192 -11.495  -0.957  0.00  0.00    -0.274 OA
ATOM     26  N   UNL     1      -1.500 -12.836  -2.584  0.00  0.00    -0.314 N 
ATOM     27  H   UNL     1      -0.758 -13.229  -3.069  0.00  0.00    +0.149 HD
BRANCH  26  28
ATOM     28  C   UNL     1      -2.878 -13.165  -2.959  0.00  0.00    +0.104 C 
BRANCH  28  29
ATOM     29  C   UNL     1      -2.866 -14.141  -4.137  0.00  0.00    +0.022 C 
BRANCH  29  30
ATOM     30  C   UNL     1      -4.305 -14.484  -4.529  0.00  0.00    -0.016 C 
ATOM     31  C   UNL     1      -4.296 -15.361  -5.783  0.00  0.00    +0.007 C 
ATOM     32  C   UNL     1      -4.979 -15.241  -3.383  0.00  0.00    +0.007 C 
ENDBRANCH  29  30
ENDBRANCH  28  29
ENDBRANCH  26  28
ENDBRANCH  23  24
ENDBRANCH   8  23
TORSDOF 7
