REMARK  Name = ZINC13496147
REMARK  12 active torsions:
REMARK  status: ('A' for Active; 'I' for Inactive)
REMARK    1  A    between atoms: C_1  and  C_2
REMARK    2  A    between atoms: C_2  and  S_3
REMARK    3  A    between atoms: S_3  and  N_6
REMARK    4  A    between atoms: N_6  and  C_7
REMARK    5  A    between atoms: C_10  and  C_13
REMARK    6  A    between atoms: C_16  and  S_18
REMARK    7  A    between atoms: S_18  and  C_19
REMARK    8  A    between atoms: C_19  and  C_20
REMARK    9  A    between atoms: C_25  and  C_28
REMARK   10  A    between atoms: C_28  and  C_29
REMARK   11  A    between atoms: C_28  and  C_30
REMARK   12  A    between atoms: C_28  and  C_31
REMARK                            x       y       z     vdW  Elec       q    Type
REMARK                         _______ _______ _______ _____ _____    ______ ____
ROOT
ATOM      1  C   UNL     1      -7.277   0.481   0.188  0.00  0.00    +0.249 A 
ATOM      2  N   UNL     1      -6.308  -0.401   0.157  0.00  0.00    -0.106 NA
ATOM      3  N   UNL     1      -5.175   0.207   0.201  0.00  0.00    -0.101 NA
ATOM      4  C   UNL     1      -5.376   1.503   0.262  0.00  0.00    +0.278 A 
ATOM      5  O   UNL     1      -6.708   1.705   0.260  0.00  0.00    -0.411 OA
ENDROOT
BRANCH   1   9
ATOM      6  C   UNL     1     -11.442  -0.354   0.095  0.00  0.00    +0.048 A 
ATOM      7  C   UNL     1     -10.524  -1.398   0.054  0.00  0.00    +0.025 A 
ATOM      8  C   UNL     1      -9.172  -1.131   0.084  0.00  0.00    +0.015 A 
ATOM      9  C   UNL     1      -8.725   0.191   0.155  0.00  0.00    +0.039 A 
ATOM     10  C   UNL     1      -9.650   1.236   0.201  0.00  0.00    +0.015 A 
ATOM     11  C   UNL     1     -11.000   0.962   0.165  0.00  0.00    +0.025 A 
BRANCH   6  12
ATOM     12  N   UNL     1     -12.809  -0.629   0.066  0.00  0.00    -0.221 N 
ATOM     13  H   UNL     1     -13.318  -0.474  -0.746  0.00  0.00    +0.173 HD
BRANCH  12  14
ATOM     14  S   UNL     1     -13.565  -1.219   1.416  0.00  0.00    +0.043 S 
ATOM     15  O   UNL     1     -14.923  -1.383   1.029  0.00  0.00    -0.155 OA
ATOM     16  O   UNL     1     -12.783  -2.339   1.808  0.00  0.00    -0.155 OA
BRANCH  14  18
ATOM     17  C   UNL     1     -13.984  -0.379   3.985  0.00  0.00    +0.030 C 
ATOM     18  C   UNL     1     -13.422   0.105   2.647  0.00  0.00    +0.185 C 
ENDBRANCH  14  18
ENDBRANCH  12  14
ENDBRANCH   6  12
ENDBRANCH   1   9
BRANCH   4  19
ATOM     19  S   UNL     1      -4.133   2.749   0.340  0.00  0.00    -0.056 S 
BRANCH  19  20
ATOM     20  C   UNL     1      -2.648   1.714   0.309  0.00  0.00    +0.175 C 
BRANCH  20  21
ATOM     21  C   UNL     1      -1.423   2.590   0.368  0.00  0.00    +0.229 C 
ATOM     22  O   UNL     1      -1.543   3.795   0.426  0.00  0.00    -0.275 OA
ATOM     23  N   UNL     1      -0.196   2.034   0.357  0.00  0.00    -0.264 N 
ATOM     24  C   UNL     1       0.934   2.842   0.406  0.00  0.00    +0.165 A 
ATOM     25  N   UNL     1       2.205   2.490   0.405  0.00  0.00    -0.229 NA
ATOM     26  C   UNL     1       3.164   3.394   0.452  0.00  0.00    +0.056 A 
ATOM     27  C   UNL     1       2.816   4.703   0.513  0.00  0.00    +0.072 A 
ATOM     28  S   UNL     1       1.033   4.573   0.492  0.00  0.00    -0.060 S 
ATOM     29  H   UNL     1      -0.101   1.069   0.310  0.00  0.00    +0.157 HD
BRANCH  26  30
ATOM     30  C   UNL     1       4.613   2.982   0.443  0.00  0.00    +0.005 C 
ATOM     31  C   UNL     1       5.194   3.132   1.850  0.00  0.00    +0.017 C 
ATOM     32  C   UNL     1       4.726   1.522  -0.002  0.00  0.00    +0.017 C 
ATOM     33  C   UNL     1       5.391   3.872  -0.528  0.00  0.00    +0.017 C 
ENDBRANCH  26  30
ENDBRANCH  20  21
ENDBRANCH  19  20
ENDBRANCH   4  19
TORSDOF 8
