REMARK  Name = ZINC13549949
REMARK  7 active torsions:
REMARK  status: ('A' for Active; 'I' for Inactive)
REMARK    1  A    between atoms: C_1  and  C_2
REMARK    2  A    between atoms: N_4  and  C_24
REMARK    3  A    between atoms: C_8  and  C_9
REMARK    4  A    between atoms: C_8  and  N_13
REMARK    5  A    between atoms: N_13  and  N_14
REMARK    6  A    between atoms: C_15  and  C_17
REMARK    7  A    between atoms: C_22  and  O_23
REMARK                            x       y       z     vdW  Elec       q    Type
REMARK                         _______ _______ _______ _____ _____    ______ ____
ROOT
ATOM      1  C   UNL     1      -1.047   1.495   0.349  0.00  0.00    +0.068 C 
ATOM      2  C   UNL     1      -0.839   0.006   0.238  0.00  0.00    +0.071 C 
ATOM      3  N   UNL     1      -1.170  -0.741  -0.771  0.00  0.00    -0.176 NA
ATOM      4  N   UNL     1      -0.834  -2.075  -0.545  0.00  0.00    -0.156 N 
ATOM      5  C   UNL     1      -0.257  -2.209   0.667  0.00  0.00    +0.274 C 
ATOM      6  O   UNL     1       0.155  -3.239   1.173  0.00  0.00    -0.268 OA
ATOM      7  C   UNL     1      -0.219  -0.862   1.249  0.00  0.00    +0.088 C 
ATOM      8  C   UNL     1       0.288  -0.491   2.483  0.00  0.00    +0.139 C 
ENDROOT
BRANCH   4   9
ATOM      9  C   UNL     1      -1.062  -3.124  -1.444  0.00  0.00    +0.060 A 
ATOM     10  C   UNL     1      -0.691  -4.420  -1.112  0.00  0.00    +0.025 A 
ATOM     11  C   UNL     1      -0.918  -5.452  -2.001  0.00  0.00    +0.002 A 
ATOM     12  C   UNL     1      -1.514  -5.195  -3.223  0.00  0.00    +0.000 A 
ATOM     13  C   UNL     1      -1.884  -3.905  -3.557  0.00  0.00    +0.002 A 
ATOM     14  C   UNL     1      -1.666  -2.870  -2.669  0.00  0.00    +0.025 A 
ENDBRANCH   4   9
BRANCH   8  15
ATOM     15  C   UNL     1       0.509   0.966   2.800  0.00  0.00    +0.432 C 
ATOM     16  F   UNL     1      -0.665   1.511   3.330  0.00  0.00    -0.165 F 
ATOM     17  F   UNL     1       1.544   1.089   3.733  0.00  0.00    -0.165 F 
ATOM     18  F   UNL     1       0.853   1.650   1.629  0.00  0.00    -0.165 F 
ENDBRANCH   8  15
BRANCH   8  19
ATOM     19  N   UNL     1       0.584  -1.433   3.401  0.00  0.00    -0.260 N 
ATOM     20  H   UNL     1       0.541  -2.372   3.164  0.00  0.00    +0.170 HD
BRANCH  19  21
ATOM     21  N   UNL     1       0.954  -1.055   4.699  0.00  0.00    -0.232 N 
ATOM     22  C   UNL     1       1.381  -1.984   5.576  0.00  0.00    +0.264 C 
ATOM     23  O   UNL     1       1.534  -3.135   5.215  0.00  0.00    -0.269 OA
ATOM     24  H   UNL     1       0.902  -0.124   4.966  0.00  0.00    +0.173 HD
BRANCH  22  25
ATOM     25  C   UNL     1       1.664  -1.606   6.973  0.00  0.00    +0.079 A 
ATOM     26  C   UNL     1       1.383  -0.313   7.421  0.00  0.00    +0.017 A 
ATOM     27  C   UNL     1       1.649   0.035   8.728  0.00  0.00    +0.001 A 
ATOM     28  C   UNL     1       2.195  -0.892   9.601  0.00  0.00    +0.004 A 
ATOM     29  C   UNL     1       2.478  -2.174   9.171  0.00  0.00    +0.046 A 
ATOM     30  C   UNL     1       2.211  -2.542   7.861  0.00  0.00    +0.129 A 
BRANCH  30  31
ATOM     31  O   UNL     1       2.483  -3.803   7.439  0.00  0.00    -0.506 OA
ATOM     32  H   UNL     1       3.375  -3.914   7.083  0.00  0.00    +0.292 HD
ENDBRANCH  30  31
ENDBRANCH  22  25
ENDBRANCH  19  21
ENDBRANCH   8  19
TORSDOF 6
