REMARK  Name = ZINC09080378
REMARK  14 active torsions:
REMARK  status: ('A' for Active; 'I' for Inactive)
REMARK    1  A    between atoms: C_1  and  C_2
REMARK    2  A    between atoms: C_5  and  S_8
REMARK    3  A    between atoms: S_8  and  C_11
REMARK    4  A    between atoms: C_11  and  C_13
REMARK    5  A    between atoms: C_11  and  C_29
REMARK    6  A    between atoms: C_13  and  N_14
REMARK    7  A    between atoms: C_15  and  C_17
REMARK    8  A    between atoms: N_19  and  C_20
REMARK    9  A    between atoms: C_20  and  C_21
REMARK   10  A    between atoms: C_21  and  C_22
REMARK   11  A    between atoms: C_25  and  O_28
REMARK   12  A    between atoms: C_32  and  N_35
REMARK   13  A    between atoms: N_35  and  C_36
REMARK   14  A    between atoms: N_35  and  C_37
REMARK                            x       y       z     vdW  Elec       q    Type
REMARK                         _______ _______ _______ _____ _____    ______ ____
ROOT
ATOM      1  C   UNL     1      -2.441   0.667   0.019  0.00  0.00    +0.183 C 
ENDROOT
BRANCH   1   2
ATOM      2  C   UNL     1      -3.756   1.404   0.029  0.00  0.00    -0.021 A 
ATOM      3  C   UNL     1      -4.056   2.265   1.069  0.00  0.00    +0.007 A 
ATOM      4  C   UNL     1      -5.258   2.946   1.078  0.00  0.00    +0.023 A 
ATOM      5  C   UNL     1      -6.170   2.757   0.047  0.00  0.00    +0.029 A 
ATOM      6  C   UNL     1      -5.867   1.887  -0.993  0.00  0.00    +0.023 A 
ATOM      7  C   UNL     1      -4.661   1.213  -0.999  0.00  0.00    +0.007 A 
BRANCH   5   8
ATOM      8  N   UNL     1      -7.388   3.439   0.056  0.00  0.00    -0.336 N 
ATOM      9  C   UNL     1      -8.294   3.336  -1.090  0.00  0.00    +0.129 C 
ATOM     10  C   UNL     1      -7.760   4.258   1.212  0.00  0.00    +0.129 C 
ENDBRANCH   5   8
ENDBRANCH   1   2
BRANCH   1  11
ATOM     11  S   UNL     1      -2.316  -0.367   1.505  0.00  0.00    +0.005 S 
ATOM     12  O   UNL     1      -3.470  -1.187   1.629  0.00  0.00    -0.169 OA
ATOM     13  O   UNL     1      -1.015  -0.928   1.602  0.00  0.00    -0.169 OA
BRANCH  11  18
ATOM     14  C   UNL     1      -2.673   3.502   6.121  0.00  0.00    +0.044 C 
ATOM     15  C   UNL     1      -2.584   2.535   4.968  0.00  0.00    -0.050 A 
ATOM     16  C   UNL     1      -3.733   1.968   4.452  0.00  0.00    +0.005 A 
ATOM     17  C   UNL     1      -3.652   1.081   3.394  0.00  0.00    +0.027 A 
ATOM     18  C   UNL     1      -2.421   0.763   2.853  0.00  0.00    +0.089 A 
ATOM     19  C   UNL     1      -1.270   1.327   3.372  0.00  0.00    +0.027 A 
ATOM     20  C   UNL     1      -1.352   2.217   4.427  0.00  0.00    +0.005 A 
ENDBRANCH  11  18
ENDBRANCH   1  11
BRANCH   1  21
ATOM     21  C   UNL     1      -1.291   1.676   0.002  0.00  0.00    +0.136 C 
BRANCH  21  22
ATOM     22  N   UNL     1      -0.013   0.960  -0.007  0.00  0.00    -0.305 N 
ATOM     23  C   UNL     1       1.145   1.649  -0.028  0.00  0.00    +0.299 C 
ATOM     24  O   UNL     1       1.130   2.862  -0.034  0.00  0.00    -0.265 OA
ATOM     25  H   UNL     1      -0.001  -0.010  -0.002  0.00  0.00    +0.149 HD
BRANCH  23  26
ATOM     26  C   UNL     1       2.449   0.918  -0.044  0.00  0.00    +0.299 C 
ATOM     27  O   UNL     1       2.464  -0.295  -0.038  0.00  0.00    -0.265 OA
ATOM     28  N   UNL     1       3.607   1.607  -0.065  0.00  0.00    -0.307 N 
ATOM     29  H   UNL     1       3.595   2.577  -0.070  0.00  0.00    +0.149 HD
BRANCH  28  30
ATOM     30  C   UNL     1       4.885   0.891  -0.081  0.00  0.00    +0.109 C 
BRANCH  30  31
ATOM     31  C   UNL     1       6.035   1.900  -0.103  0.00  0.00    +0.054 C 
BRANCH  31  32
ATOM     32  C   UNL     1       7.349   1.163  -0.119  0.00  0.00    -0.046 A 
ATOM     33  C   UNL     1       7.972   0.837   1.071  0.00  0.00    +0.007 A 
ATOM     34  C   UNL     1       9.175   0.157   1.059  0.00  0.00    +0.045 A 
ATOM     35  C   UNL     1       9.763  -0.189  -0.149  0.00  0.00    +0.117 A 
ATOM     36  C   UNL     1       9.138   0.144  -1.342  0.00  0.00    +0.045 A 
ATOM     37  C   UNL     1       7.933   0.819  -1.325  0.00  0.00    +0.007 A 
BRANCH  35  38
ATOM     38  O   UNL     1      10.948  -0.854  -0.163  0.00  0.00    -0.507 OA
ATOM     39  H   UNL     1      11.723  -0.276  -0.178  0.00  0.00    +0.292 HD
ENDBRANCH  35  38
ENDBRANCH  31  32
ENDBRANCH  30  31
ENDBRANCH  28  30
ENDBRANCH  23  26
ENDBRANCH  21  22
ENDBRANCH   1  21
TORSDOF 11
