REMARK  Name = ZINC58715772
REMARK  7 active torsions:
REMARK  status: ('A' for Active; 'I' for Inactive)
REMARK    1  A    between atoms: C_3  and  C_13
REMARK    2  A    between atoms: C_13  and  N_14
REMARK    3  A    between atoms: N_17  and  C_18
REMARK    4  A    between atoms: C_18  and  C_19
REMARK    5  A    between atoms: C_19  and  C_20
REMARK    6  A    between atoms: C_23  and  S_26
REMARK    7  A    between atoms: S_26  and  N_29
REMARK                            x       y       z     vdW  Elec       q    Type
REMARK                         _______ _______ _______ _____ _____    ______ ____
ROOT
ATOM      1  N   UNL     1       4.195   2.450  -0.984  0.00  0.00    -0.295 N 
ATOM      2  C   UNL     1       5.334   3.164  -1.080  0.00  0.00    +0.300 C 
ATOM      3  O   UNL     1       5.809   3.687  -0.091  0.00  0.00    -0.253 OA
ATOM      4  N   UNL     1       5.947   3.297  -2.273  0.00  0.00    -0.299 N 
ATOM      5  H   UNL     1       3.816   2.033  -1.774  0.00  0.00    +0.151 HD
ATOM      6  H   UNL     1       5.569   2.879  -3.062  0.00  0.00    +0.150 HD
ENDROOT
BRANCH   1   7
ATOM      7  C   UNL     1       3.528   2.306   0.312  0.00  0.00    +0.144 C 
BRANCH   7  10
ATOM      8  C   UNL     1      -0.079   1.255  -0.041  0.00  0.00    +0.018 A 
ATOM      9  C   UNL     1       1.038   2.065   0.112  0.00  0.00    +0.010 A 
ATOM     10  C   UNL     1       2.286   1.469   0.148  0.00  0.00    +0.008 A 
ATOM     11  C   UNL     1       2.378   0.086   0.029  0.00  0.00    +0.104 A 
ATOM     12  N   UNL     1       1.288  -0.652  -0.117  0.00  0.00    -0.349 N 
ATOM     13  C   UNL     1       0.086  -0.111  -0.154  0.00  0.00    +0.084 A 
ATOM     14  N   UNL     1       3.625  -0.527   0.062  0.00  0.00    -0.312 N 
ATOM     15  C   UNL     1       4.234  -0.938   1.337  0.00  0.00    +0.134 C 
ATOM     16  C   UNL     1       4.680  -2.399   1.212  0.00  0.00    +0.178 C 
ATOM     17  O   UNL     1       5.492  -2.544   0.044  0.00  0.00    -0.377 OA
ATOM     18  C   UNL     1       4.815  -2.253  -1.180  0.00  0.00    +0.178 C 
ATOM     19  C   UNL     1       4.373  -0.789  -1.178  0.00  0.00    +0.134 C 
ATOM     20  H   UNL     1       1.376  -1.615  -0.198  0.00  0.00    +0.167 HD
ENDBRANCH   7  10
ENDBRANCH   1   7
BRANCH   4  21
ATOM     21  C   UNL     1       7.186   4.072  -2.377  0.00  0.00    +0.110 C 
BRANCH  21  22
ATOM     22  C   UNL     1       7.671   4.066  -3.828  0.00  0.00    +0.054 C 
BRANCH  22  23
ATOM     23  C   UNL     1       8.945   4.863  -3.935  0.00  0.00    -0.046 A 
ATOM     24  C   UNL     1       8.892   6.220  -4.196  0.00  0.00    +0.005 A 
ATOM     25  C   UNL     1      10.060   6.952  -4.295  0.00  0.00    +0.029 A 
ATOM     26  C   UNL     1      11.283   6.327  -4.131  0.00  0.00    +0.105 A 
ATOM     27  C   UNL     1      11.336   4.971  -3.869  0.00  0.00    +0.029 A 
ATOM     28  C   UNL     1      10.168   4.240  -3.767  0.00  0.00    +0.005 A 
BRANCH  26  29
ATOM     29  S   UNL     1      12.772   7.259  -4.258  0.00  0.00    +0.056 S 
ATOM     30  O   UNL     1      13.799   6.340  -4.606  0.00  0.00    -0.153 OA
ATOM     31  O   UNL     1      12.471   8.401  -5.049  0.00  0.00    -0.153 OA
BRANCH  29  32
ATOM     32  N   UNL     1      13.132   7.817  -2.741  0.00  0.00    -0.204 NA
ATOM     33  H   UNL     1      14.056   7.960  -2.482  0.00  0.00    +0.144 HD
ATOM     34  H   UNL     1      12.418   8.000  -2.110  0.00  0.00    +0.144 HD
ENDBRANCH  29  32
ENDBRANCH  26  29
ENDBRANCH  22  23
ENDBRANCH  21  22
ENDBRANCH   4  21
TORSDOF 7
