REMARK  Name = ZINC21450507
REMARK  11 active torsions:
REMARK  status: ('A' for Active; 'I' for Inactive)
REMARK    1  A    between atoms: C_1  and  C_2
REMARK    2  A    between atoms: C_2  and  C_3
REMARK    3  A    between atoms: C_3  and  N_4
REMARK    4  A    between atoms: C_5  and  O_29
REMARK    5  A    between atoms: C_8  and  S_9
REMARK    6  A    between atoms: S_9  and  C_10
REMARK    7  A    between atoms: C_10  and  C_12
REMARK    8  A    between atoms: C_10  and  C_13
REMARK    9  A    between atoms: N_15  and  C_16
REMARK   10  A    between atoms: C_19  and  N_26
REMARK   11  A    between atoms: C_21  and  C_22
REMARK                            x       y       z     vdW  Elec       q    Type
REMARK                         _______ _______ _______ _____ _____    ______ ____
ROOT
ATOM      1  C   UNL     1       2.428  -0.231   0.097  0.00  0.00    +0.230 C 
ATOM      2  O   UNL     1       1.388  -0.856   0.103  0.00  0.00    -0.274 OA
ATOM      3  N   UNL     1       2.405   1.114   0.008  0.00  0.00    -0.284 N 
ATOM      4  H   UNL     1       3.347   1.675  -0.072  0.00  0.00    +0.155 HD
ENDROOT
BRANCH   3   5
ATOM      5  C   UNL     1       1.183   1.795   0.018  0.00  0.00    +0.045 A 
ATOM      6  C   UNL     1       0.065   1.228  -0.580  0.00  0.00    +0.026 A 
ATOM      7  C   UNL     1      -1.138   1.905  -0.573  0.00  0.00    +0.034 A 
ATOM      8  C   UNL     1      -1.233   3.143   0.037  0.00  0.00    +0.127 A 
ATOM      9  C   UNL     1      -0.122   3.710   0.634  0.00  0.00    +0.047 A 
ATOM     10  C   UNL     1       1.086   3.040   0.626  0.00  0.00    +0.078 A 
BRANCH  10  11
ATOM     11  C   UNL     1       2.296   3.659   1.276  0.00  0.00    +0.419 C 
ATOM     12  F   UNL     1       1.951   4.903   1.815  0.00  0.00    -0.166 F 
ATOM     13  F   UNL     1       2.757   2.820   2.297  0.00  0.00    -0.166 F 
ATOM     14  F   UNL     1       3.304   3.827   0.321  0.00  0.00    -0.166 F 
ENDBRANCH  10  11
BRANCH   8  15
ATOM     15  N   UNL     1      -2.526   3.864   0.047  0.00  0.00    +0.056 N 
ATOM     16  O   UNL     1      -2.610   4.956   0.580  0.00  0.00    -0.126 OA
ATOM     17  O   UNL     1      -3.505   3.366  -0.479  0.00  0.00    -0.126 OA
ENDBRANCH   8  15
ENDBRANCH   3   5
BRANCH   1  18
ATOM     18  C   UNL     1       3.745  -0.958   0.189  0.00  0.00    +0.137 C 
ATOM     19  C   UNL     1       4.359  -1.078  -1.208  0.00  0.00    +0.029 C 
BRANCH  18  20
ATOM     20  S   UNL     1       3.474  -2.615   0.875  0.00  0.00    -0.073 S 
BRANCH  20  25
ATOM     21  N   UNL     1       5.416  -4.507   1.546  0.00  0.00    -0.272 N 
ATOM     22  C   UNL     1       6.775  -4.632   1.528  0.00  0.00    +0.317 A 
ATOM     23  N   UNL     1       7.279  -3.524   1.047  0.00  0.00    -0.091 NA
ATOM     24  N   UNL     1       6.217  -2.662   0.743  0.00  0.00    -0.119 NA
ATOM     25  C   UNL     1       5.099  -3.272   1.055  0.00  0.00    +0.195 A 
BRANCH  22  26
ATOM     26  O   UNL     1       7.481  -5.716   1.936  0.00  0.00    -0.479 OA
ATOM     27  H   UNL     1       8.579  -5.712   1.878  0.00  0.00    +0.295 HD
ENDBRANCH  22  26
BRANCH  21  28
ATOM     28  C   UNL     1       4.464  -5.519   2.010  0.00  0.00    +0.128 C 
BRANCH  28  30
ATOM     29  C   UNL     1       3.071  -7.476   1.323  0.00  0.00    +0.005 C 
ATOM     30  C   UNL     1       4.064  -6.419   0.839  0.00  0.00    +0.018 C 
ENDBRANCH  28  30
ENDBRANCH  21  28
ENDBRANCH  20  25
ENDBRANCH  18  20
ENDBRANCH   1  18
TORSDOF 9
