REMARK  Name = ZINC12977528
REMARK  10 active torsions:
REMARK  status: ('A' for Active; 'I' for Inactive)
REMARK    1  A    between atoms: C_1  and  C_2
REMARK    2  A    between atoms: C_2  and  O_3
REMARK    3  A    between atoms: O_3  and  C_4
REMARK    4  A    between atoms: C_4  and  C_6
REMARK    5  A    between atoms: C_7  and  N_18
REMARK    6  A    between atoms: C_9  and  C_11
REMARK    7  A    between atoms: C_19  and  C_21
REMARK    8  A    between atoms: C_21  and  N_22
REMARK    9  A    between atoms: N_25  and  S_28
REMARK   10  A    between atoms: S_28  and  N_31
REMARK                            x       y       z     vdW  Elec       q    Type
REMARK                         _______ _______ _______ _____ _____    ______ ____
ROOT
ATOM      1  C   UNL     1      -2.912  -2.503   0.592  0.00  0.00    +0.118 A 
ATOM      2  C   UNL     1      -3.174  -3.742   0.005  0.00  0.00    +0.055 A 
ATOM      3  C   UNL     1      -4.402  -3.940  -0.577  0.00  0.00    +0.040 A 
ATOM      4  C   UNL     1      -5.323  -2.908  -0.557  0.00  0.00    +0.022 A 
ATOM      5  S   UNL     1      -4.439  -1.623   0.312  0.00  0.00    -0.080 S 
ENDROOT
BRANCH   4   6
ATOM      6  C   UNL     1      -6.693  -2.878  -1.110  0.00  0.00    -0.011 A 
ATOM      7  C   UNL     1      -7.213  -4.003  -1.753  0.00  0.00    +0.010 A 
ATOM      8  C   UNL     1      -8.493  -3.969  -2.267  0.00  0.00    +0.020 A 
ATOM      9  C   UNL     1      -9.260  -2.823  -2.147  0.00  0.00    +0.041 A 
ATOM     10  C   UNL     1      -8.749  -1.704  -1.510  0.00  0.00    +0.020 A 
ATOM     11  C   UNL     1      -7.474  -1.728  -0.986  0.00  0.00    +0.010 A 
ATOM     12 CL   UNL     1     -10.869  -2.788  -2.798  0.00  0.00    -0.084 Cl
ENDBRANCH   4   6
BRANCH   2  13
ATOM     13  N   UNL     1      -2.213  -4.754   0.009  0.00  0.00    -0.283 N 
ATOM     14  C   UNL     1      -2.592  -6.043   0.113  0.00  0.00    +0.231 C 
ATOM     15  O   UNL     1      -3.770  -6.330   0.123  0.00  0.00    -0.274 OA
ATOM     16  H   UNL     1      -1.272  -4.529  -0.063  0.00  0.00    +0.155 HD
BRANCH  14  17
ATOM     17  C   UNL     1      -1.552  -7.128   0.217  0.00  0.00    +0.180 C 
BRANCH  17  18
ATOM     18  N   UNL     1      -2.215  -8.435   0.319  0.00  0.00    -0.291 NA
ATOM     19  C   UNL     1      -2.972  -8.544   1.574  0.00  0.00    +0.102 C 
ATOM     20  C   UNL     1      -3.791  -9.839   1.560  0.00  0.00    +0.126 C 
ATOM     21  N   UNL     1      -2.885 -10.963   1.281  0.00  0.00    -0.164 NA
ATOM     22  C   UNL     1      -1.994 -10.865   0.114  0.00  0.00    +0.126 C 
ATOM     23  C   UNL     1      -1.245  -9.530   0.184  0.00  0.00    +0.102 C 
BRANCH  21  24
ATOM     24  S   UNL     1      -2.868 -12.303   2.253  0.00  0.00    +0.095 S 
ATOM     25  O   UNL     1      -1.590 -12.905   2.093  0.00  0.00    -0.141 OA
ATOM     26  O   UNL     1      -3.363 -11.893   3.520  0.00  0.00    -0.141 OA
BRANCH  24  27
ATOM     27  N   UNL     1      -3.973 -13.370   1.635  0.00  0.00    -0.193 NA
ATOM     28  H   UNL     1      -4.480 -13.139   0.841  0.00  0.00    +0.145 HD
ATOM     29  H   UNL     1      -4.114 -14.227   2.067  0.00  0.00    +0.145 HD
ENDBRANCH  24  27
ENDBRANCH  21  24
ENDBRANCH  17  18
ENDBRANCH  14  17
ENDBRANCH   2  13
BRANCH   1  30
ATOM     30  C   UNL     1      -1.739  -2.061   1.246  0.00  0.00    +0.348 C 
ATOM     31  O   UNL     1      -0.781  -2.805   1.347  0.00  0.00    -0.244 OA
BRANCH  30  32
ATOM     32  O   UNL     1      -1.681  -0.813   1.759  0.00  0.00    -0.461 OA
BRANCH  32  34
ATOM     33  C   UNL     1      -0.588   1.003   2.919  0.00  0.00    +0.048 C 
ATOM     34  C   UNL     1      -0.466  -0.433   2.406  0.00  0.00    +0.229 C 
ENDBRANCH  32  34
ENDBRANCH  30  32
ENDBRANCH   1  30
TORSDOF 9
