REMARK  Name = ZINC64031691
REMARK  10 active torsions:
REMARK  status: ('A' for Active; 'I' for Inactive)
REMARK    1  A    between atoms: C_1  and  N_2
REMARK    2  A    between atoms: N_2  and  C_3
REMARK    3  A    between atoms: C_3  and  C_4
REMARK    4  A    between atoms: C_15  and  C_17
REMARK    5  A    between atoms: C_17  and  C_18
REMARK    6  A    between atoms: C_18  and  C_19
REMARK    7  A    between atoms: C_19  and  C_25
REMARK    8  A    between atoms: C_25  and  C_26
REMARK    9  A    between atoms: C_30  and  O_32
REMARK   10  A    between atoms: O_32  and  C_33
REMARK                            x       y       z     vdW  Elec       q    Type
REMARK                         _______ _______ _______ _____ _____    ______ ____
ROOT
ATOM      1  C   UNL     1      -0.023   0.089  -2.470  0.00  0.00    +0.098 C 
ENDROOT
BRANCH   1   4
ATOM      2  C   UNL     1      -0.018   1.461   0.010  0.00  0.00    +0.132 C 
ATOM      3  N   UNL     1       0.002  -0.004   0.002  0.00  0.00    -0.301 N 
ATOM      4  C   UNL     1       0.000  -0.672  -1.169  0.00  0.00    +0.216 C 
ATOM      5  O   UNL     1       0.017  -1.884  -1.175  0.00  0.00    -0.276 OA
BRANCH   3   6
ATOM      6  C   UNL     1       0.024  -0.743   1.267  0.00  0.00    +0.154 C 
BRANCH   6   7
ATOM      7  C   UNL     1      -1.411  -1.020   1.720  0.00  0.00    +0.192 C 
ATOM      8  N   UNL     1      -2.146   0.242   1.863  0.00  0.00    -0.362 N 
ATOM      9  C   UNL     1      -3.151   0.205   1.037  0.00  0.00    +0.060 A 
ATOM     10  C   UNL     1      -4.226   1.159   0.729  0.00  0.00    +0.030 A 
ATOM     11  C   UNL     1      -5.152   0.842  -0.197  0.00  0.00    +0.040 A 
ATOM     12  C   UNL     1      -5.138  -0.382  -0.895  0.00  0.00    +0.125 A 
ATOM     13  C   UNL     1      -4.194  -1.327  -0.688  0.00  0.00    +0.065 A 
ATOM     14  C   UNL     1      -3.135  -1.088   0.299  0.00  0.00    +0.063 A 
ATOM     15  N   UNL     1      -2.120  -1.802   0.700  0.00  0.00    -0.362 N 
ATOM     16  F   UNL     1      -6.105  -0.620  -1.808  0.00  0.00    -0.205 F 
ATOM     17  H   UNL     1      -1.925   0.971   2.464  0.00  0.00    +0.162 HD
ATOM     18  H   UNL     1      -1.878  -2.685   0.382  0.00  0.00    +0.162 HD
ENDBRANCH   6   7
ENDBRANCH   3   6
ENDBRANCH   1   4
BRANCH   1  19
ATOM     19  C   UNL     1      -0.020  -0.899  -3.638  0.00  0.00    +0.035 C 
BRANCH  19  20
ATOM     20  C   UNL     1      -0.043  -0.127  -4.959  0.00  0.00    +0.039 C 
ATOM     21  C   UNL     1       0.022  -1.106  -6.152  0.00  0.00    +0.035 C 
ATOM     22  C   UNL     1       1.541  -1.156  -6.436  0.00  0.00    +0.098 C 
ATOM     23  C   UNL     1       2.063   0.157  -5.896  0.00  0.00    +0.214 C 
ATOM     24  O   UNL     1       3.143   0.638  -6.164  0.00  0.00    -0.276 OA
ATOM     25  N   UNL     1       1.154   0.714  -5.077  0.00  0.00    -0.309 N 
ATOM     26  H   UNL     1       1.274   1.562  -4.622  0.00  0.00    +0.149 HD
BRANCH  20  27
ATOM     27  C   UNL     1      -1.305   0.734  -5.046  0.00  0.00    +0.061 C 
BRANCH  27  28
ATOM     28  C   UNL     1      -1.311   1.486  -6.352  0.00  0.00    -0.042 A 
ATOM     29  C   UNL     1      -0.725   2.736  -6.431  0.00  0.00    +0.007 A 
ATOM     30  C   UNL     1      -0.728   3.429  -7.627  0.00  0.00    +0.042 A 
ATOM     31  C   UNL     1      -1.318   2.873  -8.748  0.00  0.00    +0.165 A 
ATOM     32  C   UNL     1      -1.906   1.617  -8.670  0.00  0.00    +0.155 A 
ATOM     33  C   UNL     1      -1.896   0.923  -7.470  0.00  0.00    +0.052 A 
ATOM     34  F   UNL     1      -1.322   3.550  -9.917  0.00  0.00    -0.202 F 
BRANCH  32  35
ATOM     35  O   UNL     1      -2.486   1.067  -9.770  0.00  0.00    -0.492 OA
ATOM     36  C   UNL     1      -3.071  -0.227  -9.616  0.00  0.00    +0.277 C 
ENDBRANCH  32  35
ENDBRANCH  27  28
ENDBRANCH  20  27
ENDBRANCH  19  20
ENDBRANCH   1  19
TORSDOF 8
