REMARK  Name = ZINC09283825
REMARK  8 active torsions:
REMARK  status: ('A' for Active; 'I' for Inactive)
REMARK    1  A    between atoms: C_4  and  C_7
REMARK    2  A    between atoms: N_9  and  N_10
REMARK    3  A    between atoms: C_11  and  C_13
REMARK    4  A    between atoms: C_13  and  S_14
REMARK    5  A    between atoms: S_14  and  C_15
REMARK    6  A    between atoms: C_18  and  C_27
REMARK    7  A    between atoms: N_19  and  C_20
REMARK    8  A    between atoms: C_20  and  C_21
REMARK                            x       y       z     vdW  Elec       q    Type
REMARK                         _______ _______ _______ _____ _____    ______ ____
ROOT
ATOM      1  C   UNL     1       1.909  -4.242   0.010  0.00  0.00    +0.192 A 
ATOM      2  N   UNL     1       0.610  -4.183  -0.180  0.00  0.00    -0.122 NA
ATOM      3  N   UNL     1       0.216  -2.960  -0.164  0.00  0.00    -0.128 NA
ATOM      4  C   UNL     1       1.240  -2.163   0.039  0.00  0.00    +0.165 A 
ATOM      5  N   UNL     1       2.356  -2.959   0.151  0.00  0.00    -0.300 N 
ENDROOT
BRANCH   4   6
ATOM      6  C   UNL     1       1.201  -0.687   0.124  0.00  0.00    +0.019 A 
ATOM      7  C   UNL     1       0.112   0.016  -0.393  0.00  0.00    +0.013 A 
ATOM      8  C   UNL     1       0.081   1.393  -0.310  0.00  0.00    +0.021 A 
ATOM      9  C   UNL     1       1.128   2.077   0.284  0.00  0.00    +0.041 A 
ATOM     10  C   UNL     1       2.211   1.384   0.799  0.00  0.00    +0.021 A 
ATOM     11  C   UNL     1       2.253   0.008   0.722  0.00  0.00    +0.013 A 
ATOM     12 CL   UNL     1       1.082   3.809   0.384  0.00  0.00    -0.084 Cl
ENDBRANCH   4   6
BRANCH   1  13
ATOM     13  S   UNL     1       2.891  -5.704   0.067  0.00  0.00    -0.077 S 
BRANCH  13  14
ATOM     14  C   UNL     1       1.611  -6.954  -0.203  0.00  0.00    +0.174 C 
BRANCH  14  16
ATOM     15  N   UNL     1       1.470  -9.417  -0.377  0.00  0.00    -0.233 N 
ATOM     16  C   UNL     1       2.237  -8.325  -0.194  0.00  0.00    +0.239 C 
ATOM     17  O   UNL     1       3.432  -8.444  -0.023  0.00  0.00    -0.273 OA
ATOM     18  H   UNL     1       0.514  -9.322  -0.515  0.00  0.00    +0.173 HD
BRANCH  15  21
ATOM     19  C   UNL     1       1.285 -11.784  -0.552  0.00  0.00    +0.260 C 
ATOM     20  O   UNL     1       0.087 -11.665  -0.724  0.00  0.00    -0.269 OA
ATOM     21  N   UNL     1       2.052 -10.692  -0.369  0.00  0.00    -0.230 N 
ATOM     22  H   UNL     1       3.008 -10.787  -0.232  0.00  0.00    +0.173 HD
BRANCH  19  26
ATOM     23  C   UNL     1       3.050 -15.648  -0.528  0.00  0.00    +0.000 A 
ATOM     24  C   UNL     1       1.687 -15.515  -0.724  0.00  0.00    +0.001 A 
ATOM     25  C   UNL     1       1.107 -14.263  -0.733  0.00  0.00    +0.013 A 
ATOM     26  C   UNL     1       1.899 -13.129  -0.544  0.00  0.00    +0.038 A 
ATOM     27  C   UNL     1       3.275 -13.270  -0.352  0.00  0.00    +0.013 A 
ATOM     28  C   UNL     1       3.841 -14.528  -0.340  0.00  0.00    +0.001 A 
ENDBRANCH  19  26
ENDBRANCH  15  21
ENDBRANCH  14  16
ENDBRANCH  13  14
ENDBRANCH   1  13
BRANCH   5  29
ATOM     29  C   UNL     1       3.736  -2.523   0.377  0.00  0.00    +0.157 C 
BRANCH  29  30
ATOM     30  C   UNL     1       4.025  -2.502   1.879  0.00  0.00    +0.138 C 
ATOM     31  C   UNL     1       5.438  -1.934   2.133  0.00  0.00    +0.035 C 
ATOM     32  C   UNL     1       5.953  -2.836   3.288  0.00  0.00    +0.031 C 
ATOM     33  C   UNL     1       5.284  -4.186   2.927  0.00  0.00    +0.160 C 
ATOM     34  O   UNL     1       3.995  -3.837   2.398  0.00  0.00    -0.375 OA
ENDBRANCH  29  30
ENDBRANCH   5  29
TORSDOF 8
