REMARK  Name = ZINC20071788
REMARK  6 active torsions:
REMARK  status: ('A' for Active; 'I' for Inactive)
REMARK    1  A    between atoms: C_3  and  C_8
REMARK    2  A    between atoms: C_12  and  C_23
REMARK    3  A    between atoms: C_13  and  O_22
REMARK    4  A    between atoms: C_17  and  N_21
REMARK    5  A    between atoms: C_18  and  C_19
REMARK    6  A    between atoms: N_24  and  C_25
REMARK                            x       y       z     vdW  Elec       q    Type
REMARK                         _______ _______ _______ _____ _____    ______ ____
ROOT
ATOM      1  C   UNL     1      -1.325   2.133   0.032  0.00  0.00    +0.098 C 
ATOM      2  C   UNL     1      -0.017   1.386   0.010  0.00  0.00    +0.008 A 
ATOM      3  C   UNL     1       1.165   2.095   0.002  0.00  0.00    +0.021 A 
ATOM      4  C   UNL     1       2.389   1.419  -0.012  0.00  0.00    +0.035 A 
ATOM      5  C   UNL     1       2.406   0.014  -0.020  0.00  0.00    +0.129 A 
ATOM      6  C   UNL     1       1.214  -0.685  -0.013  0.00  0.00    +0.092 A 
ATOM      7  C   UNL     1       0.002  -0.004   0.002  0.00  0.00    +0.138 A 
ATOM      8  O   UNL     1      -1.153  -0.713   0.009  0.00  0.00    -0.441 OA
ATOM      9  C   UNL     1      -2.303  -0.125  -0.360  0.00  0.00    +0.199 C 
ATOM     10  C   UNL     1      -2.450   1.220  -0.373  0.00  0.00    +0.098 C 
ENDROOT
BRANCH   1  13
ATOM     11  C   UNL     1      -1.937   4.504   2.906  0.00  0.00    +0.001 A 
ATOM     12  C   UNL     1      -1.708   4.020   1.631  0.00  0.00    +0.004 A 
ATOM     13  C   UNL     1      -1.574   2.660   1.422  0.00  0.00    -0.034 A 
ATOM     14  C   UNL     1      -1.675   1.783   2.486  0.00  0.00    +0.019 A 
ATOM     15  C   UNL     1      -1.898   2.268   3.762  0.00  0.00    +0.014 A 
ATOM     16  C   UNL     1      -2.032   3.628   3.971  0.00  0.00    +0.014 A 
ATOM     17  I   UNL     1      -2.042   0.940   5.376  0.00  0.00    -0.044 I 
ENDBRANCH   1  13
BRANCH   9  18
ATOM     18  N   UNL     1      -3.362  -0.914  -0.735  0.00  0.00    -0.328 N 
ATOM     19  H   UNL     1      -4.312  -0.450  -1.040  0.00  0.00    +0.145 HD
ATOM     20  H   UNL     1      -3.262  -2.009  -0.730  0.00  0.00    +0.145 HD
ENDBRANCH   9  18
BRANCH  10  21
ATOM     21  C   UNL     1      -3.701   1.786  -0.777  0.00  0.00    +0.101 C 
ATOM     22  N   UNL     1      -4.695   2.235  -1.098  0.00  0.00    -0.191 NA
ENDBRANCH  10  21
BRANCH   5  23
ATOM     23  O   UNL     1       3.588  -0.653  -0.034  0.00  0.00    -0.506 OA
ATOM     24  H   UNL     1       3.599  -1.753  -0.040  0.00  0.00    +0.292 HD
ENDBRANCH   5  23
BRANCH   4  25
ATOM     25  C   UNL     1       3.649   2.173  -0.019  0.00  0.00    +0.123 C 
ATOM     26  N   UNL     1       4.789   1.539  -0.032  0.00  0.00    -0.255 NA
BRANCH  26  27
ATOM     27  C   UNL     1       5.964   2.242  -0.038  0.00  0.00    +0.067 A 
ATOM     28  C   UNL     1       7.011   1.865   0.805  0.00  0.00    +0.028 A 
ATOM     29  C   UNL     1       8.193   2.577   0.795  0.00  0.00    +0.005 A 
ATOM     30  C   UNL     1       8.342   3.663  -0.049  0.00  0.00    +0.038 A 
ATOM     31  C   UNL     1       7.308   4.044  -0.889  0.00  0.00    +0.125 A 
ATOM     32  C   UNL     1       6.122   3.335  -0.892  0.00  0.00    +0.066 A 
ATOM     33  F   UNL     1       7.462   5.106  -1.709  0.00  0.00    -0.205 F 
ENDBRANCH  26  27
ENDBRANCH   4  25
TORSDOF 6
