REMARK  Name = ZINC07737772
REMARK  10 active torsions:
REMARK  status: ('A' for Active; 'I' for Inactive)
REMARK    1  A    between atoms: C_1  and  C_2
REMARK    2  A    between atoms: C_5  and  O_28
REMARK    3  A    between atoms: C_10  and  C_11
REMARK    4  A    between atoms: C_11  and  O_13
REMARK    5  A    between atoms: O_13  and  C_14
REMARK    6  A    between atoms: C_14  and  C_16
REMARK    7  A    between atoms: C_14  and  C_17
REMARK    8  A    between atoms: N_19  and  C_20
REMARK    9  A    between atoms: C_20  and  C_26
REMARK   10  A    between atoms: O_28  and  C_29
REMARK                            x       y       z     vdW  Elec       q    Type
REMARK                         _______ _______ _______ _____ _____    ______ ____
ROOT
ATOM      1  O   UNL     1       0.054  -1.293   3.478  0.00  0.00    -0.447 OA
ENDROOT
BRANCH   1   2
ATOM      2  C   UNL     1       0.032  -0.383   2.483  0.00  0.00    +0.376 C 
ATOM      3  O   UNL     1       0.019   0.804   2.744  0.00  0.00    -0.241 OA
BRANCH   2  13
ATOM      4  C   UNL     1      -0.018   1.503   0.010  0.00  0.00    +0.048 C 
ATOM      5  C   UNL     1       0.002  -0.004   0.002  0.00  0.00    +0.010 A 
ATOM      6  C   UNL     1       0.009  -0.877  -1.171  0.00  0.00    +0.027 A 
ATOM      7  C   UNL     1      -0.001  -0.652  -2.550  0.00  0.00    +0.057 A 
ATOM      8  C   UNL     1       0.009  -1.727  -3.416  0.00  0.00    +0.121 A 
ATOM      9  C   UNL     1       0.029  -3.028  -2.916  0.00  0.00    +0.049 A 
ATOM     10  C   UNL     1       0.039  -3.260  -1.559  0.00  0.00    +0.050 A 
ATOM     11  C   UNL     1       0.029  -2.191  -0.670  0.00  0.00    +0.136 A 
ATOM     12  O   UNL     1       0.035  -2.114   0.676  0.00  0.00    -0.448 OA
ATOM     13  C   UNL     1       0.024  -0.827   1.083  0.00  0.00    +0.216 A 
BRANCH   8  14
ATOM     14  O   UNL     1      -0.000  -1.517  -4.759  0.00  0.00    -0.495 OA
ATOM     15  C   UNL     1       0.012  -2.674  -5.597  0.00  0.00    +0.277 C 
ENDBRANCH   8  14
ENDBRANCH   2  13
ENDBRANCH   1   2
BRANCH   1  16
ATOM     16  C   UNL     1       0.061  -0.790   4.816  0.00  0.00    +0.259 C 
ATOM     17  C   UNL     1       1.506  -0.592   5.279  0.00  0.00    +0.062 C 
BRANCH  16  18
ATOM     18  C   UNL     1      -0.627  -1.775   5.726  0.00  0.00    +0.255 C 
ATOM     19  O   UNL     1      -0.998  -2.845   5.292  0.00  0.00    -0.272 OA
ATOM     20  N   UNL     1      -0.830  -1.466   7.022  0.00  0.00    -0.294 N 
ATOM     21  H   UNL     1      -0.533  -0.611   7.369  0.00  0.00    +0.150 HD
BRANCH  20  22
ATOM     22  C   UNL     1      -1.499  -2.423   7.907  0.00  0.00    +0.121 C 
ATOM     23  C   UNL     1      -2.902  -2.717   7.372  0.00  0.00    +0.041 C 
ATOM     24  C   UNL     1      -3.601  -3.717   8.296  0.00  0.00    +0.003 C 
ATOM     25  C   UNL     1      -3.704  -3.124   9.703  0.00  0.00    +0.000 C 
ATOM     26  C   UNL     1      -2.301  -2.831  10.238  0.00  0.00    +0.003 C 
ATOM     27  C   UNL     1      -1.603  -1.831   9.314  0.00  0.00    +0.041 C 
BRANCH  22  28
ATOM     28  C   UNL     1      -0.722  -3.672   7.956  0.00  0.00    +0.088 C 
ATOM     29  N   UNL     1      -0.121  -4.636   7.994  0.00  0.00    -0.194 NA
ENDBRANCH  22  28
ENDBRANCH  20  22
ENDBRANCH  16  18
ENDBRANCH   1  16
TORSDOF 7
