REMARK  Name = ZINC56767568
REMARK  5 active torsions:
REMARK  status: ('A' for Active; 'I' for Inactive)
REMARK    1  A    between atoms: C_4  and  C_7
REMARK    2  A    between atoms: C_7  and  C_9
REMARK    3  A    between atoms: C_7  and  O_30
REMARK    4  A    between atoms: N_17  and  C_18
REMARK    5  A    between atoms: C_21  and  N_24
REMARK                            x       y       z     vdW  Elec       q    Type
REMARK                         _______ _______ _______ _____ _____    ______ ____
ROOT
ATOM      1  C   UNL     1       4.505  -1.269  -0.989  0.00  0.00    +0.025 C 
ATOM      2  C   UNL     1       3.536  -2.451  -1.070  0.00  0.00    +0.025 C 
ATOM      3  C   UNL     1       3.375  -2.876  -2.533  0.00  0.00    +0.109 C 
ATOM      4  N   UNL     1       4.705  -3.147  -3.095  0.00  0.00    -0.285 N 
ATOM      5  C   UNL     1       5.741  -2.110  -2.990  0.00  0.00    +0.109 C 
ATOM      6  C   UNL     1       5.875  -1.694  -1.522  0.00  0.00    +0.025 C 
ATOM      7  C   UNL     1       4.970  -4.324  -3.695  0.00  0.00    +0.306 C 
ATOM      8  O   UNL     1       4.137  -5.210  -3.692  0.00  0.00    -0.252 OA
ATOM      9  N   UNL     1       6.159  -4.520  -4.299  0.00  0.00    -0.269 N 
ATOM     10  H   UNL     1       6.852  -3.844  -4.237  0.00  0.00    +0.156 HD
ENDROOT
BRANCH   9  11
ATOM     11  C   UNL     1       6.394  -5.700  -5.018  0.00  0.00    +0.035 A 
ATOM     12  C   UNL     1       5.353  -6.316  -5.701  0.00  0.00    +0.025 A 
ATOM     13  C   UNL     1       5.585  -7.478  -6.410  0.00  0.00    +0.025 A 
ATOM     14  C   UNL     1       6.858  -8.030  -6.439  0.00  0.00    +0.040 A 
ATOM     15  C   UNL     1       7.899  -7.415  -5.756  0.00  0.00    +0.025 A 
ATOM     16  C   UNL     1       7.668  -6.250  -5.053  0.00  0.00    +0.025 A 
BRANCH  14  17
ATOM     17  N   UNL     1       7.093  -9.210  -7.159  0.00  0.00    -0.234 N 
ATOM     18  C   UNL     1       8.385  -9.915  -7.277  0.00  0.00    +0.158 C 
ATOM     19  C   UNL     1       7.956 -11.292  -7.836  0.00  0.00    +0.253 C 
ATOM     20  O   UNL     1       6.704 -10.979  -8.478  0.00  0.00    -0.448 OA
ATOM     21  C   UNL     1       6.180  -9.907  -7.861  0.00  0.00    +0.407 C 
ATOM     22  O   UNL     1       5.007  -9.597  -7.932  0.00  0.00    -0.226 OA
ENDBRANCH  14  17
ENDBRANCH   9  11
BRANCH   1  23
ATOM     23  C   UNL     1       4.641  -0.820   0.467  0.00  0.00    +0.148 C 
BRANCH  23  27
ATOM     24  C   UNL     1       0.815   0.365   1.953  0.00  0.00    +0.000 A 
ATOM     25  C   UNL     1       1.682   1.313   1.442  0.00  0.00    +0.000 A 
ATOM     26  C   UNL     1       2.920   0.929   0.961  0.00  0.00    +0.006 A 
ATOM     27  C   UNL     1       3.291  -0.402   0.992  0.00  0.00    -0.019 A 
ATOM     28  C   UNL     1       2.425  -1.350   1.504  0.00  0.00    +0.006 A 
ATOM     29  C   UNL     1       1.186  -0.966   1.983  0.00  0.00    +0.000 A 
ENDBRANCH  23  27
BRANCH  23  30
ATOM     30  O   UNL     1       5.144  -1.901   1.254  0.00  0.00    -0.387 OA
ATOM     31  H   UNL     1       4.580  -2.687   1.250  0.00  0.00    +0.210 HD
ENDBRANCH  23  30
ENDBRANCH   1  23
TORSDOF 5
