REMARK  Name = ZINC65216041
REMARK  4 active torsions:
REMARK  status: ('A' for Active; 'I' for Inactive)
REMARK    1  A    between atoms: C_1  and  C_2
REMARK    2  A    between atoms: C_12  and  C_15
REMARK    3  A    between atoms: C_17  and  C_20
REMARK    4  A    between atoms: C_20  and  N_21
REMARK                            x       y       z     vdW  Elec       q    Type
REMARK                         _______ _______ _______ _____ _____    ______ ____
ROOT
ATOM      1  C   UNL     1       5.179  -5.220   1.737  0.00  0.00    +0.203 A 
ATOM      2  N   UNL     1       5.143  -6.558   1.870  0.00  0.00    -0.193 NA
ATOM      3  C   UNL     1       6.354  -7.030   1.949  0.00  0.00    +0.211 A 
ATOM      4  O   UNL     1       7.216  -6.008   1.870  0.00  0.00    -0.340 OA
ATOM      5  N   UNL     1       6.431  -4.833   1.727  0.00  0.00    -0.056 NA
ENDROOT
BRANCH   1  16
ATOM      6  C   UNL     1      -0.009   1.547   0.065  0.00  0.00    +0.009 C 
ATOM      7  C   UNL     1       0.014   0.018   0.030  0.00  0.00    +0.003 C 
ATOM      8  C   UNL     1      -1.420  -0.515   0.015  0.00  0.00    +0.006 C 
ATOM      9  C   UNL     1      -1.398  -2.044  -0.054  0.00  0.00    +0.019 C 
ATOM     10  C   UNL     1      -0.690  -2.596   1.187  0.00  0.00    +0.106 C 
ATOM     11  N   UNL     1       0.639  -1.977   1.288  0.00  0.00    -0.316 N 
ATOM     12  C   UNL     1       0.739  -0.511   1.271  0.00  0.00    +0.109 C 
ATOM     13  C   UNL     1       1.779  -2.762   1.398  0.00  0.00    +0.099 A 
ATOM     14  C   UNL     1       3.034  -2.160   1.367  0.00  0.00    +0.042 A 
ATOM     15  C   UNL     1       4.162  -2.947   1.476  0.00  0.00    +0.016 A 
ATOM     16  C   UNL     1       3.998  -4.331   1.616  0.00  0.00    +0.038 A 
ATOM     17  C   UNL     1       2.711  -4.860   1.639  0.00  0.00    +0.095 A 
ATOM     18  N   UNL     1       1.658  -4.074   1.537  0.00  0.00    -0.349 N 
ATOM     19  H   UNL     1       0.771  -4.467   1.560  0.00  0.00    +0.167 HD
ENDBRANCH   1  16
BRANCH   3  20
ATOM     20  C   UNL     1       6.725  -8.483   2.105  0.00  0.00    +0.022 C 
BRANCH  20  21
ATOM     21  N   UNL     1       6.882  -9.093   0.777  0.00  0.00    +0.386 N 
ATOM     22  C   UNL     1       8.013  -8.466   0.084  0.00  0.00    -0.073 C 
ATOM     23  C   UNL     1       8.128  -9.037  -1.332  0.00  0.00    +0.046 C 
ATOM     24  C   UNL     1       8.345 -10.550  -1.248  0.00  0.00    +0.167 C 
ATOM     25  C   UNL     1       7.203 -11.187  -0.453  0.00  0.00    +0.046 C 
ATOM     26  C   UNL     1       7.124 -10.533   0.928  0.00  0.00    -0.073 C 
ATOM     27  O   UNL     1       8.375 -11.104  -2.573  0.00  0.00    -0.346 OA
ATOM     28  C   UNL     1       9.781 -11.180  -2.910  0.00  0.00    +0.191 C 
ATOM     29  C   UNL     1      10.414 -11.545  -1.544  0.00  0.00    +0.191 C 
ATOM     30  O   UNL     1       9.594 -10.823  -0.602  0.00  0.00    -0.346 OA
ATOM     31  H   UNL     1       6.039  -8.949   0.241  0.00  0.00    -0.081 HD
ENDBRANCH  20  21
ENDBRANCH   3  20
TORSDOF 3
