REMARK  Name = ZINC64392538
REMARK  7 active torsions:
REMARK  status: ('A' for Active; 'I' for Inactive)
REMARK    1  A    between atoms: C_1  and  C_2
REMARK    2  A    between atoms: C_2  and  C_3
REMARK    3  A    between atoms: C_3  and  C_4
REMARK    4  A    between atoms: C_4  and  C_5
REMARK    5  A    between atoms: C_5  and  N_6
REMARK    6  A    between atoms: C_12  and  C_19
REMARK    7  A    between atoms: C_22  and  C_26
REMARK                            x       y       z     vdW  Elec       q    Type
REMARK                         _______ _______ _______ _____ _____    ______ ____
ROOT
ATOM      1  N   UNL     1      -2.700  -4.056   0.000  0.00  0.00    -0.261 N 
ATOM      2  C   UNL     1      -2.823  -4.714  -1.173  0.00  0.00    +0.264 A 
ATOM      3  O   UNL     1      -2.943  -4.106  -2.219  0.00  0.00    -0.267 OA
ATOM      4  C   UNL     1      -2.806  -6.187  -1.153  0.00  0.00    +0.063 A 
ATOM      5  C   UNL     1      -2.927  -6.937  -2.321  0.00  0.00    +0.016 A 
ATOM      6  C   UNL     1      -2.905  -8.314  -2.249  0.00  0.00    +0.008 A 
ATOM      7  C   UNL     1      -2.765  -8.951  -1.025  0.00  0.00    -0.000 A 
ATOM      8  C   UNL     1      -2.644  -8.220   0.139  0.00  0.00    +0.034 A 
ATOM      9  C   UNL     1      -2.663  -6.834   0.086  0.00  0.00    +0.056 A 
ATOM     10  N   UNL     1      -2.545  -6.061   1.233  0.00  0.00    -0.307 N 
ATOM     11  H   UNL     1      -2.445  -6.494   2.095  0.00  0.00    +0.170 HD
ATOM     12  C   UNL     1      -2.561  -4.720   1.159  0.00  0.00    +0.330 A 
ATOM     13  O   UNL     1      -2.449  -4.079   2.186  0.00  0.00    -0.246 OA
ENDROOT
BRANCH   7  14
ATOM     14  C   UNL     1      -2.744 -10.457  -0.966  0.00  0.00    +0.242 C 
ATOM     15  N   UNL     1      -3.767 -10.937  -0.010  0.00  0.00    -0.265 NA
ATOM     16  C   UNL     1      -3.122 -12.102   0.654  0.00  0.00    +0.180 C 
ATOM     17  N   UNL     1      -1.706 -11.661   0.757  0.00  0.00    -0.177 NA
ATOM     18  O   UNL     1      -1.467 -10.909  -0.491  0.00  0.00    -0.274 OA
ATOM     19  H   UNL     1      -3.999 -10.221   0.661  0.00  0.00    +0.127 HD
ATOM     20  H   UNL     1      -1.567 -11.075   1.566  0.00  0.00    +0.156 HD
BRANCH  16  21
ATOM     21  C   UNL     1      -3.716 -12.337   2.019  0.00  0.00    -0.014 A 
ATOM     22  C   UNL     1      -5.036 -12.007   2.265  0.00  0.00    +0.007 A 
ATOM     23  C   UNL     1      -5.581 -12.223   3.516  0.00  0.00    +0.015 A 
ATOM     24  C   UNL     1      -4.806 -12.770   4.523  0.00  0.00    +0.018 A 
ATOM     25  C   UNL     1      -3.485 -13.099   4.277  0.00  0.00    +0.015 A 
ATOM     26  C   UNL     1      -2.942 -12.888   3.024  0.00  0.00    +0.007 A 
ATOM     27 BR   UNL     1      -5.551 -13.065   6.236  0.00  0.00    -0.050 Br
ENDBRANCH  16  21
ENDBRANCH   7  14
BRANCH   1  28
ATOM     28  C   UNL     1      -2.713  -2.591   0.008  0.00  0.00    +0.130 C 
BRANCH  28  29
ATOM     29  C   UNL     1      -1.284  -2.068  -0.154  0.00  0.00    +0.022 C 
BRANCH  29  30
ATOM     30  C   UNL     1      -1.298  -0.538  -0.146  0.00  0.00    +0.001 C 
BRANCH  30  32
ATOM     31  C   UNL     1       0.117   1.515  -0.300  0.00  0.00    +0.004 C 
ATOM     32  C   UNL     1       0.131  -0.015  -0.308  0.00  0.00    -0.003 C 
ENDBRANCH  30  32
ENDBRANCH  29  30
ENDBRANCH  28  29
ENDBRANCH   1  28
TORSDOF 6
