REMARK  Name = ZINC24495139
REMARK  15 active torsions:
REMARK  status: ('A' for Active; 'I' for Inactive)
REMARK    1  A    between atoms: C_1  and  C_2
REMARK    2  A    between atoms: C_3  and  S_8
REMARK    3  A    between atoms: C_4  and  C_7
REMARK    4  A    between atoms: S_8  and  N_11
REMARK    5  A    between atoms: N_11  and  C_12
REMARK    6  A    between atoms: C_12  and  C_14
REMARK    7  A    between atoms: C_12  and  C_15
REMARK    8  A    between atoms: N_17  and  C_18
REMARK    9  A    between atoms: C_18  and  C_19
REMARK   10  A    between atoms: C_19  and  N_26
REMARK   11  A    between atoms: C_27  and  O_29
REMARK   12  A    between atoms: O_29  and  C_30
REMARK   13  A    between atoms: C_30  and  C_31
REMARK   14  A    between atoms: C_30  and  C_32
REMARK   15  A    between atoms: C_30  and  C_33
REMARK                            x       y       z     vdW  Elec       q    Type
REMARK                         _______ _______ _______ _____ _____    ______ ____
ROOT
ATOM      1  C   UNL     1       4.223  -1.200  -2.795  0.00  0.00    +0.231 C 
ATOM      2  O   UNL     1       4.504  -0.209  -2.153  0.00  0.00    -0.274 OA
ATOM      3  N   UNL     1       5.170  -2.120  -3.064  0.00  0.00    -0.312 N 
ATOM      4  H   UNL     1       4.965  -2.872  -3.641  0.00  0.00    +0.149 HD
ENDROOT
BRANCH   1   5
ATOM      5  C   UNL     1       2.814  -1.401  -3.291  0.00  0.00    +0.159 C 
ATOM      6  C   UNL     1       2.731  -1.002  -4.766  0.00  0.00    +0.035 C 
BRANCH   5   7
ATOM      7  N   UNL     1       1.897  -0.570  -2.507  0.00  0.00    -0.178 NA
ATOM      8  H   UNL     1       2.182   0.302  -2.191  0.00  0.00    +0.149 HD
BRANCH   7   9
ATOM      9  S   UNL     1       0.373  -1.118  -2.161  0.00  0.00    +0.064 S 
ATOM     10  O   UNL     1      -0.179  -1.583  -3.385  0.00  0.00    -0.153 OA
ATOM     11  O   UNL     1      -0.252  -0.112  -1.377  0.00  0.00    -0.153 OA
BRANCH   9  14
ATOM     12  C   UNL     1       0.513  -1.296   1.163  0.00  0.00    +0.071 C 
ATOM     13  C   UNL     1       0.602  -2.518   0.285  0.00  0.00    +0.107 A 
ATOM     14  C   UNL     1       0.552  -2.529  -1.121  0.00  0.00    +0.169 A 
ATOM     15  C   UNL     1       0.663  -3.807  -1.533  0.00  0.00    +0.161 A 
ATOM     16  O   UNL     1       0.780  -4.585  -0.447  0.00  0.00    -0.358 OA
ATOM     17  N   UNL     1       0.744  -3.746   0.694  0.00  0.00    -0.081 NA
ATOM     18  C   UNL     1       0.657  -4.279  -2.964  0.00  0.00    +0.091 C 
ENDBRANCH   9  14
ENDBRANCH   7   9
ENDBRANCH   5   7
ENDBRANCH   1   5
BRANCH   3  19
ATOM     19  C   UNL     1       6.509  -1.983  -2.486  0.00  0.00    +0.130 C 
BRANCH  19  20
ATOM     20  C   UNL     1       7.351  -3.206  -2.855  0.00  0.00    +0.053 C 
ATOM     21  C   UNL     1       6.655  -4.473  -2.317  0.00  0.00    +0.027 C 
ATOM     22  C   UNL     1       7.166  -5.662  -3.085  0.00  0.00    +0.002 C 
ATOM     23  C   UNL     1       8.345  -6.357  -2.377  0.00  0.00    +0.000 C 
ATOM     24  C   UNL     1       9.355  -5.359  -1.778  0.00  0.00    +0.000 C 
ATOM     25  C   UNL     1       9.631  -4.199  -2.695  0.00  0.00    +0.002 C 
ATOM     26  C   UNL     1       8.691  -3.037  -2.312  0.00  0.00    +0.027 C 
BRANCH  20  27
ATOM     27  N   UNL     1       7.439  -3.298  -4.314  0.00  0.00    -0.274 N 
ATOM     28  C   UNL     1       8.050  -2.324  -5.016  0.00  0.00    +0.401 C 
ATOM     29  O   UNL     1       8.601  -1.410  -4.434  0.00  0.00    -0.226 OA
ATOM     30  H   UNL     1       7.056  -4.061  -4.776  0.00  0.00    +0.153 HD
BRANCH  28  31
ATOM     31  O   UNL     1       8.051  -2.362  -6.362  0.00  0.00    -0.445 OA
BRANCH  31  32
ATOM     32  C   UNL     1       8.815  -1.362  -7.039  0.00  0.00    +0.107 C 
ATOM     33  C   UNL     1      10.280  -1.460  -6.608  0.00  0.00    +0.055 C 
ATOM     34  C   UNL     1       8.712  -1.577  -8.550  0.00  0.00    +0.055 C 
ATOM     35  C   UNL     1       8.271   0.023  -6.683  0.00  0.00    +0.055 C 
ENDBRANCH  31  32
ENDBRANCH  28  31
ENDBRANCH  20  27
ENDBRANCH  19  20
ENDBRANCH   3  19
TORSDOF 9
