REMARK  Name = ZINC37293452
REMARK  6 active torsions:
REMARK  status: ('A' for Active; 'I' for Inactive)
REMARK    1  A    between atoms: C_1  and  C_2
REMARK    2  A    between atoms: C_5  and  C_19
REMARK    3  A    between atoms: C_7  and  N_8
REMARK    4  A    between atoms: N_8  and  C_9
REMARK    5  A    between atoms: C_15  and  O_17
REMARK    6  A    between atoms: O_17  and  C_18
REMARK                            x       y       z     vdW  Elec       q    Type
REMARK                         _______ _______ _______ _____ _____    ______ ____
ROOT
ATOM      1  C   UNL     1      -0.018   1.503   0.010  0.00  0.00    +0.045 C 
ATOM      2  C   UNL     1       0.002  -0.004   0.002  0.00  0.00    -0.030 A 
ATOM      3  C   UNL     1       0.006  -0.686  -1.200  0.00  0.00    +0.006 A 
ATOM      4  C   UNL     1       0.025  -2.066  -1.216  0.00  0.00    +0.013 A 
ATOM      5  C   UNL     1       0.040  -2.778  -0.015  0.00  0.00    +0.040 A 
ATOM      6  C   UNL     1       0.036  -2.090   1.198  0.00  0.00    +0.036 A 
ATOM      7  C   UNL     1       0.023  -0.703   1.203  0.00  0.00    +0.031 A 
ENDROOT
BRANCH   5   8
ATOM      8  C   UNL     1       0.060  -4.256  -0.029  0.00  0.00    +0.248 A 
ATOM      9  N   UNL     1       0.070  -5.044   1.020  0.00  0.00    -0.108 NA
ATOM     10  N   UNL     1       0.086  -6.270   0.629  0.00  0.00    -0.116 NA
ATOM     11  C   UNL     1       0.087  -6.312  -0.674  0.00  0.00    +0.332 A 
ATOM     12  O   UNL     1       0.065  -5.045  -1.122  0.00  0.00    -0.423 OA
ENDBRANCH   5   8
BRANCH   7  13
ATOM     13  N   UNL     1       0.025  -0.009   2.416  0.00  0.00    -0.338 N 
ATOM     14  H   UNL     1       0.011   0.961   2.419  0.00  0.00    +0.146 HD
BRANCH  13  15
ATOM     15  C   UNL     1       0.046  -0.746   3.681  0.00  0.00    +0.099 C 
ATOM     16  C   UNL     1      -1.382  -1.131   4.072  0.00  0.00    +0.025 C 
ATOM     17  C   UNL     1      -2.225   0.135   4.234  0.00  0.00    +0.002 C 
ATOM     18  C   UNL     1      -1.618   1.017   5.327  0.00  0.00    +0.003 C 
ATOM     19  C   UNL     1      -0.190   1.402   4.936  0.00  0.00    +0.033 C 
ATOM     20  C   UNL     1       0.654   0.136   4.774  0.00  0.00    +0.138 C 
BRANCH  20  21
ATOM     21  O   UNL     1       1.988   0.496   4.409  0.00  0.00    -0.378 OA
ATOM     22  C   UNL     1       2.860   0.701   5.523  0.00  0.00    +0.194 C 
ENDBRANCH  20  21
ENDBRANCH  13  15
ENDBRANCH   7  13
TORSDOF 4
