REMARK  Name = ZINC63674160
REMARK  8 active torsions:
REMARK  status: ('A' for Active; 'I' for Inactive)
REMARK    1  A    between atoms: C_1  and  N_2
REMARK    2  A    between atoms: C_7  and  C_17
REMARK    3  A    between atoms: C_17  and  C_18
REMARK    4  A    between atoms: C_18  and  C_19
REMARK    5  A    between atoms: C_19  and  C_20
REMARK    6  A    between atoms: N_22  and  C_23
REMARK    7  A    between atoms: C_23  and  C_24
REMARK    8  A    between atoms: C_24  and  C_25
REMARK                            x       y       z     vdW  Elec       q    Type
REMARK                         _______ _______ _______ _____ _____    ______ ____
ROOT
ATOM      1  C   UNL     1      -3.114  -2.948  -3.805  0.00  0.00    +0.012 C 
ENDROOT
BRANCH   1   2
ATOM      2  C   UNL     1      -1.908  -2.937  -2.864  0.00  0.00    +0.040 C 
BRANCH   2   8
ATOM      3  C   UNL     1      -0.018   1.461   0.010  0.00  0.00    +0.135 C 
ATOM      4  N   UNL     1       0.002  -0.004   0.002  0.00  0.00    -0.268 N 
ATOM      5  C   UNL     1      -1.256  -0.742   0.004  0.00  0.00    +0.252 C 
ATOM      6  N   UNL     1      -2.349  -0.018  -0.665  0.00  0.00    -0.219 NA
ATOM      7  N   UNL     1      -2.585  -0.732  -1.930  0.00  0.00    -0.234 NA
ATOM      8  C   UNL     1      -2.256  -2.150  -1.599  0.00  0.00    +0.158 C 
ATOM      9  N   UNL     1      -1.097  -2.003  -0.753  0.00  0.00    -0.280 N 
ATOM     10  C   UNL     1       0.058  -2.772  -0.633  0.00  0.00    +0.053 A 
ATOM     11  C   UNL     1       0.288  -4.113  -0.817  0.00  0.00    +0.031 A 
ATOM     12  C   UNL     1       1.539  -4.607  -0.630  0.00  0.00    +0.048 A 
ATOM     13  S   UNL     1       2.461  -3.268  -0.194  0.00  0.00    -0.090 S 
ATOM     14  C   UNL     1       1.204  -2.036  -0.251  0.00  0.00    +0.095 A 
ATOM     15  C   UNL     1       1.195  -0.661  -0.013  0.00  0.00    +0.257 C 
ATOM     16  O   UNL     1       2.236  -0.059   0.183  0.00  0.00    -0.269 OA
ATOM     17  H   UNL     1      -3.180  -0.010  -0.093  0.00  0.00    +0.144 HD
ATOM     18  H   UNL     1      -1.984  -0.383  -2.661  0.00  0.00    +0.143 HD
ENDBRANCH   2   8
ENDBRANCH   1   2
BRANCH   1  19
ATOM     19  C   UNL     1      -2.765  -3.735  -5.071  0.00  0.00    +0.096 C 
BRANCH  19  20
ATOM     20  C   UNL     1      -3.953  -3.746  -5.998  0.00  0.00    +0.213 C 
ATOM     21  O   UNL     1      -4.978  -3.181  -5.678  0.00  0.00    -0.276 OA
ATOM     22  N   UNL     1      -3.877  -4.385  -7.183  0.00  0.00    -0.315 N 
ATOM     23  H   UNL     1      -3.058  -4.837  -7.439  0.00  0.00    +0.149 HD
BRANCH  22  24
ATOM     24  C   UNL     1      -5.032  -4.396  -8.084  0.00  0.00    +0.108 C 
BRANCH  24  25
ATOM     25  C   UNL     1      -4.684  -5.182  -9.350  0.00  0.00    +0.052 C 
BRANCH  25  26
ATOM     26  C   UNL     1      -5.871  -5.194 -10.277  0.00  0.00    -0.040 C 
ATOM     27  C   UNL     1      -6.107  -4.350 -11.307  0.00  0.00    -0.001 A 
ATOM     28  C   UNL     1      -5.357  -3.212 -11.852  0.00  0.00    +0.010 A 
ATOM     29  C   UNL     1      -5.858  -2.544 -12.916  0.00  0.00    +0.001 A 
ATOM     30  C   UNL     1      -7.074  -2.911 -13.510  0.00  0.00    +0.002 A 
ATOM     31  C   UNL     1      -7.820  -3.945 -13.066  0.00  0.00    +0.026 A 
ATOM     32  C   UNL     1      -7.387  -4.717 -11.953  0.00  0.00    +0.043 A 
ATOM     33  N   UNL     1      -7.923  -5.748 -11.345  0.00  0.00    -0.380 N 
ATOM     34  C   UNL     1      -7.038  -6.155 -10.248  0.00  0.00    +0.144 C 
ATOM     35  H   UNL     1      -8.762  -6.173 -11.584  0.00  0.00    +0.160 HD
ENDBRANCH  25  26
ENDBRANCH  24  25
ENDBRANCH  22  24
ENDBRANCH  19  20
ENDBRANCH   1  19
TORSDOF 7
