REMARK  Name = ZINC10647727
REMARK  8 active torsions:
REMARK  status: ('A' for Active; 'I' for Inactive)
REMARK    1  A    between atoms: C_4  and  O_7
REMARK    2  A    between atoms: O_7  and  C_8
REMARK    3  A    between atoms: C_11  and  C_14
REMARK    4  A    between atoms: C_14  and  O_16
REMARK    5  A    between atoms: O_16  and  C_17
REMARK    6  A    between atoms: C_17  and  C_18
REMARK    7  A    between atoms: N_20  and  N_21
REMARK    8  A    between atoms: C_22  and  C_24
REMARK                            x       y       z     vdW  Elec       q    Type
REMARK                         _______ _______ _______ _____ _____    ______ ____
ROOT
ATOM      1  C   UNL     1       5.284  -9.106  -0.179  0.00  0.00    +0.267 C 
ATOM      2  O   UNL     1       6.310  -8.461  -0.120  0.00  0.00    -0.271 OA
ATOM      3  N   UNL     1       5.335 -10.452  -0.210  0.00  0.00    -0.231 N 
ATOM      4  H   UNL     1       4.515 -10.968  -0.257  0.00  0.00    +0.173 HD
ENDROOT
BRANCH   3   5
ATOM      5  N   UNL     1       6.573 -11.107  -0.175  0.00  0.00    -0.231 N 
ATOM      6  C   UNL     1       6.624 -12.454  -0.206  0.00  0.00    +0.273 C 
ATOM      7  O   UNL     1       5.598 -13.098  -0.265  0.00  0.00    -0.270 OA
ATOM      8  H   UNL     1       7.393 -10.592  -0.128  0.00  0.00    +0.173 HD
BRANCH   6   9
ATOM      9  C   UNL     1       7.955 -13.159  -0.169  0.00  0.00    +0.297 C 
ATOM     10  C   UNL     1       8.637 -12.906   1.183  0.00  0.00    +0.283 C 
ATOM     11  O   UNL     1       9.889 -13.599   1.190  0.00  0.00    -0.484 OA
ATOM     12  C   UNL     1       9.878 -14.886   0.748  0.00  0.00    +0.162 A 
ATOM     13  C   UNL     1      10.941 -15.722   1.057  0.00  0.00    +0.049 A 
ATOM     14  C   UNL     1      10.946 -17.030   0.612  0.00  0.00    +0.004 A 
ATOM     15  C   UNL     1       9.892 -17.510  -0.142  0.00  0.00    +0.004 A 
ATOM     16  C   UNL     1       8.829 -16.683  -0.453  0.00  0.00    +0.049 A 
ATOM     17  C   UNL     1       8.817 -15.369  -0.008  0.00  0.00    +0.163 A 
ATOM     18  O   UNL     1       7.759 -14.569  -0.316  0.00  0.00    -0.472 OA
ENDBRANCH   6   9
ENDBRANCH   3   5
BRANCH   1  19
ATOM     19  C   UNL     1       3.953  -8.401  -0.217  0.00  0.00    +0.329 C 
BRANCH  19  20
ATOM     20  O   UNL     1       4.160  -6.988  -0.173  0.00  0.00    -0.452 OA
BRANCH  20  21
ATOM     21  C   UNL     1       3.062  -6.207  -0.199  0.00  0.00    +0.340 C 
ATOM     22  O   UNL     1       1.959  -6.712  -0.258  0.00  0.00    -0.245 OA
BRANCH  21  26
ATOM     23  C   UNL     1       3.459  -1.982  -0.077  0.00  0.00    +0.128 A 
ATOM     24  C   UNL     1       2.195  -2.558  -0.144  0.00  0.00    +0.047 A 
ATOM     25  C   UNL     1       2.062  -3.928  -0.184  0.00  0.00    +0.018 A 
ATOM     26  C   UNL     1       3.200  -4.740  -0.157  0.00  0.00    +0.059 A 
ATOM     27  C   UNL     1       4.469  -4.156  -0.090  0.00  0.00    +0.018 A 
ATOM     28  C   UNL     1       4.593  -2.786  -0.055  0.00  0.00    +0.047 A 
BRANCH  23  29
ATOM     29  O   UNL     1       3.586  -0.632  -0.037  0.00  0.00    -0.456 OA
BRANCH  29  33
ATOM     30  C   UNL     1       3.917   1.389  -3.619  0.00  0.00    +0.000 A 
ATOM     31  C   UNL     1       3.777   0.013  -3.612  0.00  0.00    +0.004 A 
ATOM     32  C   UNL     1       3.666  -0.666  -2.415  0.00  0.00    +0.046 A 
ATOM     33  C   UNL     1       3.695   0.034  -1.217  0.00  0.00    +0.128 A 
ATOM     34  C   UNL     1       3.836   1.414  -1.226  0.00  0.00    +0.046 A 
ATOM     35  C   UNL     1       3.946   2.088  -2.426  0.00  0.00    +0.004 A 
ENDBRANCH  29  33
ENDBRANCH  23  29
ENDBRANCH  21  26
ENDBRANCH  20  21
ENDBRANCH  19  20
ENDBRANCH   1  19
TORSDOF 8
