REMARK  Name = ZINC39921159
REMARK  6 active torsions:
REMARK  status: ('A' for Active; 'I' for Inactive)
REMARK    1  A    between atoms: C_1  and  C_2
REMARK    2  A    between atoms: C_5  and  N_9
REMARK    3  A    between atoms: C_6  and  C_8
REMARK    4  A    between atoms: N_9  and  C_10
REMARK    5  A    between atoms: C_11  and  C_21
REMARK    6  A    between atoms: C_16  and  C_20
REMARK                            x       y       z     vdW  Elec       q    Type
REMARK                         _______ _______ _______ _____ _____    ______ ____
ROOT
ATOM      1  C   UNL     1      -0.043  -4.854  -1.218  0.00  0.00    +0.200 A 
ATOM      2  C   UNL     1      -0.139  -6.213  -1.344  0.00  0.00    +0.057 A 
ATOM      3  C   UNL     1      -0.224  -6.473  -2.789  0.00  0.00    +0.114 A 
ATOM      4  C   UNL     1      -0.169  -5.218  -3.402  0.00  0.00    +0.148 A 
ATOM      5  O   UNL     1      -0.068  -4.290  -2.437  0.00  0.00    -0.440 OA
ATOM      6  C   UNL     1      -0.231  -5.161  -4.812  0.00  0.00    +0.088 A 
ATOM      7  C   UNL     1      -0.340  -6.300  -5.521  0.00  0.00    +0.110 A 
ATOM      8  O   UNL     1      -0.393  -7.503  -4.927  0.00  0.00    -0.427 OA
ATOM      9  C   UNL     1      -0.338  -7.628  -3.588  0.00  0.00    +0.348 A 
ATOM     10  O   UNL     1      -0.387  -8.730  -3.072  0.00  0.00    -0.244 OA
ATOM     11  C   UNL     1      -0.405  -6.222  -7.024  0.00  0.00    +0.086 C 
ENDROOT
BRANCH   2  12
ATOM     12  C   UNL     1      -0.155  -7.212  -0.254  0.00  0.00    -0.009 A 
ATOM     13  C   UNL     1       0.885  -8.140  -0.113  0.00  0.00    +0.028 A 
ATOM     14  C   UNL     1       0.830  -9.053   0.917  0.00  0.00    +0.111 A 
ATOM     15  N   UNL     1      -0.185  -9.062   1.762  0.00  0.00    -0.263 NA
ATOM     16  C   UNL     1      -1.185  -8.206   1.665  0.00  0.00    +0.111 A 
ATOM     17  C   UNL     1      -1.208  -7.254   0.669  0.00  0.00    +0.028 A 
ENDBRANCH   2  12
BRANCH   1  18
ATOM     18  N   UNL     1       0.058  -4.168  -0.021  0.00  0.00    -0.285 N 
ATOM     19  H   UNL     1       0.169  -4.656   0.810  0.00  0.00    +0.155 HD
BRANCH  18  24
ATOM     20  C   UNL     1      -0.175   1.498   0.026  0.00  0.00    +0.044 C 
ATOM     21  C   UNL     1      -0.113  -0.007   0.014  0.00  0.00    -0.050 A 
ATOM     22  C   UNL     1      -0.392  -0.700  -1.151  0.00  0.00    +0.005 A 
ATOM     23  C   UNL     1      -0.336  -2.079  -1.166  0.00  0.00    +0.024 A 
ATOM     24  C   UNL     1       0.001  -2.772  -0.009  0.00  0.00    +0.036 A 
ATOM     25  C   UNL     1       0.280  -2.073   1.158  0.00  0.00    -0.029 A 
ATOM     26  C   UNL     1       0.228  -0.693   1.165  0.00  0.00    +0.008 A 
ATOM     27  C   UNL     1       0.646  -2.820   2.415  0.00  0.00    +0.045 C 
ENDBRANCH  18  24
ENDBRANCH   1  18
TORSDOF 3
