REMARK  Name = ZINC01165874
REMARK  8 active torsions:
REMARK  status: ('A' for Active; 'I' for Inactive)
REMARK    1  A    between atoms: C_3  and  O_10
REMARK    2  A    between atoms: C_6  and  N_7
REMARK    3  A    between atoms: O_10  and  C_11
REMARK    4  A    between atoms: C_11  and  C_12
REMARK    5  A    between atoms: N_14  and  C_15
REMARK    6  A    between atoms: C_16  and  C_24
REMARK    7  A    between atoms: N_26  and  C_27
REMARK    8  A    between atoms: C_27  and  C_28
REMARK                            x       y       z     vdW  Elec       q    Type
REMARK                         _______ _______ _______ _____ _____    ______ ____
ROOT
ATOM      1  C   UNL     1      -0.340   6.401  -2.781  0.00  0.00    +0.084 A 
ATOM      2  C   UNL     1      -1.364   5.665  -2.202  0.00  0.00    +0.069 A 
ATOM      3  C   UNL     1      -2.447   6.400  -1.573  0.00  0.00    -0.023 A 
ATOM      4  C   UNL     1      -2.338   7.745  -1.628  0.00  0.00    -0.004 A 
ATOM      5  S   UNL     1      -0.825   8.041  -2.499  0.00  0.00    -0.077 S 
ATOM      6  C   UNL     1      -3.296   8.753  -1.071  0.00  0.00    +0.043 C 
ATOM      7  C   UNL     1      -4.617   8.039  -0.751  0.00  0.00    +0.005 C 
ATOM      8  C   UNL     1      -4.309   6.758   0.030  0.00  0.00    +0.005 C 
ATOM      9  C   UNL     1      -3.637   5.737  -0.889  0.00  0.00    +0.037 C 
ENDROOT
BRANCH   1  12
ATOM     10  C   UNL     1       1.687   6.813  -3.935  0.00  0.00    +0.255 C 
ATOM     11  O   UNL     1       1.498   8.005  -3.820  0.00  0.00    -0.272 OA
ATOM     12  N   UNL     1       0.794   5.938  -3.431  0.00  0.00    -0.277 N 
ATOM     13  H   UNL     1       0.945   4.984  -3.522  0.00  0.00    +0.155 HD
BRANCH  10  14
ATOM     14  C   UNL     1       2.919   6.309  -4.640  0.00  0.00    +0.324 C 
BRANCH  14  15
ATOM     15  O   UNL     1       3.703   7.420  -5.081  0.00  0.00    -0.483 OA
BRANCH  15  18
ATOM     16  C   UNL     1       6.840   7.878  -6.866  0.00  0.00    +0.036 A 
ATOM     17  C   UNL     1       5.667   8.168  -6.196  0.00  0.00    +0.048 A 
ATOM     18  C   UNL     1       4.857   7.138  -5.741  0.00  0.00    +0.121 A 
ATOM     19  C   UNL     1       5.231   5.819  -5.954  0.00  0.00    +0.048 A 
ATOM     20  C   UNL     1       6.402   5.534  -6.629  0.00  0.00    +0.036 A 
ATOM     21  C   UNL     1       7.207   6.563  -7.083  0.00  0.00    +0.126 A 
BRANCH  21  22
ATOM     22  N   UNL     1       8.464   6.255  -7.801  0.00  0.00    +0.056 N 
ATOM     23  O   UNL     1       9.174   7.161  -8.201  0.00  0.00    -0.126 OA
ATOM     24  O   UNL     1       8.788   5.097  -7.992  0.00  0.00    -0.126 OA
ENDBRANCH  21  22
ENDBRANCH  15  18
ENDBRANCH  14  15
ENDBRANCH  10  14
ENDBRANCH   1  12
BRANCH   2  25
ATOM     25  C   UNL     1      -1.349   4.199  -2.219  0.00  0.00    +0.247 C 
ATOM     26  O   UNL     1      -1.870   3.596  -3.139  0.00  0.00    -0.270 OA
ATOM     27  N   UNL     1      -0.759   3.519  -1.216  0.00  0.00    -0.309 N 
ATOM     28  H   UNL     1      -0.344   4.000  -0.483  0.00  0.00    +0.149 HD
BRANCH  27  29
ATOM     29  C   UNL     1      -0.745   2.054  -1.233  0.00  0.00    +0.136 C 
BRANCH  29  30
ATOM     30  C   UNL     1      -0.019   1.537   0.011  0.00  0.00    +0.135 C 
ATOM     31  C   UNL     1       0.002  -0.004   0.002  0.00  0.00    +0.035 C 
ATOM     32  C   UNL     1       1.508  -0.363   0.039  0.00  0.00    +0.031 C 
ATOM     33  C   UNL     1       2.138   0.935   0.603  0.00  0.00    +0.160 C 
ATOM     34  O   UNL     1       1.348   1.983  -0.000  0.00  0.00    -0.375 OA
ENDBRANCH  29  30
ENDBRANCH  27  29
ENDBRANCH   2  25
TORSDOF 8
