REMARK  Name = ZINC47638999
REMARK  4 active torsions:
REMARK  status: ('A' for Active; 'I' for Inactive)
REMARK    1  A    between atoms: C_1  and  C_2
REMARK    2  A    between atoms: C_11  and  C_14
REMARK    3  A    between atoms: C_14  and  N_15
REMARK    4  A    between atoms: N_18  and  C_19
REMARK                            x       y       z     vdW  Elec       q    Type
REMARK                         _______ _______ _______ _____ _____    ______ ____
ROOT
ATOM      1  C   UNL     1       0.024   1.508  -0.007  0.00  0.00    +0.039 C 
ATOM      2  C   UNL     1       0.027  -0.022  -0.001  0.00  0.00    +0.132 C 
ATOM      3  C   UNL     1      -1.417  -0.537   0.005  0.00  0.00    +0.137 C 
ATOM      4  N   UNL     1      -1.389  -1.995   0.200  0.00  0.00    -0.312 N 
ATOM      5  C   UNL     1      -0.594  -2.529   1.318  0.00  0.00    +0.134 C 
ATOM      6  C   UNL     1       0.810  -1.917   1.248  0.00  0.00    +0.179 C 
ATOM      7  O   UNL     1       0.700  -0.493   1.170  0.00  0.00    -0.374 OA
ATOM      8  C   UNL     1      -2.091  -2.844  -0.647  0.00  0.00    +0.099 A 
ATOM      9  C   UNL     1      -2.930  -2.308  -1.620  0.00  0.00    +0.042 A 
ATOM     10  C   UNL     1      -3.623  -3.164  -2.456  0.00  0.00    +0.010 A 
ATOM     11  C   UNL     1      -3.455  -4.533  -2.291  0.00  0.00    -0.014 A 
ATOM     12  C   UNL     1      -2.607  -4.996  -1.305  0.00  0.00    +0.089 A 
ATOM     13  N   UNL     1      -1.953  -4.155  -0.525  0.00  0.00    -0.349 N 
ATOM     14  H   UNL     1      -1.360  -4.507   0.158  0.00  0.00    +0.167 HD
ENDROOT
BRANCH  11  15
ATOM     15  C   UNL     1      -4.190  -5.503  -3.179  0.00  0.00    +0.142 C 
BRANCH  15  16
ATOM     16  N   UNL     1      -3.377  -5.796  -4.362  0.00  0.00    -0.295 N 
ATOM     17  C   UNL     1      -3.837  -6.645  -5.302  0.00  0.00    +0.300 C 
ATOM     18  O   UNL     1      -4.926  -7.168  -5.168  0.00  0.00    -0.253 OA
ATOM     19  N   UNL     1      -3.089  -6.915  -6.390  0.00  0.00    -0.297 N 
ATOM     20  H   UNL     1      -2.508  -5.379  -4.468  0.00  0.00    +0.151 HD
ATOM     21  H   UNL     1      -2.220  -6.497  -6.497  0.00  0.00    +0.151 HD
BRANCH  19  22
ATOM     22  C   UNL     1      -3.588  -7.838  -7.412  0.00  0.00    +0.074 C 
ATOM     23  C   UNL     1      -4.447  -7.088  -8.394  0.00  0.00    +0.022 C 
ATOM     24  C   UNL     1      -5.610  -7.942  -8.934  0.00  0.00    +0.002 C 
ATOM     25  C   UNL     1      -5.188  -9.389  -9.256  0.00  0.00    +0.000 C 
ATOM     26  C   UNL     1      -3.848  -9.460  -9.938  0.00  0.00    +0.000 C 
ATOM     27  C   UNL     1      -2.764  -9.687  -8.864  0.00  0.00    +0.002 C 
ATOM     28  C   UNL     1      -2.400  -8.459  -8.175  0.00  0.00    +0.022 C 
ENDBRANCH  19  22
ENDBRANCH  15  16
ENDBRANCH  11  15
TORSDOF 3
