REMARK  Name = ZINC35929916
REMARK  4 active torsions:
REMARK  status: ('A' for Active; 'I' for Inactive)
REMARK    1  A    between atoms: C_4  and  C_7
REMARK    2  A    between atoms: C_7  and  N_8
REMARK    3  A    between atoms: C_9  and  N_31
REMARK    4  A    between atoms: C_11  and  C_24
REMARK                            x       y       z     vdW  Elec       q    Type
REMARK                         _______ _______ _______ _____ _____    ______ ____
ROOT
ATOM      1  N   UNL     1       4.623  -1.142   1.319  0.00  0.00    -0.244 N 
ATOM      2  C   UNL     1       4.985  -0.127   2.123  0.00  0.00    +0.126 A 
ATOM      3  C   UNL     1       4.747  -0.524   3.433  0.00  0.00    +0.086 A 
ATOM      4  C   UNL     1       4.906   0.055   4.712  0.00  0.00    +0.089 A 
ATOM      5  N   UNL     1       4.556  -0.659   5.774  0.00  0.00    -0.214 NA
ATOM      6  C   UNL     1       4.066  -1.890   5.668  0.00  0.00    +0.220 A 
ATOM      7  N   UNL     1       3.885  -2.506   4.517  0.00  0.00    -0.193 NA
ATOM      8  C   UNL     1       4.201  -1.891   3.360  0.00  0.00    +0.188 A 
ATOM      9  N   UNL     1       4.142  -2.209   2.086  0.00  0.00    -0.149 NA
ATOM     10  N   UNL     1       3.727  -2.562   6.829  0.00  0.00    -0.301 N 
ATOM     11  C   UNL     1       3.918  -1.882   8.126  0.00  0.00    +0.106 C 
ATOM     12  C   UNL     1       2.730  -2.144   9.069  0.00  0.00    -0.000 C 
ATOM     13  C   UNL     1       1.441  -2.101   8.279  0.00  0.00    -0.081 C 
ATOM     14  N   UNL     1       1.091  -3.454   7.852  0.00  0.00    +0.380 N 
ATOM     15  C   UNL     1       1.655  -3.854   6.620  0.00  0.00    -0.063 C 
ATOM     16  C   UNL     1       3.191  -3.904   6.729  0.00  0.00    +0.089 C 
ATOM     17  H   UNL     1       1.393  -4.101   8.566  0.00  0.00    -0.086 HD
ATOM     18  H   UNL     1       0.087  -3.515   7.777  0.00  0.00    -0.086 HD
ENDROOT
BRANCH   4  19
ATOM     19  C   UNL     1       5.449   1.424   4.863  0.00  0.00    +0.001 A 
ATOM     20  C   UNL     1       4.983   2.456   4.048  0.00  0.00    +0.013 A 
ATOM     21  C   UNL     1       5.492   3.729   4.193  0.00  0.00    +0.039 A 
ATOM     22  C   UNL     1       6.466   3.985   5.146  0.00  0.00    +0.123 A 
ATOM     23  C   UNL     1       6.933   2.962   5.957  0.00  0.00    +0.039 A 
ATOM     24  C   UNL     1       6.426   1.687   5.824  0.00  0.00    +0.013 A 
ATOM     25  F   UNL     1       6.962   5.234   5.283  0.00  0.00    -0.205 F 
ENDBRANCH   4  19
BRANCH   2  26
ATOM     26  N   UNL     1       5.501   1.091   1.719  0.00  0.00    -0.343 N 
ATOM     27  H   UNL     1       5.380   1.389   0.804  0.00  0.00    +0.144 HD
ATOM     28  H   UNL     1       5.983   1.647   2.351  0.00  0.00    +0.144 HD
ENDBRANCH   2  26
BRANCH   1  29
ATOM     29  C   UNL     1       4.714  -1.131  -0.143  0.00  0.00    +0.180 C 
BRANCH  29  33
ATOM     30  C   UNL     1       1.080   0.401  -1.785  0.00  0.00    +0.000 A 
ATOM     31  C   UNL     1       2.118   1.261  -1.482  0.00  0.00    +0.000 A 
ATOM     32  C   UNL     1       3.294   0.766  -0.950  0.00  0.00    +0.005 A 
ATOM     33  C   UNL     1       3.432  -0.591  -0.721  0.00  0.00    -0.026 A 
ATOM     34  C   UNL     1       2.393  -1.451  -1.024  0.00  0.00    +0.005 A 
ATOM     35  C   UNL     1       1.217  -0.956  -1.556  0.00  0.00    +0.000 A 
ENDBRANCH  29  33
ENDBRANCH   1  29
TORSDOF 4
