REMARK  Name = ZINC09591943
REMARK  8 active torsions:
REMARK  status: ('A' for Active; 'I' for Inactive)
REMARK    1  A    between atoms: C_1  and  C_2
REMARK    2  A    between atoms: C_2  and  C_3
REMARK    3  A    between atoms: C_3  and  C_29
REMARK    4  A    between atoms: N_6  and  N_10
REMARK    5  A    between atoms: C_11  and  C_13
REMARK    6  A    between atoms: C_16  and  N_22
REMARK    7  A    between atoms: C_17  and  N_19
REMARK    8  A    between atoms: C_25  and  C_28
REMARK                            x       y       z     vdW  Elec       q    Type
REMARK                         _______ _______ _______ _____ _____    ______ ____
ROOT
ATOM      1  N   UNL     1       2.508  -0.263   0.070  0.00  0.00    -0.220 N 
ATOM      2  C   UNL     1       2.480   1.080  -0.035  0.00  0.00    +0.261 C 
ATOM      3  O   UNL     1       3.518   1.703  -0.150  0.00  0.00    -0.269 OA
ATOM      4  H   UNL     1       1.680  -0.760   0.162  0.00  0.00    +0.174 HD
ENDROOT
BRANCH   1   8
ATOM      5  C   UNL     1       5.613  -2.101   0.633  0.00  0.00    +0.139 C 
ATOM      6  C   UNL     1       4.326  -1.475   1.133  0.00  0.00    +0.268 C 
ATOM      7  O   UNL     1       3.914  -1.459   2.273  0.00  0.00    -0.271 OA
ATOM      8  N   UNL     1       3.734  -0.942   0.045  0.00  0.00    -0.137 N 
ATOM      9  C   UNL     1       4.458  -1.146  -1.061  0.00  0.00    +0.327 C 
ATOM     10  O   UNL     1       4.128  -0.761  -2.165  0.00  0.00    -0.251 OA
ATOM     11  N   UNL     1       5.595  -1.821  -0.813  0.00  0.00    -0.280 N 
ATOM     12  H   UNL     1       6.270  -2.076  -1.461  0.00  0.00    +0.152 HD
BRANCH   5  13
ATOM     13  C   UNL     1       6.806  -1.453   1.287  0.00  0.00    -0.015 A 
ATOM     14  C   UNL     1       7.311  -1.966   2.467  0.00  0.00    +0.006 A 
ATOM     15  C   UNL     1       8.408  -1.375   3.064  0.00  0.00    +0.000 A 
ATOM     16  C   UNL     1       8.994  -0.264   2.487  0.00  0.00    +0.000 A 
ATOM     17  C   UNL     1       8.486   0.253   1.310  0.00  0.00    +0.000 A 
ATOM     18  C   UNL     1       7.392  -0.342   0.710  0.00  0.00    +0.006 A 
ENDBRANCH   5  13
BRANCH   5  20
ATOM     19  C   UNL     1       4.499  -4.266   0.072  0.00  0.00    +0.007 C 
ATOM     20  C   UNL     1       5.613  -3.609   0.889  0.00  0.00    +0.037 C 
ENDBRANCH   5  20
ENDBRANCH   1   8
BRANCH   2  21
ATOM     21  C   UNL     1       1.190   1.795  -0.009  0.00  0.00    +0.040 A 
ATOM     22  C   UNL     1      -0.005   1.080   0.124  0.00  0.00    +0.015 A 
ATOM     23  C   UNL     1      -1.207   1.749   0.142  0.00  0.00    +0.026 A 
ATOM     24  C   UNL     1      -1.234   3.138   0.040  0.00  0.00    +0.060 A 
ATOM     25  C   UNL     1      -0.047   3.852  -0.092  0.00  0.00    +0.148 A 
ATOM     26  C   UNL     1       1.159   3.188  -0.117  0.00  0.00    +0.047 A 
BRANCH  24  27
ATOM     27  N   UNL     1      -2.450   3.811   0.064  0.00  0.00    -0.328 N 
ATOM     28  C   UNL     1      -3.315   3.375  -1.040  0.00  0.00    +0.105 C 
ATOM     29  C   UNL     1      -4.580   4.237  -1.069  0.00  0.00    +0.022 C 
ATOM     30  C   UNL     1      -5.316   4.099   0.266  0.00  0.00    -0.011 C 
ATOM     31  C   UNL     1      -4.378   4.513   1.403  0.00  0.00    +0.022 C 
ATOM     32  C   UNL     1      -3.119   3.644   1.361  0.00  0.00    +0.105 C 
ATOM     33  C   UNL     1      -6.550   5.005   0.266  0.00  0.00    +0.007 C 
ENDBRANCH  24  27
BRANCH  25  34
ATOM     34  N   UNL     1      -0.081   5.327  -0.206  0.00  0.00    +0.058 N 
ATOM     35  O   UNL     1       0.959   5.961  -0.223  0.00  0.00    -0.126 OA
ATOM     36  O   UNL     1      -1.149   5.908  -0.283  0.00  0.00    -0.126 OA
ENDBRANCH  25  34
ENDBRANCH   2  21
TORSDOF 6
