REMARK  Name = ZINC12979019
REMARK  14 active torsions:
REMARK  status: ('A' for Active; 'I' for Inactive)
REMARK    1  A    between atoms: C_1  and  C_2
REMARK    2  A    between atoms: C_2  and  C_3
REMARK    3  A    between atoms: C_3  and  C_4
REMARK    4  A    between atoms: C_4  and  N_5
REMARK    5  A    between atoms: N_5  and  C_6
REMARK    6  A    between atoms: C_7  and  N_19
REMARK    7  A    between atoms: N_8  and  C_15
REMARK    8  A    between atoms: C_15  and  C_16
REMARK    9  A    between atoms: C_16  and  C_17
REMARK   10  A    between atoms: C_16  and  C_18
REMARK   11  A    between atoms: C_20  and  C_22
REMARK   12  A    between atoms: N_27  and  C_29
REMARK   13  A    between atoms: C_29  and  C_30
REMARK   14  A    between atoms: C_33  and  C_36
REMARK                            x       y       z     vdW  Elec       q    Type
REMARK                         _______ _______ _______ _____ _____    ______ ____
ROOT
ATOM      1  N   UNL     1      -3.028  -1.982   0.400  0.00  0.00    -0.264 N 
ATOM      2  C   UNL     1      -3.264  -2.810   1.439  0.00  0.00    +0.225 C 
ATOM      3  O   UNL     1      -2.368  -3.088   2.208  0.00  0.00    -0.275 OA
ENDROOT
BRANCH   1   4
ATOM      4  C   UNL     1      -4.041  -1.738  -0.552  0.00  0.00    +0.140 A 
ATOM      5  C   UNL     1      -3.961  -2.283  -1.817  0.00  0.00    +0.127 A 
ATOM      6  N   UNL     1      -4.964  -2.027  -2.723  0.00  0.00    -0.280 N 
ATOM      7  C   UNL     1      -6.010  -1.254  -2.380  0.00  0.00    +0.331 A 
ATOM      8  O   UNL     1      -6.886  -1.040  -3.196  0.00  0.00    -0.246 OA
ATOM      9  N   UNL     1      -6.105  -0.715  -1.152  0.00  0.00    -0.273 N 
ATOM     10  H   UNL     1      -6.870  -0.161  -0.929  0.00  0.00    +0.173 HD
ATOM     11  C   UNL     1      -5.153  -0.939  -0.225  0.00  0.00    +0.277 A 
ATOM     12  O   UNL     1      -5.251  -0.449   0.887  0.00  0.00    -0.266 OA
BRANCH   5  13
ATOM     13  N   UNL     1      -2.892  -3.072  -2.168  0.00  0.00    -0.343 N 
ATOM     14  H   UNL     1      -2.238  -3.329  -1.499  0.00  0.00    +0.144 HD
ATOM     15  H   UNL     1      -2.791  -3.373  -3.085  0.00  0.00    +0.144 HD
ENDBRANCH   5  13
BRANCH   6  16
ATOM     16  C   UNL     1      -4.892  -2.600  -4.070  0.00  0.00    +0.131 C 
BRANCH  16  17
ATOM     17  C   UNL     1      -5.579  -3.967  -4.080  0.00  0.00    +0.003 C 
ATOM     18  C   UNL     1      -5.614  -4.509  -5.511  0.00  0.00    +0.009 C 
ATOM     19  C   UNL     1      -4.801  -4.935  -3.187  0.00  0.00    +0.009 C 
ENDBRANCH  16  17
ENDBRANCH   6  16
ENDBRANCH   1   4
BRANCH   2  20
ATOM     20  C   UNL     1      -4.641  -3.387   1.645  0.00  0.00    +0.101 C 
ATOM     21  C   UNL     1      -4.702  -4.856   1.163  0.00  0.00    +0.110 C 
ATOM     22  C   UNL     1      -5.608  -5.537   2.165  0.00  0.00    +0.217 C 
ATOM     23  O   UNL     1      -6.139  -6.615   2.001  0.00  0.00    -0.276 OA
ATOM     24  N   UNL     1      -5.739  -4.774   3.264  0.00  0.00    -0.296 N 
ATOM     25  C   UNL     1      -4.960  -3.535   3.149  0.00  0.00    +0.121 C 
BRANCH  24  26
ATOM     26  C   UNL     1      -6.554  -5.133   4.427  0.00  0.00    +0.142 C 
BRANCH  26  27
ATOM     27  C   UNL     1      -5.714  -5.905   5.411  0.00  0.00    -0.030 A 
ATOM     28  C   UNL     1      -5.638  -7.283   5.322  0.00  0.00    +0.005 A 
ATOM     29  C   UNL     1      -4.867  -7.992   6.225  0.00  0.00    +0.003 A 
ATOM     30  C   UNL     1      -4.172  -7.324   7.215  0.00  0.00    -0.050 A 
ATOM     31  C   UNL     1      -4.247  -5.946   7.302  0.00  0.00    +0.003 A 
ATOM     32  C   UNL     1      -5.014  -5.237   6.397  0.00  0.00    +0.005 A 
ATOM     33  C   UNL     1      -3.332  -8.097   8.199  0.00  0.00    +0.044 C 
ENDBRANCH  26  27
ENDBRANCH  24  26
ENDBRANCH   2  20
BRANCH   1  34
ATOM     34  C   UNL     1      -1.720  -1.337   0.260  0.00  0.00    +0.114 C 
BRANCH  34  35
ATOM     35  C   UNL     1      -1.701  -0.041   1.073  0.00  0.00    +0.019 C 
BRANCH  35  37
ATOM     36  C   UNL     1      -0.294   1.893   1.794  0.00  0.00    +0.004 C 
ATOM     37  C   UNL     1      -0.314   0.597   0.981  0.00  0.00    -0.002 C 
ENDBRANCH  35  37
ENDBRANCH  34  35
ENDBRANCH   1  34
TORSDOF 10
