REMARK  Name = ZINC23619822
REMARK  6 active torsions:
REMARK  status: ('A' for Active; 'I' for Inactive)
REMARK    1  A    between atoms: C_3  and  C_6
REMARK    2  A    between atoms: C_6  and  N_7
REMARK    3  A    between atoms: C_11  and  S_13
REMARK    4  A    between atoms: S_13  and  C_14
REMARK    5  A    between atoms: C_17  and  C_23
REMARK    6  A    between atoms: C_19  and  N_20
REMARK                            x       y       z     vdW  Elec       q    Type
REMARK                         _______ _______ _______ _____ _____    ______ ____
ROOT
ATOM      1  N   UNL     1       6.469   5.733   0.513  0.00  0.00    -0.315 N 
ATOM      2  C   UNL     1       5.303   5.081   0.381  0.00  0.00    +0.183 A 
ATOM      3  N   UNL     1       5.073   3.736   0.242  0.00  0.00    -0.125 NA
ATOM      4  N   UNL     1       3.898   3.286   0.135  0.00  0.00    -0.133 NA
ATOM      5  C   UNL     1       2.837   4.159   0.144  0.00  0.00    +0.165 A 
ATOM      6  S   UNL     1       3.687   5.720   0.341  0.00  0.00    -0.024 S 
ATOM      7  H   UNL     1       6.478   6.828   0.615  0.00  0.00    +0.148 HD
ENDROOT
BRANCH   1   8
ATOM      8  C   UNL     1       7.729   4.986   0.521  0.00  0.00    +0.178 C 
BRANCH   8  11
ATOM      9  C   UNL     1      10.465   7.238   1.533  0.00  0.00    +0.041 A 
ATOM     10  C   UNL     1       9.415   6.345   1.848  0.00  0.00    +0.046 A 
ATOM     11  C   UNL     1       8.880   5.945   0.680  0.00  0.00    +0.122 A 
ATOM     12  O   UNL     1       9.551   6.540  -0.320  0.00  0.00    -0.466 OA
ATOM     13  C   UNL     1      10.509   7.330   0.192  0.00  0.00    +0.195 A 
ENDBRANCH   8  11
ENDBRANCH   1   8
BRANCH   5  14
ATOM     14  S   UNL     1       1.160   3.839   0.012  0.00  0.00    -0.059 S 
BRANCH  14  15
ATOM     15  C   UNL     1       1.203   2.104  -0.295  0.00  0.00    +0.045 A 
ATOM     16  C   UNL     1       0.901   1.205   0.733  0.00  0.00    +0.018 A 
ATOM     17  C   UNL     1       0.934  -0.139   0.496  0.00  0.00    +0.020 A 
ATOM     18  C   UNL     1       1.270  -0.617  -0.776  0.00  0.00    +0.054 A 
ATOM     19  C   UNL     1       1.573   0.283  -1.804  0.00  0.00    +0.052 A 
ATOM     20  C   UNL     1       1.539   1.627  -1.566  0.00  0.00    +0.141 A 
BRANCH  20  21
ATOM     21  N   UNL     1       1.865   2.579  -2.652  0.00  0.00    +0.058 N 
ATOM     22  O   UNL     1       2.186   2.130  -3.847  0.00  0.00    -0.126 OA
ATOM     23  O   UNL     1       1.832   3.876  -2.422  0.00  0.00    -0.126 OA
ENDBRANCH  20  21
BRANCH  18  24
ATOM     24  C   UNL     1       1.306  -2.027  -1.025  0.00  0.00    +0.099 C 
ATOM     25  N   UNL     1       1.334  -3.145  -1.222  0.00  0.00    -0.191 NA
ENDBRANCH  18  24
ENDBRANCH  14  15
ENDBRANCH   5  14
TORSDOF 6
