REMARK  Name = ZINC66770330
REMARK  5 active torsions:
REMARK  status: ('A' for Active; 'I' for Inactive)
REMARK    1  A    between atoms: C_1  and  C_2
REMARK    2  A    between atoms: C_6  and  N_8
REMARK    3  A    between atoms: N_11  and  C_12
REMARK    4  A    between atoms: C_12  and  C_13
REMARK    5  A    between atoms: C_19  and  C_21
REMARK                            x       y       z     vdW  Elec       q    Type
REMARK                         _______ _______ _______ _____ _____    ______ ____
ROOT
ATOM      1  C   UNL     1      -0.296  -6.786   4.958  0.00  0.00    +0.233 C 
ATOM      2  O   UNL     1      -0.283  -6.002   5.883  0.00  0.00    -0.274 OA
ATOM      3  N   UNL     1      -0.388  -8.110   5.197  0.00  0.00    -0.293 N 
ATOM      4  C   UNL     1      -0.408  -9.168   4.171  0.00  0.00    +0.108 C 
ATOM      5  C   UNL     1      -1.123 -10.363   4.849  0.00  0.00    +0.021 C 
ATOM      6  C   UNL     1      -0.594 -10.259   6.304  0.00  0.00    +0.029 C 
ATOM      7  C   UNL     1      -0.478  -8.736   6.524  0.00  0.00    +0.110 C 
ENDROOT
BRANCH   7   8
ATOM      8  C   UNL     1       0.761  -8.424   7.323  0.00  0.00    +0.018 A 
ATOM      9  C   UNL     1       1.915  -8.018   6.679  0.00  0.00    +0.009 A 
ATOM     10  C   UNL     1       3.053  -7.731   7.409  0.00  0.00    +0.004 A 
ATOM     11  C   UNL     1       3.041  -7.851   8.786  0.00  0.00    +0.049 A 
ATOM     12  C   UNL     1       1.887  -8.258   9.439  0.00  0.00    +0.162 A 
ATOM     13  C   UNL     1       0.741  -8.539   8.705  0.00  0.00    +0.167 A 
ATOM     14  O   UNL     1      -0.406  -8.927   9.326  0.00  0.00    -0.485 OA
ATOM     15  C   UNL     1      -0.282  -9.390  10.675  0.00  0.00    +0.270 C 
ATOM     16  C   UNL     1       0.612  -8.405  11.441  0.00  0.00    +0.270 C 
ATOM     17  O   UNL     1       1.892  -8.374  10.795  0.00  0.00    -0.485 OA
ENDBRANCH   7   8
BRANCH   1  18
ATOM     18  C   UNL     1      -0.210  -6.281   3.541  0.00  0.00    +0.201 C 
BRANCH  18  22
ATOM     19  N   UNL     1       0.051  -2.797   2.393  0.00  0.00    -0.269 N 
ATOM     20  C   UNL     1      -0.032  -4.143   2.386  0.00  0.00    +0.304 C 
ATOM     21  O   UNL     1      -0.029  -4.746   1.330  0.00  0.00    -0.252 OA
ATOM     22  N   UNL     1      -0.119  -4.819   3.548  0.00  0.00    -0.291 N 
ATOM     23  H   UNL     1       0.127  -2.321   3.234  0.00  0.00    +0.156 HD
ATOM     24  H   UNL     1      -0.121  -4.337   4.390  0.00  0.00    +0.151 HD
BRANCH  19  30
ATOM     25  C   UNL     1      -1.548  -2.371  -2.237  0.00  0.00    +0.044 C 
ATOM     26  C   UNL     1      -0.737  -1.859  -1.074  0.00  0.00    -0.049 A 
ATOM     27  C   UNL     1      -0.014  -0.687  -1.199  0.00  0.00    +0.003 A 
ATOM     28  C   UNL     1       0.731  -0.214  -0.134  0.00  0.00    +0.002 A 
ATOM     29  C   UNL     1       0.754  -0.911   1.058  0.00  0.00    +0.023 A 
ATOM     30  C   UNL     1       0.029  -2.088   1.186  0.00  0.00    +0.035 A 
ATOM     31  C   UNL     1      -0.722  -2.558   0.117  0.00  0.00    +0.026 A 
ENDBRANCH  19  30
ENDBRANCH  18  22
ENDBRANCH   1  18
TORSDOF 4
