REMARK  Name = ZINC38666725
REMARK  11 active torsions:
REMARK  status: ('A' for Active; 'I' for Inactive)
REMARK    1  A    between atoms: C_1  and  C_2
REMARK    2  A    between atoms: C_5  and  N_11
REMARK    3  A    between atoms: C_6  and  N_8
REMARK    4  A    between atoms: C_12  and  C_14
REMARK    5  A    between atoms: N_16  and  C_17
REMARK    6  A    between atoms: C_17  and  C_18
REMARK    7  A    between atoms: C_18  and  C_20
REMARK    8  A    between atoms: C_18  and  N_29
REMARK    9  A    between atoms: C_23  and  N_26
REMARK   10  A    between atoms: N_26  and  C_27
REMARK   11  A    between atoms: N_26  and  C_28
REMARK                            x       y       z     vdW  Elec       q    Type
REMARK                         _______ _______ _______ _____ _____    ______ ____
ROOT
ATOM      1  C   UNL     1      -0.554  -8.602  -2.624  0.00  0.00    +0.131 C 
ENDROOT
BRANCH   1   4
ATOM      2  C   UNL     1      -0.052  -6.556  -1.399  0.00  0.00    +0.299 C 
ATOM      3  O   UNL     1      -0.183  -7.178  -0.365  0.00  0.00    -0.265 OA
ATOM      4  N   UNL     1      -0.217  -7.177  -2.584  0.00  0.00    -0.305 N 
ATOM      5  H   UNL     1      -0.113  -6.680  -3.411  0.00  0.00    +0.149 HD
BRANCH   2   7
ATOM      6  N   UNL     1       0.457  -4.483  -0.173  0.00  0.00    -0.276 N 
ATOM      7  C   UNL     1       0.292  -5.104  -1.358  0.00  0.00    +0.303 C 
ATOM      8  O   UNL     1       0.422  -4.482  -2.392  0.00  0.00    -0.265 OA
ATOM      9  H   UNL     1       0.433  -4.996   0.650  0.00  0.00    +0.155 HD
BRANCH   6  14
ATOM     10  C   UNL     1       1.285   1.124   0.002  0.00  0.00    +0.044 C 
ATOM     11  C   UNL     1       1.065  -0.366  -0.044  0.00  0.00    -0.048 A 
ATOM     12  C   UNL     1       0.387  -0.930  -1.110  0.00  0.00    +0.005 A 
ATOM     13  C   UNL     1       0.183  -2.295  -1.156  0.00  0.00    +0.026 A 
ATOM     14  C   UNL     1       0.661  -3.102  -0.130  0.00  0.00    +0.064 A 
ATOM     15  C   UNL     1       1.342  -2.532   0.938  0.00  0.00    +0.148 A 
ATOM     16  C   UNL     1       1.546  -1.166   0.975  0.00  0.00    +0.038 A 
BRANCH  15  17
ATOM     17  N   UNL     1       1.853  -3.387   2.033  0.00  0.00    +0.058 N 
ATOM     18  O   UNL     1       2.348  -2.883   3.014  0.00  0.00    -0.126 OA
ATOM     19  O   UNL     1       1.774  -4.591   1.946  0.00  0.00    -0.126 OA
ENDBRANCH  15  17
ENDBRANCH   6  14
ENDBRANCH   2   7
ENDBRANCH   1   4
BRANCH   1  20
ATOM     20  C   UNL     1      -0.684  -9.055  -4.080  0.00  0.00    +0.121 C 
BRANCH  20  21
ATOM     21  N   UNL     1       0.546  -8.724  -4.806  0.00  0.00    -0.321 N 
ATOM     22  C   UNL     1       1.765  -8.193  -4.192  0.00  0.00    +0.110 C 
ATOM     23  C   UNL     1       2.756  -8.015  -5.354  0.00  0.00    +0.056 C 
ATOM     24  C   UNL     1       1.995  -8.476  -6.576  0.00  0.00    -0.025 A 
ATOM     25  C   UNL     1       0.728  -8.876  -6.181  0.00  0.00    +0.033 A 
ATOM     26  C   UNL     1      -0.164  -9.351  -7.145  0.00  0.00    +0.023 A 
ATOM     27  C   UNL     1       0.216  -9.423  -8.468  0.00  0.00    +0.002 A 
ATOM     28  C   UNL     1       1.484  -9.025  -8.851  0.00  0.00    +0.000 A 
ATOM     29  C   UNL     1       2.369  -8.545  -7.904  0.00  0.00    +0.005 A 
ENDBRANCH  20  21
BRANCH  20  30
ATOM     30  C   UNL     1      -0.909 -10.544  -4.125  0.00  0.00    -0.025 A 
ATOM     31  C   UNL     1       0.170 -11.407  -4.069  0.00  0.00    +0.007 A 
ATOM     32  C   UNL     1      -0.033 -12.772  -4.110  0.00  0.00    +0.023 A 
ATOM     33  C   UNL     1      -1.323 -13.279  -4.207  0.00  0.00    +0.029 A 
ATOM     34  C   UNL     1      -2.404 -12.409  -4.264  0.00  0.00    +0.023 A 
ATOM     35  C   UNL     1      -2.195 -11.045  -4.217  0.00  0.00    +0.007 A 
BRANCH  33  36
ATOM     36  N   UNL     1      -1.531 -14.659  -4.250  0.00  0.00    -0.336 N 
ATOM     37  C   UNL     1      -0.389 -15.575  -4.190  0.00  0.00    +0.129 C 
ATOM     38  C   UNL     1      -2.892 -15.191  -4.353  0.00  0.00    +0.129 C 
ENDBRANCH  33  36
ENDBRANCH  20  30
ENDBRANCH   1  20
TORSDOF 8
