REMARK  Name = ZINC08687629
REMARK  13 active torsions:
REMARK  status: ('A' for Active; 'I' for Inactive)
REMARK    1  A    between atoms: C_1  and  C_2
REMARK    2  A    between atoms: C_2  and  C_3
REMARK    3  A    between atoms: C_2  and  C_4
REMARK    4  A    between atoms: C_4  and  N_5
REMARK    5  A    between atoms: C_6  and  N_35
REMARK    6  A    between atoms: C_7  and  N_14
REMARK    7  A    between atoms: N_14  and  C_15
REMARK    8  A    between atoms: C_15  and  C_16
REMARK    9  A    between atoms: C_16  and  C_17
REMARK   10  A    between atoms: C_16  and  C_18
REMARK   11  A    between atoms: C_19  and  C_21
REMARK   12  A    between atoms: C_21  and  N_22
REMARK   13  A    between atoms: N_25  and  C_28
REMARK                            x       y       z     vdW  Elec       q    Type
REMARK                         _______ _______ _______ _____ _____    ______ ____
ROOT
ATOM      1  N   UNL     1      -1.917  -4.830  -2.771  0.00  0.00    -0.266 N 
ATOM      2  C   UNL     1      -1.516  -3.934  -3.697  0.00  0.00    +0.203 C 
ATOM      3  O   UNL     1      -1.384  -2.766  -3.395  0.00  0.00    -0.277 OA
ENDROOT
BRANCH   1   6
ATOM      4  N   UNL     1      -1.219  -3.569   0.609  0.00  0.00    -0.280 N 
ATOM      5  C   UNL     1      -1.020  -3.953  -0.697  0.00  0.00    +0.127 A 
ATOM      6  C   UNL     1      -2.089  -4.428  -1.429  0.00  0.00    +0.140 A 
ATOM      7  C   UNL     1      -3.353  -4.505  -0.815  0.00  0.00    +0.277 A 
ATOM      8  O   UNL     1      -4.314  -4.922  -1.439  0.00  0.00    -0.266 OA
ATOM      9  N   UNL     1      -3.493  -4.116   0.467  0.00  0.00    -0.273 N 
ATOM     10  H   UNL     1      -4.364  -4.169   0.891  0.00  0.00    +0.173 HD
ATOM     11  C   UNL     1      -2.439  -3.660   1.167  0.00  0.00    +0.331 A 
ATOM     12  O   UNL     1      -2.593  -3.320   2.324  0.00  0.00    -0.246 OA
BRANCH   5  13
ATOM     13  N   UNL     1       0.228  -3.864  -1.266  0.00  0.00    -0.343 N 
ATOM     14  H   UNL     1       0.954  -3.442  -0.779  0.00  0.00    +0.144 HD
ATOM     15  H   UNL     1       0.383  -4.223  -2.154  0.00  0.00    +0.144 HD
ENDBRANCH   5  13
BRANCH   4  16
ATOM     16  C   UNL     1      -0.093  -3.062   1.398  0.00  0.00    +0.131 C 
BRANCH  16  18
ATOM     17  C   UNL     1       1.846  -3.718   2.830  0.00  0.00    +0.009 C 
ATOM     18  C   UNL     1       0.598  -4.228   2.107  0.00  0.00    +0.003 C 
ATOM     19  C   UNL     1      -0.362  -4.849   3.123  0.00  0.00    +0.009 C 
ENDBRANCH  16  18
ENDBRANCH   4  16
ENDBRANCH   1   6
BRANCH   1  20
ATOM     20  C   UNL     1      -2.175  -6.219  -3.159  0.00  0.00    +0.117 C 
BRANCH  20  21
ATOM     21  C   UNL     1      -0.861  -7.003  -3.148  0.00  0.00    +0.001 C 
ATOM     22  C   UNL     1      -0.339  -7.103  -1.714  0.00  0.00    +0.009 C 
ATOM     23  C   UNL     1      -1.102  -8.409  -3.703  0.00  0.00    +0.009 C 
ENDBRANCH  20  21
ENDBRANCH   1  20
BRANCH   2  24
ATOM     24  C   UNL     1      -1.232  -4.384  -5.107  0.00  0.00    +0.019 C 
BRANCH  24  25
ATOM     25  N   UNL     1      -0.954  -3.212  -5.949  0.00  0.00    +0.387 N 
ATOM     26  C   UNL     1      -2.158  -2.376  -6.032  0.00  0.00    -0.059 C 
ATOM     27  C   UNL     1      -1.837  -1.097  -6.814  0.00  0.00    +0.086 C 
ATOM     28  N   UNL     1      -1.270  -1.477  -8.117  0.00  0.00    -0.331 N 
ATOM     29  C   UNL     1      -0.161  -2.444  -8.135  0.00  0.00    +0.086 C 
ATOM     30  C   UNL     1      -0.561  -3.658  -7.291  0.00  0.00    -0.059 C 
ATOM     31  H   UNL     1      -0.203  -2.677  -5.540  0.00  0.00    -0.081 HD
BRANCH  28  32
ATOM     32  C   UNL     1      -1.771  -0.936  -9.305  0.00  0.00    +0.065 A 
ATOM     33  C   UNL     1      -1.229   0.234  -9.819  0.00  0.00    +0.026 A 
ATOM     34  C   UNL     1      -1.726   0.766 -10.993  0.00  0.00    +0.002 A 
ATOM     35  C   UNL     1      -2.763   0.136 -11.656  0.00  0.00    +0.003 A 
ATOM     36  C   UNL     1      -3.307  -1.029 -11.147  0.00  0.00    +0.040 A 
ATOM     37  C   UNL     1      -2.811  -1.571  -9.976  0.00  0.00    +0.144 A 
ATOM     38  F   UNL     1      -3.338  -2.712  -9.482  0.00  0.00    -0.204 F 
ENDBRANCH  28  32
ENDBRANCH  24  25
ENDBRANCH   2  24
TORSDOF 9
