REMARK  Name = ZINC13305498
REMARK  8 active torsions:
REMARK  status: ('A' for Active; 'I' for Inactive)
REMARK    1  A    between atoms: C_1  and  C_2
REMARK    2  A    between atoms: C_2  and  N_3
REMARK    3  A    between atoms: C_7  and  C_24
REMARK    4  A    between atoms: C_9  and  C_17
REMARK    5  A    between atoms: C_11  and  C_12
REMARK    6  A    between atoms: C_11  and  O_16
REMARK    7  A    between atoms: C_17  and  C_19
REMARK    8  A    between atoms: C_29  and  N_30
REMARK                            x       y       z     vdW  Elec       q    Type
REMARK                         _______ _______ _______ _____ _____    ______ ____
ROOT
ATOM      1  N   UNL     1      -4.304   5.678   1.370  0.00  0.00    -0.250 N 
ATOM      2  C   UNL     1      -3.371   6.039   0.476  0.00  0.00    +0.305 C 
ATOM      3  O   UNL     1      -3.241   7.219   0.213  0.00  0.00    -0.253 OA
ATOM      4  N   UNL     1      -2.577   5.151  -0.139  0.00  0.00    -0.291 N 
ATOM      5  C   UNL     1      -2.693   3.715   0.125  0.00  0.00    +0.122 C 
ATOM      6  C   UNL     1      -3.203   3.505   1.554  0.00  0.00    +0.145 C 
ATOM      7  C   UNL     1      -4.519   4.273   1.721  0.00  0.00    +0.246 C 
ATOM      8  H   UNL     1      -1.912   5.465  -0.771  0.00  0.00    +0.151 HD
ENDROOT
BRANCH   5   9
ATOM      9  C   UNL     1      -1.342   3.064  -0.029  0.00  0.00    +0.004 A 
ATOM     10  C   UNL     1      -0.195   3.771   0.282  0.00  0.00    +0.008 A 
ATOM     11  C   UNL     1       1.044   3.174   0.142  0.00  0.00    +0.000 A 
ATOM     12  C   UNL     1       1.135   1.870  -0.309  0.00  0.00    +0.002 A 
ATOM     13  C   UNL     1      -0.011   1.164  -0.619  0.00  0.00    +0.033 A 
ATOM     14  C   UNL     1      -1.250   1.763  -0.484  0.00  0.00    +0.131 A 
BRANCH  14  15
ATOM     15  N   UNL     1      -2.478   1.008  -0.822  0.00  0.00    +0.057 N 
ATOM     16  O   UNL     1      -2.397  -0.138  -1.226  0.00  0.00    -0.126 OA
ATOM     17  O   UNL     1      -3.570   1.534  -0.695  0.00  0.00    -0.126 OA
ENDBRANCH  14  15
ENDBRANCH   5   9
BRANCH   7  18
ATOM     18  C   UNL     1      -4.989   4.174   3.173  0.00  0.00    +0.436 C 
ATOM     19  F   UNL     1      -6.253   4.760   3.295  0.00  0.00    -0.166 F 
ATOM     20  F   UNL     1      -5.060   2.829   3.550  0.00  0.00    -0.166 F 
ATOM     21  F   UNL     1      -4.082   4.843   4.003  0.00  0.00    -0.166 F 
ENDBRANCH   7  18
BRANCH   1  23
ATOM     22  C   UNL     1      -6.443   6.857   1.246  0.00  0.00    +0.024 C 
ATOM     23  C   UNL     1      -5.125   6.710   2.009  0.00  0.00    +0.109 C 
ENDBRANCH   1  23
BRANCH   7  24
ATOM     24  O   UNL     1      -5.511   3.712   0.859  0.00  0.00    -0.364 OA
ATOM     25  H   UNL     1      -6.370   4.153   0.909  0.00  0.00    +0.212 HD
ENDBRANCH   7  24
BRANCH   6  26
ATOM     26  C   UNL     1      -3.439   2.036   1.796  0.00  0.00    +0.180 C 
ATOM     27  O   UNL     1      -4.524   1.547   1.555  0.00  0.00    -0.291 OA
BRANCH  26  28
ATOM     28  C   UNL     1      -2.398   1.228   2.303  0.00  0.00    +0.055 A 
ATOM     29  C   UNL     1      -2.407  -0.131   2.600  0.00  0.00    +0.019 A 
ATOM     30  C   UNL     1      -1.244  -0.672   3.082  0.00  0.00    +0.008 A 
ATOM     31  C   UNL     1      -0.159   0.132   3.255  0.00  0.00    +0.046 A 
ATOM     32  S   UNL     1      -0.729   1.685   2.738  0.00  0.00    -0.094 S 
ENDBRANCH  26  28
ENDBRANCH   6  26
TORSDOF 7
