REMARK  Name = ZINC16556801
REMARK  8 active torsions:
REMARK  status: ('A' for Active; 'I' for Inactive)
REMARK    1  A    between atoms: C_3  and  S_8
REMARK    2  A    between atoms: S_8  and  N_11
REMARK    3  A    between atoms: C_15  and  C_18
REMARK    4  A    between atoms: C_18  and  O_20
REMARK    5  A    between atoms: O_20  and  C_21
REMARK    6  A    between atoms: C_21  and  C_22
REMARK    7  A    between atoms: C_25  and  C_31
REMARK    8  A    between atoms: C_27  and  N_28
REMARK                            x       y       z     vdW  Elec       q    Type
REMARK                         _______ _______ _______ _____ _____    ______ ____
ROOT
ATOM      1  C   UNL     1      -3.273  -1.285   0.009  0.00  0.00    +0.312 C 
ATOM      2  O   UNL     1      -4.397  -0.843   0.017  0.00  0.00    -0.250 OA
ENDROOT
BRANCH   1   7
ATOM      3  N   UNL     1      -4.168  -4.941   0.123  0.00  0.00    -0.176 NA
ATOM      4  C   UNL     1      -3.343  -5.431   1.236  0.00  0.00    +0.109 C 
ATOM      5  C   UNL     1      -2.002  -4.690   1.220  0.00  0.00    +0.018 C 
ATOM      6  C   UNL     1      -2.258  -3.181   1.245  0.00  0.00    +0.017 C 
ATOM      7  C   UNL     1      -3.050  -2.775  -0.000  0.00  0.00    +0.113 C 
ATOM      8  C   UNL     1      -4.402  -3.495   0.002  0.00  0.00    +0.124 C 
BRANCH   3   9
ATOM      9  S   UNL     1      -4.822  -5.996  -0.972  0.00  0.00    +0.061 S 
ATOM     10  O   UNL     1      -4.911  -7.255  -0.320  0.00  0.00    -0.153 OA
ATOM     11  O   UNL     1      -5.954  -5.348  -1.535  0.00  0.00    -0.153 OA
BRANCH   9  14
ATOM     12  C   UNL     1      -1.772  -7.329  -3.222  0.00  0.00    +0.040 A 
ATOM     13  C   UNL     1      -2.690  -7.178  -2.201  0.00  0.00    +0.031 A 
ATOM     14  C   UNL     1      -3.651  -6.186  -2.275  0.00  0.00    +0.106 A 
ATOM     15  C   UNL     1      -3.696  -5.348  -3.373  0.00  0.00    +0.031 A 
ATOM     16  C   UNL     1      -2.776  -5.493  -4.393  0.00  0.00    +0.040 A 
ATOM     17  C   UNL     1      -1.813  -6.486  -4.320  0.00  0.00    +0.124 A 
ATOM     18  F   UNL     1      -0.915  -6.631  -5.319  0.00  0.00    -0.205 F 
ENDBRANCH   9  14
ENDBRANCH   3   9
ENDBRANCH   1   7
BRANCH   1  19
ATOM     19  O   UNL     1      -2.223  -0.449   0.009  0.00  0.00    -0.460 OA
BRANCH  19  20
ATOM     20  C   UNL     1      -2.513   0.974   0.019  0.00  0.00    +0.269 C 
BRANCH  20  21
ATOM     21  C   UNL     1      -1.221   1.750   0.017  0.00  0.00    +0.020 A 
ATOM     22  C   UNL     1      -0.013   1.076   0.008  0.00  0.00    +0.010 A 
ATOM     23  C   UNL     1       1.173   1.780   0.000  0.00  0.00    +0.013 A 
ATOM     24  C   UNL     1       1.153   3.176   0.008  0.00  0.00    +0.039 A 
ATOM     25  C   UNL     1      -0.070   3.849   0.023  0.00  0.00    +0.046 A 
ATOM     26  C   UNL     1      -1.249   3.133   0.031  0.00  0.00    +0.133 A 
BRANCH  24  27
ATOM     27  C   UNL     1       2.420   3.937   0.001  0.00  0.00    +0.242 C 
ATOM     28  O   UNL     1       2.399   5.153   0.007  0.00  0.00    -0.270 OA
ATOM     29  N   UNL     1       3.599   3.284  -0.014  0.00  0.00    -0.325 N 
ATOM     30  H   UNL     1       3.615   2.314  -0.019  0.00  0.00    +0.145 HD
ATOM     31  H   UNL     1       4.430   3.784  -0.019  0.00  0.00    +0.145 HD
ENDBRANCH  24  27
BRANCH  26  32
ATOM     32  N   UNL     1      -2.546   3.845   0.047  0.00  0.00    +0.057 N 
ATOM     33  O   UNL     1      -2.572   5.063   0.054  0.00  0.00    -0.126 OA
ATOM     34  O   UNL     1      -3.587   3.214   0.054  0.00  0.00    -0.126 OA
ENDBRANCH  26  32
ENDBRANCH  20  21
ENDBRANCH  19  20
ENDBRANCH   1  19
TORSDOF 8
