REMARK  Name = ZINC13922097
REMARK  10 active torsions:
REMARK  status: ('A' for Active; 'I' for Inactive)
REMARK    1  A    between atoms: C_1  and  C_2
REMARK    2  A    between atoms: C_2  and  O_3
REMARK    3  A    between atoms: O_3  and  C_4
REMARK    4  A    between atoms: C_6  and  C_12
REMARK    5  A    between atoms: C_9  and  O_10
REMARK    6  A    between atoms: N_13  and  N_14
REMARK    7  A    between atoms: C_15  and  C_17
REMARK    8  A    between atoms: N_19  and  C_20
REMARK    9  A    between atoms: C_21  and  C_27
REMARK   10  A    between atoms: C_25  and  C_26
REMARK                            x       y       z     vdW  Elec       q    Type
REMARK                         _______ _______ _______ _____ _____    ______ ____
ROOT
ATOM      1  N   UNL     1       0.930  -7.571   0.441  0.00  0.00    -0.199 N 
ATOM      2  C   UNL     1       1.109  -8.689  -0.290  0.00  0.00    +0.318 C 
ATOM      3  O   UNL     1       0.346  -8.949  -1.199  0.00  0.00    -0.263 OA
ATOM      4  H   UNL     1       1.540  -7.363   1.166  0.00  0.00    +0.178 HD
ENDROOT
BRANCH   2   5
ATOM      5  C   UNL     1       2.244  -9.606   0.016  0.00  0.00    +0.305 C 
ATOM      6  O   UNL     1       3.007  -9.346   0.924  0.00  0.00    -0.265 OA
ATOM      7  N   UNL     1       2.423 -10.724  -0.715  0.00  0.00    -0.277 N 
ATOM      8  H   UNL     1       1.773 -10.970  -1.392  0.00  0.00    +0.155 HD
BRANCH   7   9
ATOM      9  C   UNL     1       3.545 -11.528  -0.499  0.00  0.00    +0.040 A 
ATOM     10  C   UNL     1       3.390 -12.883  -0.233  0.00  0.00    -0.029 A 
ATOM     11  C   UNL     1       4.501 -13.675  -0.019  0.00  0.00    +0.005 A 
ATOM     12  C   UNL     1       5.767 -13.120  -0.070  0.00  0.00    +0.001 A 
ATOM     13  C   UNL     1       5.925 -11.772  -0.334  0.00  0.00    +0.005 A 
ATOM     14  C   UNL     1       4.819 -10.976  -0.555  0.00  0.00    -0.029 A 
ATOM     15  C   UNL     1       4.992  -9.508  -0.850  0.00  0.00    +0.045 C 
ATOM     16  C   UNL     1       2.011 -13.487  -0.176  0.00  0.00    +0.045 C 
ENDBRANCH   7   9
ENDBRANCH   2   5
BRANCH   1  18
ATOM     17  C   UNL     1      -0.308  -5.631   0.858  0.00  0.00    +0.138 C 
ATOM     18  N   UNL     1      -0.136  -6.709   0.153  0.00  0.00    -0.187 NA
BRANCH  17  21
ATOM     19  C   UNL     1      -2.670  -2.717   1.024  0.00  0.00    +0.163 A 
ATOM     20  C   UNL     1      -1.617  -3.564   1.312  0.00  0.00    +0.059 A 
ATOM     21  C   UNL     1      -1.429  -4.724   0.555  0.00  0.00    -0.001 A 
ATOM     22  C   UNL     1      -2.308  -5.022  -0.490  0.00  0.00    +0.028 A 
ATOM     23  C   UNL     1      -3.357  -4.171  -0.772  0.00  0.00    +0.063 A 
ATOM     24  C   UNL     1      -3.546  -3.022  -0.016  0.00  0.00    +0.173 A 
ATOM     25 BR   UNL     1      -4.545  -4.575  -2.187  0.00  0.00    -0.046 Br
BRANCH  24  26
ATOM     26  O   UNL     1      -4.584  -2.190  -0.294  0.00  0.00    -0.503 OA
ATOM     27  H   UNL     1      -4.372  -1.499  -0.938  0.00  0.00    +0.292 HD
ENDBRANCH  24  26
BRANCH  19  28
ATOM     28  O   UNL     1      -2.855  -1.588   1.759  0.00  0.00    -0.489 OA
BRANCH  28  30
ATOM     29  C   UNL     1      -2.287  -0.033   3.520  0.00  0.00    +0.048 C 
ATOM     30  C   UNL     1      -1.919  -1.337   2.810  0.00  0.00    +0.226 C 
ENDBRANCH  28  30
ENDBRANCH  19  28
ENDBRANCH  17  21
ENDBRANCH   1  18
TORSDOF 7
