REMARK  Name = ZINC04436369
REMARK  7 active torsions:
REMARK  status: ('A' for Active; 'I' for Inactive)
REMARK    1  A    between atoms: C_1  and  C_2
REMARK    2  A    between atoms: C_2  and  C_4
REMARK    3  A    between atoms: C_6  and  C_18
REMARK    4  A    between atoms: C_12  and  C_13
REMARK    5  A    between atoms: C_12  and  O_17
REMARK    6  A    between atoms: N_20  and  C_28
REMARK    7  A    between atoms: C_22  and  C_23
REMARK                            x       y       z     vdW  Elec       q    Type
REMARK                         _______ _______ _______ _____ _____    ______ ____
ROOT
ATOM      1  C   UNL     1       3.035   3.195   2.877  0.00  0.00    +0.139 C 
ATOM      2  C   UNL     1       3.567   3.509   1.474  0.00  0.00    +0.123 C 
ATOM      3  N   UNL     1       4.712   4.415   1.585  0.00  0.00    -0.292 N 
ATOM      4  C   UNL     1       5.504   4.408   2.668  0.00  0.00    +0.302 C 
ATOM      5  O   UNL     1       6.448   5.174   2.705  0.00  0.00    -0.253 OA
ATOM      6  N   UNL     1       5.297   3.591   3.711  0.00  0.00    -0.264 N 
ATOM      7  C   UNL     1       4.186   2.638   3.721  0.00  0.00    +0.243 C 
ATOM      8  H   UNL     1       4.901   5.032   0.862  0.00  0.00    +0.151 HD
ATOM      9  H   UNL     1       5.895   3.632   4.473  0.00  0.00    +0.153 HD
ENDROOT
BRANCH   2  10
ATOM     10  C   UNL     1       2.483   4.166   0.660  0.00  0.00    +0.020 A 
ATOM     11  C   UNL     1       2.358   5.489   0.422  0.00  0.00    +0.120 A 
ATOM     12  N   UNL     1       1.252   5.673  -0.346  0.00  0.00    -0.239 N 
ATOM     13  N   UNL     1       0.681   4.418  -0.593  0.00  0.00    -0.166 NA
ATOM     14  C   UNL     1       1.420   3.506   0.007  0.00  0.00    +0.105 A 
BRANCH  12  15
ATOM     15  C   UNL     1       0.767   6.903  -0.809  0.00  0.00    +0.065 A 
ATOM     16  C   UNL     1       1.431   8.079  -0.484  0.00  0.00    +0.028 A 
ATOM     17  C   UNL     1       0.953   9.290  -0.946  0.00  0.00    +0.002 A 
ATOM     18  C   UNL     1      -0.191   9.333  -1.722  0.00  0.00    +0.000 A 
ATOM     19  C   UNL     1      -0.856   8.164  -2.044  0.00  0.00    +0.002 A 
ATOM     20  C   UNL     1      -0.381   6.950  -1.589  0.00  0.00    +0.028 A 
ENDBRANCH  12  15
BRANCH  14  21
ATOM     21  C   UNL     1       1.175   2.048   0.002  0.00  0.00    +0.040 A 
ATOM     22  C   UNL     1      -0.017   1.374   0.010  0.00  0.00    +0.018 A 
ATOM     23  C   UNL     1       0.002  -0.004   0.002  0.00  0.00    +0.008 A 
ATOM     24  C   UNL     1       1.196  -0.649  -0.013  0.00  0.00    +0.046 A 
ATOM     25  S   UNL     1       2.355   0.709  -0.017  0.00  0.00    -0.095 S 
ENDBRANCH  14  21
ENDBRANCH   2  10
BRANCH   7  26
ATOM     26  C   UNL     1       4.651   1.304   3.134  0.00  0.00    +0.436 C 
ATOM     27  F   UNL     1       5.706   0.798   3.902  0.00  0.00    -0.166 F 
ATOM     28  F   UNL     1       3.589   0.394   3.145  0.00  0.00    -0.166 F 
ATOM     29  F   UNL     1       5.084   1.499   1.818  0.00  0.00    -0.166 F 
ENDBRANCH   7  26
BRANCH   1  31
ATOM     30  C   UNL     1       1.457   4.374   4.589  0.00  0.00    +0.086 C 
ATOM     31  C   UNL     1       2.508   4.455   3.512  0.00  0.00    +0.140 C 
ATOM     32  O   UNL     1       2.927   5.531   3.158  0.00  0.00    -0.297 OA
ENDBRANCH   1  31
BRANCH   7  33
ATOM     33  O   UNL     1       3.741   2.439   5.065  0.00  0.00    -0.364 OA
ATOM     34  H   UNL     1       4.421   2.090   5.657  0.00  0.00    +0.212 HD
ENDBRANCH   7  33
TORSDOF 6
