REMARK  Name = ZINC03228823
REMARK  10 active torsions:
REMARK  status: ('A' for Active; 'I' for Inactive)
REMARK    1  A    between atoms: C_7  and  C_11
REMARK    2  A    between atoms: C_11  and  C_12
REMARK    3  A    between atoms: C_12  and  C_14
REMARK    4  A    between atoms: C_12  and  N_30
REMARK    5  A    between atoms: C_14  and  O_16
REMARK    6  A    between atoms: O_16  and  C_17
REMARK    7  A    between atoms: C_17  and  C_18
REMARK    8  A    between atoms: N_20  and  C_21
REMARK    9  A    between atoms: C_25  and  N_27
REMARK   10  A    between atoms: C_31  and  C_33
REMARK                            x       y       z     vdW  Elec       q    Type
REMARK                         _______ _______ _______ _____ _____    ______ ____
ROOT
ATOM      1  C   UNL     1       3.951   9.859   0.542  0.00  0.00    +0.186 C 
ENDROOT
BRANCH   1   2
ATOM      2  N   UNL     1       3.849  11.316   0.657  0.00  0.00    -0.298 N 
ATOM      3  C   UNL     1       4.840  12.017   1.243  0.00  0.00    +0.245 C 
ATOM      4  O   UNL     1       5.819  11.440   1.675  0.00  0.00    -0.270 OA
ATOM      5  H   UNL     1       2.963  11.838   0.266  0.00  0.00    +0.150 HD
BRANCH   3   6
ATOM      6  C   UNL     1       4.736  13.486   1.359  0.00  0.00    +0.037 A 
ATOM      7  C   UNL     1       3.615  14.151   0.859  0.00  0.00    +0.016 A 
ATOM      8  C   UNL     1       3.521  15.521   0.976  0.00  0.00    +0.039 A 
ATOM      9  C   UNL     1       4.542  16.240   1.579  0.00  0.00    +0.123 A 
ATOM     10  C   UNL     1       5.660  15.585   2.072  0.00  0.00    +0.039 A 
ATOM     11  C   UNL     1       5.762  14.215   1.966  0.00  0.00    +0.016 A 
ATOM     12  F   UNL     1       4.447  17.584   1.686  0.00  0.00    -0.205 F 
ENDBRANCH   3   6
ENDBRANCH   1   2
BRANCH   1  13
ATOM     13  C   UNL     1       2.570   9.264   0.447  0.00  0.00    +0.328 C 
ATOM     14  O   UNL     1       1.599   9.983   0.473  0.00  0.00    -0.249 OA
BRANCH  13  15
ATOM     15  O   UNL     1       2.418   7.935   0.333  0.00  0.00    -0.454 OA
BRANCH  15  16
ATOM     16  C   UNL     1       1.059   7.432   0.247  0.00  0.00    +0.328 C 
BRANCH  16  17
ATOM     17  C   UNL     1       1.085   5.931   0.125  0.00  0.00    +0.255 C 
ATOM     18  O   UNL     1       2.146   5.342   0.112  0.00  0.00    -0.272 OA
ATOM     19  N   UNL     1      -0.069   5.242   0.030  0.00  0.00    -0.283 N 
ATOM     20  H   UNL     1      -1.026   5.779  -0.046  0.00  0.00    +0.155 HD
BRANCH  19  21
ATOM     21  C   UNL     1      -0.051   3.842   0.028  0.00  0.00    +0.036 A 
ATOM     22  C   UNL     1       0.907   3.158   0.766  0.00  0.00    +0.023 A 
ATOM     23  C   UNL     1       0.922   1.777   0.762  0.00  0.00    +0.004 A 
ATOM     24  C   UNL     1      -0.015   1.076   0.025  0.00  0.00    +0.033 A 
ATOM     25  C   UNL     1      -0.966   1.754  -0.715  0.00  0.00    +0.128 A 
ATOM     26  C   UNL     1      -0.990   3.135  -0.711  0.00  0.00    +0.056 A 
BRANCH  25  27
ATOM     27  N   UNL     1      -1.963   0.999  -1.506  0.00  0.00    +0.056 N 
ATOM     28  O   UNL     1      -1.945  -0.218  -1.506  0.00  0.00    -0.126 OA
ATOM     29  O   UNL     1      -2.801   1.596  -2.158  0.00  0.00    -0.126 OA
ENDBRANCH  25  27
ENDBRANCH  19  21
ENDBRANCH  16  17
ENDBRANCH  15  16
ENDBRANCH  13  15
ENDBRANCH   1  13
BRANCH   1  30
ATOM     30  C   UNL     1       4.748   9.502  -0.715  0.00  0.00    +0.071 C 
BRANCH  30  37
ATOM     31  C   UNL     1       8.579   7.675   1.273  0.00  0.00    +0.001 A 
ATOM     32  C   UNL     1       9.691   8.500   1.165  0.00  0.00    +0.002 A 
ATOM     33  C   UNL     1       9.602   9.717   0.526  0.00  0.00    +0.026 A 
ATOM     34  C   UNL     1       8.389  10.126  -0.017  0.00  0.00    +0.047 A 
ATOM     35  C   UNL     1       7.266   9.286   0.095  0.00  0.00    +0.003 A 
ATOM     36  C   UNL     1       7.378   8.056   0.747  0.00  0.00    +0.010 A 
ATOM     37  C   UNL     1       6.165   9.991  -0.567  0.00  0.00    -0.020 A 
ATOM     38  C   UNL     1       6.661  11.153  -1.022  0.00  0.00    +0.087 A 
ATOM     39  N   UNL     1       7.987  11.253  -0.698  0.00  0.00    -0.360 N 
ATOM     40  H   UNL     1       8.707  12.060  -0.900  0.00  0.00    +0.165 HD
ENDBRANCH  30  37
ENDBRANCH   1  30
TORSDOF 10
