REMARK  Name = ZINC24216788
REMARK  14 active torsions:
REMARK  status: ('A' for Active; 'I' for Inactive)
REMARK    1  A    between atoms: C_1  and  C_2
REMARK    2  A    between atoms: C_2  and  O_3
REMARK    3  A    between atoms: O_3  and  C_4
REMARK    4  A    between atoms: C_6  and  C_14
REMARK    5  A    between atoms: C_9  and  O_10
REMARK    6  A    between atoms: O_10  and  C_11
REMARK    7  A    between atoms: C_14  and  N_15
REMARK    8  A    between atoms: N_15  and  C_16
REMARK    9  A    between atoms: N_15  and  C_31
REMARK   10  A    between atoms: C_16  and  C_17
REMARK   11  A    between atoms: N_19  and  C_20
REMARK   12  A    between atoms: C_21  and  C_30
REMARK   13  A    between atoms: C_22  and  C_29
REMARK   14  A    between atoms: C_25  and  N_26
REMARK                            x       y       z     vdW  Elec       q    Type
REMARK                         _______ _______ _______ _____ _____    ______ ____
ROOT
ATOM      1  N   UNL     1       3.857   0.077   4.914  0.00  0.00    +0.390 N 
ATOM      2  H   UNL     1       4.534   0.553   5.638  0.00  0.00    -0.080 HD
ENDROOT
BRANCH   1   3
ATOM      3  C   UNL     1       2.973   1.117   4.371  0.00  0.00    -0.068 C 
ATOM      4  C   UNL     1       2.987   1.336   2.856  0.00  0.00    -0.017 C 
ATOM      5  C   UNL     1       3.631   2.369   3.785  0.00  0.00    -0.017 C 
ENDBRANCH   1   3
BRANCH   1   6
ATOM      6  C   UNL     1       3.086  -0.951   5.625  0.00  0.00    -0.042 C 
BRANCH   6   9
ATOM      7  C   UNL     1       0.604   0.773   7.892  0.00  0.00    +0.162 A 
ATOM      8  C   UNL     1       1.189   0.215   6.767  0.00  0.00    +0.051 A 
ATOM      9  C   UNL     1       2.450  -0.345   6.849  0.00  0.00    -0.060 A 
ATOM     10  C   UNL     1       3.130  -0.351   8.053  0.00  0.00    +0.005 A 
ATOM     11  C   UNL     1       2.552   0.204   9.180  0.00  0.00    +0.050 A 
ATOM     12  C   UNL     1       1.291   0.773   9.102  0.00  0.00    +0.168 A 
BRANCH   7  13
ATOM     13  O   UNL     1      -0.636   1.325   7.812  0.00  0.00    -0.489 OA
BRANCH  13  15
ATOM     14  C   UNL     1      -2.655   1.957   6.643  0.00  0.00    +0.048 C 
ATOM     15  C   UNL     1      -1.279   1.295   6.536  0.00  0.00    +0.226 C 
ENDBRANCH  13  15
ENDBRANCH   7  13
BRANCH  12  16
ATOM     16  O   UNL     1       0.723   1.324  10.208  0.00  0.00    -0.431 OA
BRANCH  16  17
ATOM     17  C   UNL     1       1.486   1.288  11.416  0.00  0.00    +0.541 C 
ATOM     18  F   UNL     1       1.757  -0.041  11.756  0.00  0.00    -0.166 F 
ATOM     19  F   UNL     1       2.689   1.977  11.228  0.00  0.00    -0.166 F 
ENDBRANCH  16  17
ENDBRANCH  12  16
ENDBRANCH   6   9
ENDBRANCH   1   6
BRANCH   1  20
ATOM     20  C   UNL     1       4.679  -0.521   3.853  0.00  0.00    +0.020 C 
BRANCH  20  21
ATOM     21  C   UNL     1       5.977   0.236   3.737  0.00  0.00    +0.201 C 
ATOM     22  O   UNL     1       6.584   0.242   2.687  0.00  0.00    -0.278 OA
ATOM     23  N   UNL     1       6.464   0.907   4.800  0.00  0.00    -0.285 N 
ATOM     24  H   UNL     1       5.902   0.921   5.746  0.00  0.00    +0.155 HD
BRANCH  23  25
ATOM     25  C   UNL     1       7.684   1.584   4.701  0.00  0.00    +0.067 A 
ATOM     26  C   UNL     1       8.831   0.901   4.317  0.00  0.00    -0.024 A 
ATOM     27  C   UNL     1      10.033   1.572   4.221  0.00  0.00    -0.046 A 
ATOM     28  C   UNL     1      10.097   2.924   4.505  0.00  0.00    +0.006 A 
ATOM     29  C   UNL     1       8.957   3.608   4.888  0.00  0.00    +0.035 A 
ATOM     30  C   UNL     1       7.750   2.943   4.981  0.00  0.00    +0.148 A 
ATOM     31  C   UNL     1      11.278   0.831   3.805  0.00  0.00    +0.044 C 
ATOM     32  C   UNL     1       8.762  -0.572   4.007  0.00  0.00    +0.046 C 
BRANCH  30  33
ATOM     33  N   UNL     1       6.529   3.676   5.384  0.00  0.00    +0.058 N 
ATOM     34  O   UNL     1       6.561   4.887   5.514  0.00  0.00    -0.126 OA
ATOM     35  O   UNL     1       5.493   3.069   5.586  0.00  0.00    -0.126 OA
ENDBRANCH  30  33
ENDBRANCH  23  25
ENDBRANCH  20  21
ENDBRANCH   1  20
TORSDOF 11
