REMARK  Name = ZINC03840955
REMARK  14 active torsions:
REMARK  status: ('A' for Active; 'I' for Inactive)
REMARK    1  A    between atoms: C_1  and  C_2
REMARK    2  A    between atoms: C_10  and  C_12
REMARK    3  A    between atoms: C_12  and  N_70
REMARK    4  A    between atoms: C_13  and  N_70
REMARK    5  A    between atoms: C_14  and  N_70
REMARK    6  A    between atoms: C_16  and  C_36
REMARK    7  A    between atoms: C_19  and  O_35
REMARK    8  A    between atoms: C_21  and  C_25
REMARK    9  A    between atoms: C_25  and  C_27
REMARK   10  A    between atoms: C_25  and  C_28
REMARK   11  A    between atoms: N_30  and  C_31
REMARK   12  A    between atoms: C_31  and  C_32
REMARK   13  A    between atoms: C_32  and  O_33
REMARK   14  A    between atoms: O_33  and  C_34
REMARK                            x       y       z     vdW  Elec       q    Type
REMARK                         _______ _______ _______ _____ _____    ______ ____
ROOT
ATOM      1  C   UNL     1       0.506  -2.759  -1.299  0.00  0.00    +0.014 C 
ATOM      2  C   UNL     1       0.830  -2.234   0.102  0.00  0.00    +0.042 C 
ATOM      3  C   UNL     1       0.528  -0.742   0.168  0.00  0.00    +0.057 A 
ATOM      4  C   UNL     1       1.539   0.162   0.097  0.00  0.00    +0.015 A 
ATOM      5  S   UNL     1       0.684   1.711   0.213  0.00  0.00    -0.057 S 
ATOM      6  C   UNL     1      -0.922   1.057   0.345  0.00  0.00    +0.165 A 
ATOM      7  N   UNL     1      -0.697  -0.239   0.294  0.00  0.00    -0.229 NA
ATOM      8  N   UNL     1      -2.132   1.730   0.468  0.00  0.00    -0.266 N 
ATOM      9  C   UNL     1      -2.153   3.078   0.503  0.00  0.00    +0.202 C 
ATOM     10  O   UNL     1      -1.116   3.703   0.428  0.00  0.00    -0.277 OA
ATOM     11  C   UNL     1       2.998  -0.105  -0.043  0.00  0.00    +0.051 C 
ATOM     12  C   UNL     1       3.192  -1.570  -0.476  0.00  0.00    -0.022 C 
ATOM     13  C   UNL     1       2.307  -2.462   0.402  0.00  0.00    +0.033 C 
ATOM     14  C   UNL     1       2.611  -2.181   1.872  0.00  0.00    +0.123 C 
ATOM     15  C   UNL     1       4.078  -2.519   2.153  0.00  0.00    +0.029 C 
ATOM     16  C   UNL     1       4.984  -1.677   1.255  0.00  0.00    +0.007 C 
ATOM     17  C   UNL     1       4.657  -1.949  -0.215  0.00  0.00    +0.008 C 
ATOM     18  C   UNL     1       2.843  -1.757  -1.954  0.00  0.00    +0.012 C 
ATOM     19  H   UNL     1      -2.961   1.231   0.529  0.00  0.00    +0.157 HD
ENDROOT
BRANCH  15  20
ATOM     20  C   UNL     1       4.397  -2.221   3.620  0.00  0.00    +0.077 C 
ATOM     21  C   UNL     1       4.303  -0.714   3.866  0.00  0.00    +0.017 C 
BRANCH  20  22
ATOM     22  C   UNL     1       5.792  -2.696   3.937  0.00  0.00    +0.216 C 
ATOM     23  O   UNL     1       6.419  -3.328   3.114  0.00  0.00    -0.276 OA
ATOM     24  N   UNL     1       6.342  -2.418   5.136  0.00  0.00    -0.313 N 
ATOM     25  H   UNL     1       5.840  -1.913   5.794  0.00  0.00    +0.149 HD
BRANCH  24  26
ATOM     26  C   UNL     1       7.697  -2.879   5.444  0.00  0.00    +0.132 C 
BRANCH  26  27
ATOM     27  C   UNL     1       8.078  -2.434   6.858  0.00  0.00    +0.178 C 
BRANCH  27  28
ATOM     28  O   UNL     1       7.232  -3.086   7.807  0.00  0.00    -0.381 OA
ATOM     29  C   UNL     1       7.506  -2.738   9.165  0.00  0.00    +0.194 C 
ENDBRANCH  27  28
ENDBRANCH  26  27
ENDBRANCH  24  26
ENDBRANCH  20  22
ENDBRANCH  15  20
BRANCH  14  30
ATOM     30  O   UNL     1       1.768  -2.987   2.697  0.00  0.00    -0.391 OA
ATOM     31  H   UNL     1       1.849  -2.801   3.643  0.00  0.00    +0.210 HD
ENDBRANCH  14  30
BRANCH   9  32
ATOM     32  C   UNL     1      -3.464   3.808   0.636  0.00  0.00    +0.018 C 
BRANCH  32  35
ATOM     33  C   UNL     1      -2.695   5.714  -0.643  0.00  0.00    -0.096 C 
ATOM     34  C   UNL     1      -4.438   5.992   1.015  0.00  0.00    -0.096 C 
ATOM     35  N   UNL     1      -3.200   5.261   0.671  0.00  0.00    +0.382 N 
ATOM     36  H   UNL     1      -2.489   5.454   1.386  0.00  0.00    -0.082 HD
ENDBRANCH  32  35
ENDBRANCH   9  32
TORSDOF 8
