REMARK  Name = ZINC16385761
REMARK  6 active torsions:
REMARK  status: ('A' for Active; 'I' for Inactive)
REMARK    1  A    between atoms: C_4  and  C_10
REMARK    2  A    between atoms: C_6  and  N_7
REMARK    3  A    between atoms: N_11  and  N_12
REMARK    4  A    between atoms: C_13  and  C_15
REMARK    5  A    between atoms: C_15  and  C_16
REMARK    6  A    between atoms: C_22  and  C_24
REMARK                            x       y       z     vdW  Elec       q    Type
REMARK                         _______ _______ _______ _____ _____    ______ ____
ROOT
ATOM      1  C   UNL     1       0.987   1.957   1.783  0.00  0.00    +0.162 C 
ENDROOT
BRANCH   1   2
ATOM      2  C   UNL     1       2.171   1.033   1.900  0.00  0.00    +0.112 A 
ATOM      3  N   UNL     1       3.139   0.783   1.040  0.00  0.00    -0.144 NA
ATOM      4  N   UNL     1       4.070  -0.029   1.295  0.00  0.00    -0.126 NA
ATOM      5  C   UNL     1       4.133  -0.683   2.447  0.00  0.00    +0.188 A 
ATOM      6  S   UNL     1       2.670  -0.033   3.250  0.00  0.00    -0.035 S 
ATOM      7  N   UNL     1       5.068  -1.604   2.902  0.00  0.00    -0.259 N 
ATOM      8  C   UNL     1       6.110  -1.950   2.120  0.00  0.00    +0.251 C 
ATOM      9  O   UNL     1       6.231  -1.456   1.016  0.00  0.00    -0.270 OA
ATOM     10  H   UNL     1       4.971  -1.998   3.783  0.00  0.00    +0.157 HD
BRANCH   8  11
ATOM     11  C   UNL     1       7.105  -2.930   2.604  0.00  0.00    +0.056 A 
ATOM     12  C   UNL     1       8.188  -3.301   1.799  0.00  0.00    +0.031 A 
ATOM     13  C   UNL     1       9.094  -4.220   2.302  0.00  0.00    +0.037 A 
ATOM     14  C   UNL     1       8.896  -4.743   3.568  0.00  0.00    +0.126 A 
ATOM     15  N   UNL     1       7.862  -4.378   4.301  0.00  0.00    -0.261 NA
ATOM     16  C   UNL     1       6.977  -3.504   3.870  0.00  0.00    +0.123 A 
ATOM     17 BR   UNL     1      10.583  -4.758   1.267  0.00  0.00    -0.049 Br
ENDBRANCH   8  11
ENDBRANCH   1   2
BRANCH   1  19
ATOM     18  N   UNL     1      -1.350   1.841   0.982  0.00  0.00    -0.207 N 
ATOM     19  C   UNL     1      -0.177   1.209   1.186  0.00  0.00    +0.239 C 
ATOM     20  O   UNL     1      -0.057   0.040   0.885  0.00  0.00    -0.274 OA
ATOM     21  H   UNL     1      -1.446   2.775   1.222  0.00  0.00    +0.177 HD
BRANCH  18  23
ATOM     22  C   UNL     1      -3.525   1.779   0.125  0.00  0.00    +0.142 C 
ATOM     23  N   UNL     1      -2.431   1.147   0.421  0.00  0.00    -0.188 NA
BRANCH  22  27
ATOM     24  C   UNL     1      -3.595   6.026   0.152  0.00  0.00    +0.036 A 
ATOM     25  C   UNL     1      -4.764   5.321   0.367  0.00  0.00    +0.054 A 
ATOM     26  C   UNL     1      -4.752   3.936   0.360  0.00  0.00    +0.188 A 
ATOM     27  C   UNL     1      -3.549   3.253   0.134  0.00  0.00    +0.043 A 
ATOM     28  C   UNL     1      -2.374   3.976  -0.077  0.00  0.00    +0.046 A 
ATOM     29  C   UNL     1      -2.405   5.355  -0.072  0.00  0.00    +0.127 A 
ATOM     30  O   UNL     1      -5.901   3.243   0.572  0.00  0.00    -0.287 OA
BRANCH  29  31
ATOM     31  N   UNL     1      -1.159   6.121  -0.301  0.00  0.00    +0.056 N 
ATOM     32  O   UNL     1      -1.182   7.339  -0.292  0.00  0.00    -0.126 OA
ATOM     33  O   UNL     1      -0.110   5.534  -0.498  0.00  0.00    -0.126 OA
ENDBRANCH  29  31
ENDBRANCH  22  27
ENDBRANCH  18  23
ENDBRANCH   1  19
TORSDOF 6
