REMARK  Name = ZINC23820248
REMARK  7 active torsions:
REMARK  status: ('A' for Active; 'I' for Inactive)
REMARK    1  A    between atoms: C_1  and  C_2
REMARK    2  A    between atoms: C_2  and  C_23
REMARK    3  A    between atoms: N_5  and  C_9
REMARK    4  A    between atoms: C_9  and  C_10
REMARK    5  A    between atoms: N_12  and  C_13
REMARK    6  A    between atoms: C_16  and  O_19
REMARK    7  A    between atoms: O_19  and  C_20
REMARK                            x       y       z     vdW  Elec       q    Type
REMARK                         _______ _______ _______ _____ _____    ______ ____
ROOT
ATOM      1  C   UNL     1       1.748  -1.221   1.242  0.00  0.00    +0.047 C 
ATOM      2  C   UNL     1       1.416  -0.407  -0.010  0.00  0.00    +0.135 C 
ATOM      3  C   UNL     1       2.164   0.911  -0.006  0.00  0.00    +0.251 C 
ATOM      4  O   UNL     1       3.366   1.071  -0.009  0.00  0.00    -0.272 OA
ATOM      5  N   UNL     1       1.216   1.869   0.000  0.00  0.00    -0.215 N 
ATOM      6  C   UNL     1      -0.015   1.344   0.001  0.00  0.00    +0.310 C 
ATOM      7  O   UNL     1      -1.032   2.009   0.002  0.00  0.00    -0.252 OA
ATOM      8  N   UNL     1       0.000  -0.001  -0.004  0.00  0.00    -0.281 N 
ATOM      9  H   UNL     1      -0.791  -0.765  -0.005  0.00  0.00    +0.152 HD
ENDROOT
BRANCH   2  10
ATOM     10  C   UNL     1       1.737  -1.196  -1.253  0.00  0.00    -0.012 A 
ATOM     11  C   UNL     1       3.000  -1.123  -1.810  0.00  0.00    +0.010 A 
ATOM     12  C   UNL     1       3.301  -1.848  -2.948  0.00  0.00    +0.050 A 
ATOM     13  C   UNL     1       2.332  -2.642  -3.539  0.00  0.00    +0.166 A 
ATOM     14  C   UNL     1       1.058  -2.711  -2.982  0.00  0.00    +0.167 A 
ATOM     15  C   UNL     1       0.765  -1.986  -1.839  0.00  0.00    +0.055 A 
ATOM     16  O   UNL     1       0.295  -3.550  -3.742  0.00  0.00    -0.453 OA
ATOM     17  C   UNL     1       1.228  -4.311  -4.531  0.00  0.00    +0.466 C 
ATOM     18  O   UNL     1       2.367  -3.438  -4.648  0.00  0.00    -0.453 OA
ENDBRANCH   2  10
BRANCH   5  19
ATOM     19  C   UNL     1       1.498   3.306   0.004  0.00  0.00    +0.214 C 
BRANCH  19  20
ATOM     20  C   UNL     1       1.599   3.794   1.427  0.00  0.00    +0.235 C 
ATOM     21  O   UNL     1       1.450   3.018   2.346  0.00  0.00    -0.274 OA
ATOM     22  N   UNL     1       1.854   5.094   1.677  0.00  0.00    -0.284 N 
ATOM     23  H   UNL     1       2.065   5.783   0.846  0.00  0.00    +0.155 HD
BRANCH  22  24
ATOM     24  C   UNL     1       1.852   5.567   2.995  0.00  0.00    +0.034 A 
ATOM     25  C   UNL     1       1.398   6.850   3.272  0.00  0.00    +0.027 A 
ATOM     26  C   UNL     1       1.392   7.314   4.573  0.00  0.00    +0.047 A 
ATOM     27  C   UNL     1       1.849   6.503   5.601  0.00  0.00    +0.127 A 
ATOM     28  C   UNL     1       2.306   5.223   5.325  0.00  0.00    +0.047 A 
ATOM     29  C   UNL     1       2.308   4.755   4.025  0.00  0.00    +0.027 A 
BRANCH  27  30
ATOM     30  O   UNL     1       1.848   6.962   6.881  0.00  0.00    -0.434 OA
BRANCH  30  31
ATOM     31  C   UNL     1       1.363   8.290   7.093  0.00  0.00    +0.541 C 
ATOM     32  F   UNL     1       2.147   9.194   6.369  0.00  0.00    -0.166 F 
ATOM     33  F   UNL     1       0.035   8.375   6.662  0.00  0.00    -0.166 F 
ENDBRANCH  30  31
ENDBRANCH  27  30
ENDBRANCH  22  24
ENDBRANCH  19  20
ENDBRANCH   5  19
TORSDOF 6
