REMARK  Name = ZINC23743938
REMARK  9 active torsions:
REMARK  status: ('A' for Active; 'I' for Inactive)
REMARK    1  A    between atoms: C_4  and  O_28
REMARK    2  A    between atoms: C_5  and  N_7
REMARK    3  A    between atoms: N_7  and  S_8
REMARK    4  A    between atoms: S_8  and  C_11
REMARK    5  A    between atoms: C_14  and  N_20
REMARK    6  A    between atoms: C_15  and  N_17
REMARK    7  A    between atoms: N_20  and  C_21
REMARK    8  A    between atoms: C_21  and  C_22
REMARK    9  A    between atoms: O_28  and  C_29
REMARK                            x       y       z     vdW  Elec       q    Type
REMARK                         _______ _______ _______ _____ _____    ______ ____
ROOT
ATOM      1  C   UNL     1       0.853   0.737  -4.739  0.00  0.00    +0.111 A 
ATOM      2  C   UNL     1       1.654   0.230  -3.732  0.00  0.00    +0.031 A 
ATOM      3  C   UNL     1       1.394   0.549  -2.414  0.00  0.00    +0.027 A 
ATOM      4  C   UNL     1       0.319   1.372  -2.099  0.00  0.00    +0.058 A 
ATOM      5  C   UNL     1      -0.484   1.879  -3.113  0.00  0.00    +0.149 A 
ATOM      6  C   UNL     1      -0.214   1.560  -4.430  0.00  0.00    +0.063 A 
ENDROOT
BRANCH   1   7
ATOM      7  S   UNL     1       1.192   0.332  -6.420  0.00  0.00    +0.073 S 
ATOM      8  O   UNL     1       1.913  -0.892  -6.405  0.00  0.00    -0.150 OA
ATOM      9  O   UNL     1      -0.029   0.489  -7.130  0.00  0.00    -0.150 OA
BRANCH   7  10
ATOM     10  N   UNL     1       2.229   1.485  -7.001  0.00  0.00    -0.213 N 
ATOM     11  H   UNL     1       1.934   2.110  -7.856  0.00  0.00    +0.174 HD
BRANCH  10  16
ATOM     12  C   UNL     1       5.419   0.749  -5.324  0.00  0.00    +0.002 A 
ATOM     13  C   UNL     1       5.963   2.016  -5.222  0.00  0.00    +0.004 A 
ATOM     14  C   UNL     1       5.272   3.111  -5.708  0.00  0.00    +0.048 A 
ATOM     15  C   UNL     1       4.031   2.940  -6.300  0.00  0.00    +0.149 A 
ATOM     16  C   UNL     1       3.483   1.664  -6.404  0.00  0.00    +0.090 A 
ATOM     17  C   UNL     1       4.180   0.571  -5.909  0.00  0.00    +0.028 A 
BRANCH  15  18
ATOM     18  O   UNL     1       3.350   4.016  -6.778  0.00  0.00    -0.432 OA
BRANCH  18  19
ATOM     19  C   UNL     1       3.973   5.294  -6.636  0.00  0.00    +0.541 C 
ATOM     20  F   UNL     1       4.191   5.559  -5.280  0.00  0.00    -0.166 F 
ATOM     21  F   UNL     1       5.197   5.293  -7.314  0.00  0.00    -0.166 F 
ENDBRANCH  18  19
ENDBRANCH  15  18
ENDBRANCH  10  16
ENDBRANCH   7  10
ENDBRANCH   1   7
BRANCH   5  22
ATOM     22  N   UNL     1      -1.626   2.760  -2.783  0.00  0.00    +0.058 N 
ATOM     23  O   UNL     1      -2.393   3.117  -3.659  0.00  0.00    -0.126 OA
ATOM     24  O   UNL     1      -1.798   3.130  -1.635  0.00  0.00    -0.126 OA
ENDBRANCH   5  22
BRANCH   4  25
ATOM     25  N   UNL     1       0.049   1.692  -0.767  0.00  0.00    -0.340 N 
ATOM     26  H   UNL     1      -0.743   2.416  -0.524  0.00  0.00    +0.146 HD
BRANCH  25  27
ATOM     27  C   UNL     1       0.821   1.064   0.308  0.00  0.00    +0.133 C 
BRANCH  27  28
ATOM     28  C   UNL     1       0.330   1.584   1.661  0.00  0.00    +0.135 C 
ATOM     29  C   UNL     1       1.187   1.000   2.805  0.00  0.00    +0.035 C 
ATOM     30  C   UNL     1       0.174   0.755   3.946  0.00  0.00    +0.031 C 
ATOM     31  C   UNL     1      -1.176   1.220   3.355  0.00  0.00    +0.160 C 
ATOM     32  O   UNL     1      -1.010   1.114   1.923  0.00  0.00    -0.375 OA
ENDBRANCH  27  28
ENDBRANCH  25  27
ENDBRANCH   4  25
TORSDOF 9
