REMARK  Name = ZINC63845447
REMARK  6 active torsions:
REMARK  status: ('A' for Active; 'I' for Inactive)
REMARK    1  A    between atoms: C_1  and  C_2
REMARK    2  A    between atoms: C_2  and  C_3
REMARK    3  A    between atoms: N_12  and  C_15
REMARK    4  A    between atoms: C_15  and  C_16
REMARK    5  A    between atoms: C_22  and  O_26
REMARK    6  A    between atoms: O_26  and  C_27
REMARK                            x       y       z     vdW  Elec       q    Type
REMARK                         _______ _______ _______ _____ _____    ______ ____
ROOT
ATOM      1  C   UNL     1       4.448  -4.564  -2.786  0.00  0.00    +0.155 C 
ENDROOT
BRANCH   1   9
ATOM      2  C   UNL     1       0.707  -0.490  -1.238  0.00  0.00    -0.016 C 
ATOM      3  C   UNL     1       1.979  -0.829  -1.349  0.00  0.00    -0.002 C 
ATOM      4  C   UNL     1       2.506  -1.279  -2.671  0.00  0.00    +0.126 C 
ATOM      5  C   UNL     1       1.367  -1.700  -3.616  0.00  0.00    +0.133 C 
ATOM      6  S   UNL     1      -0.005  -0.733  -2.855  0.00  0.00    -0.110 S 
ATOM      7  N   UNL     1       1.060  -3.116  -3.498  0.00  0.00    -0.288 NA
ATOM      8  C   UNL     1       2.181  -4.015  -3.710  0.00  0.00    +0.193 C 
ATOM      9  N   UNL     1       3.377  -3.588  -3.003  0.00  0.00    -0.284 N 
ATOM     10  C   UNL     1       3.526  -2.360  -2.533  0.00  0.00    +0.226 C 
ATOM     11  O   UNL     1       4.572  -2.098  -1.980  0.00  0.00    -0.275 OA
ATOM     12  H   UNL     1       0.599  -3.314  -2.623  0.00  0.00    +0.124 HD
BRANCH   2  14
ATOM     13  C   UNL     1      -0.019   1.526   0.010  0.00  0.00    +0.009 C 
ATOM     14  C   UNL     1       0.002  -0.004   0.002  0.00  0.00    +0.038 C 
ENDBRANCH   2  14
ENDBRANCH   1   9
BRANCH   1  15
ATOM     15  C   UNL     1       5.424  -4.521  -3.963  0.00  0.00    +0.192 C 
ATOM     16  N   UNL     1       5.971  -3.167  -4.115  0.00  0.00    -0.362 N 
ATOM     17  C   UNL     1       5.631  -2.737  -5.296  0.00  0.00    +0.060 A 
ATOM     18  C   UNL     1       5.889  -1.472  -6.000  0.00  0.00    +0.031 A 
ATOM     19  C   UNL     1       5.409  -1.289  -7.244  0.00  0.00    +0.048 A 
ATOM     20  C   UNL     1       4.631  -2.314  -7.928  0.00  0.00    +0.122 A 
ATOM     21  C   UNL     1       4.352  -3.506  -7.346  0.00  0.00    +0.073 A 
ATOM     22  C   UNL     1       4.838  -3.785  -5.994  0.00  0.00    +0.064 A 
ATOM     23  N   UNL     1       4.719  -4.827  -5.214  0.00  0.00    -0.362 N 
ATOM     24  H   UNL     1       6.491  -2.682  -3.456  0.00  0.00    +0.162 HD
ATOM     25  H   UNL     1       4.251  -5.651  -5.422  0.00  0.00    +0.162 HD
BRANCH  20  26
ATOM     26  O   UNL     1       4.174  -2.069  -9.181  0.00  0.00    -0.495 OA
ATOM     27  C   UNL     1       4.494  -0.798  -9.751  0.00  0.00    +0.277 C 
ENDBRANCH  20  26
ENDBRANCH   1  15
TORSDOF 4
