REMARK  Name = ZINC05400251
REMARK  5 active torsions:
REMARK  status: ('A' for Active; 'I' for Inactive)
REMARK    1  A    between atoms: C_1  and  C_2
REMARK    2  A    between atoms: C_2  and  C_3
REMARK    3  A    between atoms: C_3  and  C_4
REMARK    4  A    between atoms: C_4  and  C_5
REMARK    5  A    between atoms: C_6  and  N_17
REMARK                            x       y       z     vdW  Elec       q    Type
REMARK                         _______ _______ _______ _____ _____    ______ ____
ROOT
ATOM      1  C   UNL     1      -1.897   2.276  -1.149  0.00  0.00    +0.022 A 
ATOM      2  C   UNL     1      -1.306   1.936   0.019  0.00  0.00    +0.158 A 
ATOM      3  C   UNL     1      -1.910   2.271   1.240  0.00  0.00    +0.075 A 
ATOM      4  C   UNL     1      -3.113   2.906   1.151  0.00  0.00    +0.014 A 
ATOM      5  S   UNL     1      -3.388   3.086  -0.588  0.00  0.00    -0.094 S 
ATOM      6  C   UNL     1      -3.990   3.329   2.295  0.00  0.00    +0.044 C 
ATOM      7  C   UNL     1      -3.772   4.822   2.572  0.00  0.00    +0.006 C 
ATOM      8  C   UNL     1      -2.566   5.020   3.485  0.00  0.00    +0.010 C 
ATOM      9  C   UNL     1      -1.298   4.418   2.883  0.00  0.00    +0.096 C 
ATOM     10  C   UNL     1      -1.126   2.993   3.398  0.00  0.00    +0.217 C 
ATOM     11  O   UNL     1      -0.848   2.758   4.556  0.00  0.00    -0.275 OA
ATOM     12  N   UNL     1      -1.301   2.006   2.489  0.00  0.00    -0.283 N 
ATOM     13  H   UNL     1      -1.006   1.106   2.696  0.00  0.00    +0.155 HD
ENDROOT
BRANCH   2  14
ATOM     14  N   UNL     1      -0.014   1.214   0.009  0.00  0.00    +0.059 N 
ATOM     15  O   UNL     1       0.002  -0.004   0.002  0.00  0.00    -0.126 OA
ATOM     16  O   UNL     1       1.032   1.837   0.002  0.00  0.00    -0.126 OA
ENDBRANCH   2  14
BRANCH   1  17
ATOM     17  C   UNL     1      -1.421   2.033  -2.558  0.00  0.00    +0.045 C 
BRANCH  17  18
ATOM     18  C   UNL     1      -1.956   0.687  -3.051  0.00  0.00    +0.005 C 
BRANCH  18  20
ATOM     19  C   UNL     1      -2.008  -0.905  -4.976  0.00  0.00    +0.004 C 
ATOM     20  C   UNL     1      -1.474   0.441  -4.482  0.00  0.00    -0.003 C 
ENDBRANCH  18  20
ENDBRANCH  17  18
ENDBRANCH   1  17
TORSDOF 4
