REMARK  Name = ZINC08888321
REMARK  10 active torsions:
REMARK  status: ('A' for Active; 'I' for Inactive)
REMARK    1  A    between atoms: C_1  and  C_2
REMARK    2  A    between atoms: C_11  and  O_13
REMARK    3  A    between atoms: O_13  and  C_14
REMARK    4  A    between atoms: C_14  and  C_15
REMARK    5  A    between atoms: C_18  and  C_21
REMARK    6  A    between atoms: C_21  and  O_23
REMARK    7  A    between atoms: O_23  and  C_24
REMARK    8  A    between atoms: C_24  and  C_26
REMARK    9  A    between atoms: C_24  and  C_27
REMARK   10  A    between atoms: N_32  and  C_33
REMARK                            x       y       z     vdW  Elec       q    Type
REMARK                         _______ _______ _______ _____ _____    ______ ____
ROOT
ATOM      1  C   UNL     1      -0.018   1.503   0.010  0.00  0.00    -0.010 A 
ATOM      2  C   UNL     1      -1.228   2.175   0.020  0.00  0.00    +0.008 A 
ATOM      3  C   UNL     1      -1.254   3.554   0.033  0.00  0.00    +0.015 A 
ATOM      4  C   UNL     1      -0.056   4.272   0.025  0.00  0.00    +0.059 A 
ATOM      5  C   UNL     1       1.161   3.587   0.010  0.00  0.00    +0.015 A 
ATOM      6  C   UNL     1       1.172   2.208   0.003  0.00  0.00    +0.008 A 
ENDROOT
BRANCH   4   7
ATOM      7  C   UNL     1      -0.076   5.749   0.034  0.00  0.00    +0.340 C 
ATOM      8  O   UNL     1       0.968   6.371   0.028  0.00  0.00    -0.245 OA
BRANCH   7   9
ATOM      9  O   UNL     1      -1.252   6.407   0.049  0.00  0.00    -0.449 OA
BRANCH   9  10
ATOM     10  C   UNL     1      -1.195   7.857   0.057  0.00  0.00    +0.259 C 
ATOM     11  C   UNL     1      -1.162   8.359   1.502  0.00  0.00    +0.062 C 
BRANCH  10  12
ATOM     12  C   UNL     1      -2.412   8.411  -0.639  0.00  0.00    +0.261 C 
ATOM     13  O   UNL     1      -3.288   7.662  -1.016  0.00  0.00    -0.271 OA
ATOM     14  N   UNL     1      -2.526   9.739  -0.843  0.00  0.00    -0.237 N 
ATOM     15  C   UNL     1      -3.614  10.234  -1.465  0.00  0.00    +0.306 C 
ATOM     16  O   UNL     1      -4.492   9.483  -1.843  0.00  0.00    -0.252 OA
ATOM     17  N   UNL     1      -3.729  11.561  -1.668  0.00  0.00    -0.302 N 
ATOM     18  C   UNL     1      -4.911  12.099  -2.345  0.00  0.00    +0.129 C 
ATOM     19  H   UNL     1      -1.825  10.338  -0.541  0.00  0.00    +0.159 HD
ATOM     20  H   UNL     1      -3.028  12.160  -1.367  0.00  0.00    +0.150 HD
ENDBRANCH  10  12
ENDBRANCH   9  10
ENDBRANCH   7   9
ENDBRANCH   4   7
BRANCH   1  21
ATOM     21  C   UNL     1       0.002  -0.004   0.002  0.00  0.00    +0.264 C 
BRANCH  21  22
ATOM     22  O   UNL     1       0.021  -0.488   1.347  0.00  0.00    -0.487 OA
BRANCH  22  33
ATOM     23  C   UNL     1       0.103  -6.972   0.862  0.00  0.00    +0.045 C 
ATOM     24  C   UNL     1       0.102  -6.032   2.040  0.00  0.00    -0.033 A 
ATOM     25  C   UNL     1       0.121  -6.507   3.312  0.00  0.00    +0.096 A 
ATOM     26  C   UNL     1       0.120  -5.606   4.397  0.00  0.00    +0.337 A 
ATOM     27  O   UNL     1       0.138  -6.046   5.533  0.00  0.00    -0.245 OA
ATOM     28  O   UNL     1       0.100  -4.277   4.211  0.00  0.00    -0.422 OA
ATOM     29  C   UNL     1       0.081  -3.740   2.973  0.00  0.00    +0.143 A 
ATOM     30  C   UNL     1       0.081  -4.580   1.844  0.00  0.00    +0.021 A 
ATOM     31  C   UNL     1       0.062  -4.028   0.558  0.00  0.00    +0.015 A 
ATOM     32  C   UNL     1       0.036  -2.672   0.404  0.00  0.00    +0.046 A 
ATOM     33  C   UNL     1       0.041  -1.834   1.517  0.00  0.00    +0.125 A 
ATOM     34  C   UNL     1       0.061  -2.365   2.797  0.00  0.00    +0.092 A 
ENDBRANCH  22  33
ENDBRANCH  21  22
ENDBRANCH   1  21
TORSDOF 7
