REMARK  Name = ZINC39482645
REMARK  9 active torsions:
REMARK  status: ('A' for Active; 'I' for Inactive)
REMARK    1  A    between atoms: C_1  and  C_2
REMARK    2  A    between atoms: C_2  and  C_3
REMARK    3  A    between atoms: C_2  and  S_4
REMARK    4  A    between atoms: S_4  and  S_7
REMARK    5  A    between atoms: S_7  and  N_10
REMARK    6  A    between atoms: N_10  and  C_11
REMARK    7  A    between atoms: C_14  and  S_25
REMARK    8  A    between atoms: C_16  and  N_17
REMARK    9  A    between atoms: S_25  and  C_28
REMARK                            x       y       z     vdW  Elec       q    Type
REMARK                         _______ _______ _______ _____ _____    ______ ____
ROOT
ATOM      1  C   UNL     1      -3.221  -4.686   0.294  0.00  0.00    +0.097 A 
ATOM      2  C   UNL     1      -2.122  -5.527   0.387  0.00  0.00    +0.030 A 
ATOM      3  C   UNL     1      -2.304  -6.894   0.489  0.00  0.00    +0.029 A 
ATOM      4  C   UNL     1      -3.580  -7.427   0.498  0.00  0.00    +0.095 A 
ATOM      5  C   UNL     1      -4.681  -6.596   0.406  0.00  0.00    +0.052 A 
ATOM      6  C   UNL     1      -4.508  -5.223   0.309  0.00  0.00    +0.057 A 
ENDROOT
BRANCH   6   7
ATOM      7  N   UNL     1      -5.622  -4.380   0.221  0.00  0.00    -0.323 N 
ATOM      8  C   UNL     1      -6.200  -4.026  -1.085  0.00  0.00    +0.120 C 
ATOM      9  C   UNL     1      -6.335  -2.502  -1.161  0.00  0.00    +0.102 C 
ATOM     10  N   UNL     1      -7.092  -2.022   0.003  0.00  0.00    -0.285 NA
ATOM     11  C   UNL     1      -6.379  -2.306   1.256  0.00  0.00    +0.252 C 
ATOM     12  C   UNL     1      -6.248  -3.828   1.431  0.00  0.00    +0.158 C 
ATOM     13  F   UNL     1      -5.106  -1.727   1.210  0.00  0.00    -0.227 F 
ATOM     14  H   UNL     1      -7.298  -1.038  -0.080  0.00  0.00    +0.125 HD
ENDBRANCH   6   7
BRANCH   4  15
ATOM     15  S   UNL     1      -3.803  -9.170   0.627  0.00  0.00    +0.025 S 
ATOM     16  O   UNL     1      -5.076  -9.459   0.065  0.00  0.00    -0.164 OA
ATOM     17  O   UNL     1      -2.606  -9.769   0.151  0.00  0.00    -0.164 OA
BRANCH  15  18
ATOM     18  C   UNL     1      -3.911  -9.556   2.343  0.00  0.00    +0.094 A 
ATOM     19  C   UNL     1      -2.766  -9.850   3.058  0.00  0.00    +0.027 A 
ATOM     20  C   UNL     1      -2.851 -10.153   4.404  0.00  0.00    +0.002 A 
ATOM     21  C   UNL     1      -4.081 -10.160   5.035  0.00  0.00    +0.000 A 
ATOM     22  C   UNL     1      -5.226  -9.865   4.320  0.00  0.00    +0.002 A 
ATOM     23  C   UNL     1      -5.141  -9.558   2.974  0.00  0.00    +0.027 A 
ENDBRANCH  15  18
ENDBRANCH   4  15
BRANCH   1  24
ATOM     24  N   UNL     1      -3.039  -3.302   0.192  0.00  0.00    -0.080 NA
BRANCH  24  25
ATOM     25  S   UNL     1      -1.509  -2.667   0.175  0.00  0.00    +0.187 S 
ATOM     26  O   UNL     1      -0.898  -3.113  -1.028  0.00  0.00    -0.130 OA
ATOM     27  O   UNL     1      -0.949  -2.923   1.455  0.00  0.00    -0.130 OA
BRANCH  25  28
ATOM     28  S   UNL     1      -1.700  -0.632   0.015  0.00  0.00    +0.106 S 
ATOM     29  O   UNL     1      -2.359  -0.234   1.209  0.00  0.00    -0.151 OA
ATOM     30  O   UNL     1      -2.308  -0.423  -1.252  0.00  0.00    -0.151 OA
BRANCH  28  32
ATOM     31  C   UNL     1      -0.019   1.526   0.010  0.00  0.00    +0.033 C 
ATOM     32  C   UNL     1       0.002  -0.004   0.002  0.00  0.00    +0.150 C 
ATOM     33  C   UNL     1       0.742  -0.511   1.242  0.00  0.00    +0.033 C 
ENDBRANCH  28  32
ENDBRANCH  25  28
ENDBRANCH  24  25
ENDBRANCH   1  24
TORSDOF 7
