REMARK  Name = ZINC44962914
REMARK  6 active torsions:
REMARK  status: ('A' for Active; 'I' for Inactive)
REMARK    1  A    between atoms: C_4  and  C_7
REMARK    2  A    between atoms: C_7  and  O_8
REMARK    3  A    between atoms: O_8  and  C_9
REMARK    4  A    between atoms: C_11  and  N_32
REMARK    5  A    between atoms: C_13  and  O_31
REMARK    6  A    between atoms: C_22  and  C_25
REMARK                            x       y       z     vdW  Elec       q    Type
REMARK                         _______ _______ _______ _____ _____    ______ ____
ROOT
ATOM      1  C   UNL     1       5.385  -1.642   1.400  0.00  0.00    +0.281 C 
ATOM      2  C   UNL     1       5.619  -2.065   2.852  0.00  0.00    +0.229 C 
ATOM      3  C   UNL     1       6.994  -2.734   2.979  0.00  0.00    +0.178 C 
ATOM      4  C   UNL     1       8.055  -1.760   2.466  0.00  0.00    +0.183 C 
ATOM      5  C   UNL     1       7.728  -1.403   1.010  0.00  0.00    +0.178 C 
ATOM      6  O   UNL     1       6.445  -0.783   0.966  0.00  0.00    -0.341 OA
ATOM      7  C   UNL     1       8.815  -0.462   0.488  0.00  0.00    +0.197 C 
ATOM      8  O   UNL     1      10.086  -1.102   0.661  0.00  0.00    -0.345 OA
ATOM      9  C   UNL     1      10.379  -1.478   2.007  0.00  0.00    +0.282 C 
ATOM     10  O   UNL     1       9.356  -2.346   2.510  0.00  0.00    -0.339 OA
ENDROOT
BRANCH   9  11
ATOM     11  C   UNL     1      11.703  -2.195   2.049  0.00  0.00    +0.008 A 
ATOM     12  C   UNL     1      11.770  -3.498   2.508  0.00  0.00    +0.008 A 
ATOM     13  C   UNL     1      12.986  -4.155   2.547  0.00  0.00    +0.000 A 
ATOM     14  C   UNL     1      14.134  -3.511   2.126  0.00  0.00    +0.000 A 
ATOM     15  C   UNL     1      14.067  -2.209   1.666  0.00  0.00    +0.000 A 
ATOM     16  C   UNL     1      12.851  -1.553   1.623  0.00  0.00    +0.008 A 
ENDBRANCH   9  11
BRANCH   2  17
ATOM     17  N   UNL     1       5.570  -0.885   3.718  0.00  0.00    -0.099 NA
ATOM     18  N   UNL     1       4.611  -0.309   3.828  0.00  0.00    -0.167 NA
ATOM     19  N   UNL     1       3.673   0.255   3.937  0.00  0.00    +0.068 NA
ENDBRANCH   2  17
BRANCH   3  20
ATOM     20  O   UNL     1       7.249  -3.050   4.350  0.00  0.00    -0.387 OA
ATOM     21  H   UNL     1       6.602  -3.653   4.741  0.00  0.00    +0.210 HD
ENDBRANCH   3  20
BRANCH   1  22
ATOM     22  O   UNL     1       4.141  -0.946   1.304  0.00  0.00    -0.344 OA
BRANCH  22  23
ATOM     23  C   UNL     1       3.711  -0.707  -0.038  0.00  0.00    +0.198 C 
BRANCH  23  27
ATOM     24  C   UNL     1      -0.017   1.378   0.010  0.00  0.00    +0.000 A 
ATOM     25  C   UNL     1       1.171   2.086   0.002  0.00  0.00    +0.000 A 
ATOM     26  C   UNL     1       2.377   1.411  -0.013  0.00  0.00    +0.006 A 
ATOM     27  C   UNL     1       2.396   0.029  -0.020  0.00  0.00    -0.022 A 
ATOM     28  C   UNL     1       1.208  -0.679  -0.012  0.00  0.00    +0.006 A 
ATOM     29  C   UNL     1       0.002  -0.004   0.002  0.00  0.00    +0.000 A 
ENDBRANCH  23  27
ENDBRANCH  22  23
ENDBRANCH   1  22
TORSDOF 6
