REMARK  Name = ZINC00222344
REMARK  4 active torsions:
REMARK  status: ('A' for Active; 'I' for Inactive)
REMARK    1  A    between atoms: C_1  and  C_2
REMARK    2  A    between atoms: C_2  and  C_3
REMARK    3  A    between atoms: C_6  and  C_9
REMARK    4  A    between atoms: C_12  and  C_20
REMARK                            x       y       z     vdW  Elec       q    Type
REMARK                         _______ _______ _______ _____ _____    ______ ____
ROOT
ATOM      1  C   UNL     1       2.707  -1.868  -4.752  0.00  0.00    +0.144 C 
ATOM      2  C   UNL     1       3.775  -0.849  -5.170  0.00  0.00    +0.059 C 
ATOM      3  C   UNL     1       4.678  -1.457  -6.250  0.00  0.00    +0.106 C 
ATOM      4  N   UNL     1       5.372  -2.628  -5.681  0.00  0.00    -0.305 N 
ATOM      5  C   UNL     1       4.598  -3.485  -4.910  0.00  0.00    +0.236 A 
ATOM      6  N   UNL     1       3.355  -3.147  -4.476  0.00  0.00    -0.206 N 
ATOM      7  N   UNL     1       2.898  -4.248  -3.752  0.00  0.00    -0.042 NA
ATOM      8  N   UNL     1       3.841  -5.133  -3.792  0.00  0.00    -0.021 NA
ATOM      9  N   UNL     1       4.848  -4.686  -4.471  0.00  0.00    -0.092 NA
ATOM     10  H   UNL     1       6.316  -2.791  -5.836  0.00  0.00    +0.150 HD
ENDROOT
BRANCH   3  11
ATOM     11  C   UNL     1       3.840  -1.885  -7.427  0.00  0.00    -0.027 A 
ATOM     12  C   UNL     1       3.143  -3.078  -7.382  0.00  0.00    +0.007 A 
ATOM     13  C   UNL     1       2.374  -3.470  -8.461  0.00  0.00    +0.020 A 
ATOM     14  C   UNL     1       2.303  -2.670  -9.587  0.00  0.00    +0.041 A 
ATOM     15  C   UNL     1       3.001  -1.476  -9.632  0.00  0.00    +0.020 A 
ATOM     16  C   UNL     1       3.764  -1.081  -8.550  0.00  0.00    +0.007 A 
ATOM     17 CL   UNL     1       1.338  -3.163 -10.944  0.00  0.00    -0.084 Cl
ENDBRANCH   3  11
BRANCH   1  21
ATOM     18  C   UNL     1       0.707  -0.490  -1.238  0.00  0.00    -0.048 A 
ATOM     19  C   UNL     1      -0.011  -0.719  -2.397  0.00  0.00    +0.004 A 
ATOM     20  C   UNL     1       0.636  -1.164  -3.534  0.00  0.00    +0.006 A 
ATOM     21  C   UNL     1       2.002  -1.381  -3.513  0.00  0.00    -0.023 A 
ATOM     22  C   UNL     1       2.720  -1.152  -2.354  0.00  0.00    +0.006 A 
ATOM     23  C   UNL     1       2.073  -0.702  -1.218  0.00  0.00    +0.004 A 
BRANCH  18  25
ATOM     24  C   UNL     1      -0.019   1.526   0.010  0.00  0.00    +0.009 C 
ATOM     25  C   UNL     1       0.002  -0.004   0.002  0.00  0.00    +0.032 C 
ENDBRANCH  18  25
ENDBRANCH   1  21
TORSDOF 3
