REMARK  Name = ZINC66557061
REMARK  9 active torsions:
REMARK  status: ('A' for Active; 'I' for Inactive)
REMARK    1  A    between atoms: C_1  and  C_2
REMARK    2  A    between atoms: C_5  and  N_8
REMARK    3  A    between atoms: C_9  and  C_25
REMARK    4  A    between atoms: C_10  and  C_13
REMARK    5  A    between atoms: N_15  and  N_16
REMARK    6  A    between atoms: C_17  and  C_19
REMARK    7  A    between atoms: C_20  and  C_24
REMARK    8  A    between atoms: C_25  and  C_26
REMARK    9  A    between atoms: C_25  and  C_27
REMARK                            x       y       z     vdW  Elec       q    Type
REMARK                         _______ _______ _______ _____ _____    ______ ____
ROOT
ATOM      1  N   UNL     1      -0.101  -4.444   0.109  0.00  0.00    -0.236 N 
ATOM      2  C   UNL     1       0.862  -5.026   0.846  0.00  0.00    +0.060 A 
ATOM      3  C   UNL     1       0.941  -6.347   0.450  0.00  0.00    +0.079 A 
ATOM      4  C   UNL     1      -0.024  -6.537  -0.565  0.00  0.00    +0.148 A 
ATOM      5  N   UNL     1      -0.640  -5.403  -0.755  0.00  0.00    -0.174 NA
ENDROOT
BRANCH   1  10
ATOM      6  C   UNL     1      -1.722   0.984   0.463  0.00  0.00    +0.044 C 
ATOM      7  C   UNL     1      -1.292  -0.457   0.369  0.00  0.00    -0.050 A 
ATOM      8  C   UNL     1      -1.124  -1.048  -0.870  0.00  0.00    +0.005 A 
ATOM      9  C   UNL     1      -0.730  -2.369  -0.960  0.00  0.00    +0.028 A 
ATOM     10  C   UNL     1      -0.501  -3.103   0.196  0.00  0.00    +0.066 A 
ATOM     11  C   UNL     1      -0.670  -2.507   1.439  0.00  0.00    +0.028 A 
ATOM     12  C   UNL     1      -1.059  -1.185   1.522  0.00  0.00    +0.005 A 
ENDBRANCH   1  10
BRANCH   3  13
ATOM     13  C   UNL     1       1.860  -7.367   0.987  0.00  0.00    +0.263 C 
ATOM     14  O   UNL     1       2.575  -7.103   1.934  0.00  0.00    -0.269 OA
ATOM     15  N   UNL     1       1.907  -8.593   0.428  0.00  0.00    -0.230 N 
ATOM     16  H   UNL     1       1.336  -8.803  -0.328  0.00  0.00    +0.173 HD
BRANCH  15  17
ATOM     17  N   UNL     1       2.780  -9.562   0.938  0.00  0.00    -0.230 N 
ATOM     18  C   UNL     1       2.827 -10.788   0.378  0.00  0.00    +0.267 C 
ATOM     19  O   UNL     1       2.111 -11.052  -0.570  0.00  0.00    -0.268 OA
ATOM     20  H   UNL     1       3.351  -9.352   1.693  0.00  0.00    +0.173 HD
BRANCH  18  21
ATOM     21  C   UNL     1       3.741 -11.802   0.912  0.00  0.00    +0.078 A 
ATOM     22  C   UNL     1       3.945 -13.105   0.484  0.00  0.00    -0.031 A 
ATOM     23  C   UNL     1       4.879 -13.825   1.190  0.00  0.00    +0.011 A 
ATOM     24  C   UNL     1       5.521 -13.234   2.228  0.00  0.00    +0.046 A 
ATOM     25  S   UNL     1       4.884 -11.680   2.274  0.00  0.00    -0.092 S 
ATOM     26  C   UNL     1       3.191 -13.695  -0.680  0.00  0.00    +0.045 C 
ENDBRANCH  18  21
ENDBRANCH  15  17
ENDBRANCH   3  13
BRANCH   2  27
ATOM     27  C   UNL     1       1.700  -4.361   1.906  0.00  0.00    +0.032 C 
ATOM     28  C   UNL     1       1.447  -5.037   3.255  0.00  0.00    +0.014 C 
ATOM     29  C   UNL     1       3.181  -4.489   1.541  0.00  0.00    +0.014 C 
ENDBRANCH   2  27
TORSDOF 5
