REMARK  Name = ZINC41001168
REMARK  8 active torsions:
REMARK  status: ('A' for Active; 'I' for Inactive)
REMARK    1  A    between atoms: C_1  and  C_2
REMARK    2  A    between atoms: C_3  and  C_25
REMARK    3  A    between atoms: C_5  and  N_19
REMARK    4  A    between atoms: C_6  and  C_7
REMARK    5  A    between atoms: C_9  and  C_12
REMARK    6  A    between atoms: C_20  and  C_22
REMARK    7  A    between atoms: C_22  and  C_23
REMARK    8  A    between atoms: C_22  and  C_24
REMARK                            x       y       z     vdW  Elec       q    Type
REMARK                         _______ _______ _______ _____ _____    ______ ____
ROOT
ATOM      1  C   UNL     1      -0.018   1.503   0.010  0.00  0.00    +0.045 C 
ATOM      2  C   UNL     1       0.002  -0.004   0.002  0.00  0.00    -0.026 A 
ATOM      3  C   UNL     1       0.006  -0.686  -1.158  0.00  0.00    -0.008 A 
ATOM      4  S   UNL     1       0.032  -2.388  -0.630  0.00  0.00    -0.078 S 
ATOM      5  C   UNL     1       0.037  -2.134   1.135  0.00  0.00    +0.085 A 
ATOM      6  C   UNL     1       0.024  -0.748   1.236  0.00  0.00    +0.071 A 
ATOM      7  C   UNL     1      -0.009  -0.143  -2.564  0.00  0.00    +0.052 C 
ENDROOT
BRANCH   6   8
ATOM      8  C   UNL     1       0.026  -0.072   2.541  0.00  0.00    +0.261 A 
ATOM      9  N   UNL     1       0.051  -0.663   3.717  0.00  0.00    -0.187 NA
ATOM     10  C   UNL     1       0.045   0.260   4.692  0.00  0.00    +0.202 A 
ATOM     11  N   UNL     1       0.017   1.452   4.147  0.00  0.00    -0.056 NA
ATOM     12  O   UNL     1       0.010   1.259   2.741  0.00  0.00    -0.332 OA
BRANCH  10  13
ATOM     13  C   UNL     1       0.067  -0.024   6.148  0.00  0.00    +0.023 A 
ATOM     14  C   UNL     1       0.102  -1.340   6.603  0.00  0.00    +0.014 A 
ATOM     15  C   UNL     1       0.123  -1.599   7.958  0.00  0.00    +0.039 A 
ATOM     16  C   UNL     1       0.108  -0.553   8.866  0.00  0.00    +0.123 A 
ATOM     17  C   UNL     1       0.073   0.758   8.418  0.00  0.00    +0.039 A 
ATOM     18  C   UNL     1       0.059   1.026   7.064  0.00  0.00    +0.014 A 
ATOM     19  F   UNL     1       0.128  -0.811  10.192  0.00  0.00    -0.205 F 
ENDBRANCH  10  13
ENDBRANCH   6   8
BRANCH   5  20
ATOM     20  N   UNL     1       0.054  -3.081   2.151  0.00  0.00    -0.279 N 
ATOM     21  C   UNL     1       0.071  -4.394   1.849  0.00  0.00    +0.220 C 
ATOM     22  O   UNL     1       0.071  -4.749   0.689  0.00  0.00    -0.275 OA
ATOM     23  H   UNL     1       0.055  -2.797   3.079  0.00  0.00    +0.155 HD
BRANCH  21  24
ATOM     24  C   UNL     1       0.090  -5.421   2.951  0.00  0.00    +0.069 C 
ATOM     25  C   UNL     1      -1.158  -5.258   3.822  0.00  0.00    +0.017 C 
ATOM     26  C   UNL     1       0.106  -6.824   2.341  0.00  0.00    +0.017 C 
ENDBRANCH  21  24
ENDBRANCH   5  20
TORSDOF 4
