REMARK  Name = ZINC67452909
REMARK  6 active torsions:
REMARK  status: ('A' for Active; 'I' for Inactive)
REMARK    1  A    between atoms: C_1  and  C_2
REMARK    2  A    between atoms: C_5  and  C_25
REMARK    3  A    between atoms: C_6  and  N_8
REMARK    4  A    between atoms: N_8  and  C_9
REMARK    5  A    between atoms: N_13  and  C_16
REMARK    6  A    between atoms: C_20  and  N_22
REMARK                            x       y       z     vdW  Elec       q    Type
REMARK                         _______ _______ _______ _____ _____    ______ ____
ROOT
ATOM      1  C   UNL     1       0.048  -2.074   3.664  0.00  0.00    +0.159 C 
ATOM      2  C   UNL     1       0.635  -2.957   4.790  0.00  0.00    +0.051 C 
ATOM      3  C   UNL     1      -0.639  -3.596   5.386  0.00  0.00    +0.116 C 
ATOM      4  N   UNL     1      -1.727  -2.659   5.079  0.00  0.00    -0.270 N 
ATOM      5  C   UNL     1      -1.370  -1.793   4.110  0.00  0.00    +0.240 C 
ATOM      6  O   UNL     1      -2.079  -0.918   3.661  0.00  0.00    -0.273 OA
ENDROOT
BRANCH   4   7
ATOM      7  C   UNL     1      -2.974  -2.663   5.713  0.00  0.00    +0.038 A 
ATOM      8  C   UNL     1      -3.246  -3.594   6.708  0.00  0.00    +0.023 A 
ATOM      9  C   UNL     1      -4.478  -3.595   7.332  0.00  0.00    +0.004 A 
ATOM     10  C   UNL     1      -5.441  -2.671   6.966  0.00  0.00    +0.033 A 
ATOM     11  C   UNL     1      -5.173  -1.744   5.976  0.00  0.00    +0.128 A 
ATOM     12  C   UNL     1      -3.941  -1.734   5.352  0.00  0.00    +0.056 A 
BRANCH  11  13
ATOM     13  N   UNL     1      -6.206  -0.758   5.588  0.00  0.00    +0.056 N 
ATOM     14  O   UNL     1      -7.284  -0.763   6.137  0.00  0.00    -0.126 OA
ATOM     15  O   UNL     1      -5.973   0.053   4.723  0.00  0.00    -0.126 OA
ENDBRANCH  11  13
ENDBRANCH   4   7
BRANCH   1  16
ATOM     16  N   UNL     1       0.051  -2.796   2.390  0.00  0.00    -0.333 N 
ATOM     17  H   UNL     1       0.064  -3.766   2.383  0.00  0.00    +0.147 HD
BRANCH  16  23
ATOM     18  C   UNL     1      -0.018   1.503   0.010  0.00  0.00    +0.044 C 
ATOM     19  C   UNL     1       0.002  -0.004   0.002  0.00  0.00    -0.049 A 
ATOM     20  C   UNL     1       0.006  -0.688  -1.200  0.00  0.00    +0.004 A 
ATOM     21  C   UNL     1       0.024  -2.071  -1.212  0.00  0.00    +0.005 A 
ATOM     22  C   UNL     1       0.039  -2.773  -0.023  0.00  0.00    -0.030 A 
ATOM     23  C   UNL     1       0.036  -2.089   1.186  0.00  0.00    +0.031 A 
ATOM     24  C   UNL     1       0.023  -0.700   1.194  0.00  0.00    +0.026 A 
ATOM     25  C   UNL     1       0.059  -4.280  -0.037  0.00  0.00    +0.045 C 
ENDBRANCH  16  23
ENDBRANCH   1  16
TORSDOF 4
