REMARK  Name = ZINC22047318
REMARK  9 active torsions:
REMARK  status: ('A' for Active; 'I' for Inactive)
REMARK    1  A    between atoms: C_1  and  C_2
REMARK    2  A    between atoms: C_2  and  C_4
REMARK    3  A    between atoms: C_2  and  N_10
REMARK    4  A    between atoms: C_11  and  C_13
REMARK    5  A    between atoms: C_13  and  C_15
REMARK    6  A    between atoms: C_13  and  O_16
REMARK    7  A    between atoms: O_16  and  C_17
REMARK    8  A    between atoms: C_17  and  C_19
REMARK    9  A    between atoms: C_24  and  N_25
REMARK                            x       y       z     vdW  Elec       q    Type
REMARK                         _______ _______ _______ _____ _____    ______ ____
ROOT
ATOM      1  C   UNL     1       1.372   5.791   0.357  0.00  0.00    +0.259 C 
ATOM      2  C   UNL     1       1.257   6.388  -1.047  0.00  0.00    +0.062 C 
ENDROOT
BRANCH   1   4
ATOM      3  N   UNL     1       2.305   7.816   1.428  0.00  0.00    -0.306 N 
ATOM      4  C   UNL     1       2.451   6.512   1.123  0.00  0.00    +0.254 C 
ATOM      5  O   UNL     1       3.452   5.918   1.465  0.00  0.00    -0.272 OA
ATOM      6  H   UNL     1       1.397   8.355   1.117  0.00  0.00    +0.149 HD
BRANCH   3   8
ATOM      7  C   UNL     1       3.150   8.295   3.672  0.00  0.00    +0.033 C 
ATOM      8  C   UNL     1       3.354   8.517   2.172  0.00  0.00    +0.100 C 
BRANCH   8   9
ATOM      9  C   UNL     1       3.286   9.992   1.869  0.00  0.00    -0.027 A 
ATOM     10  C   UNL     1       2.059  10.618   1.755  0.00  0.00    +0.005 A 
ATOM     11  C   UNL     1       1.996  11.971   1.481  0.00  0.00    +0.000 A 
ATOM     12  C   UNL     1       3.161  12.697   1.313  0.00  0.00    +0.000 A 
ATOM     13  C   UNL     1       4.388  12.070   1.422  0.00  0.00    +0.000 A 
ATOM     14  C   UNL     1       4.450  10.717   1.700  0.00  0.00    +0.005 A 
ENDBRANCH   8   9
ENDBRANCH   3   8
ENDBRANCH   1   4
BRANCH   1  15
ATOM     15  O   UNL     1       1.707   4.382   0.258  0.00  0.00    -0.449 OA
BRANCH  15  16
ATOM     16  C   UNL     1       0.681   3.512   0.194  0.00  0.00    +0.342 C 
ATOM     17  O   UNL     1      -0.463   3.919   0.220  0.00  0.00    -0.245 OA
BRANCH  16  18
ATOM     18  C   UNL     1       0.946   2.062   0.092  0.00  0.00    +0.090 A 
ATOM     19  C   UNL     1       1.753   1.429   1.039  0.00  0.00    +0.037 A 
ATOM     20  C   UNL     1       1.998   0.074   0.937  0.00  0.00    +0.042 A 
ATOM     21  C   UNL     1       1.445  -0.656  -0.102  0.00  0.00    +0.022 A 
ATOM     22  C   UNL     1       0.645  -0.034  -1.043  0.00  0.00    +0.035 A 
ATOM     23  C   UNL     1       0.393   1.320  -0.953  0.00  0.00    +0.140 A 
ATOM     24 CL   UNL     1       3.001  -0.717   2.113  0.00  0.00    -0.084 Cl
BRANCH  23  25
ATOM     25  N   UNL     1      -0.458   1.985  -1.965  0.00  0.00    +0.057 N 
ATOM     26  O   UNL     1      -1.034   1.320  -2.808  0.00  0.00    -0.126 OA
ATOM     27  O   UNL     1      -0.583   3.196  -1.955  0.00  0.00    -0.126 OA
ENDBRANCH  23  25
ENDBRANCH  16  18
ENDBRANCH  15  16
ENDBRANCH   1  15
TORSDOF 7
