REMARK  Name = ZINC10017068
REMARK  10 active torsions:
REMARK  status: ('A' for Active; 'I' for Inactive)
REMARK    1  A    between atoms: C_1  and  N_2
REMARK    2  A    between atoms: N_2  and  C_3
REMARK    3  A    between atoms: N_2  and  C_4
REMARK    4  A    between atoms: C_7  and  N_28
REMARK    5  A    between atoms: C_9  and  C_10
REMARK    6  A    between atoms: C_10  and  O_12
REMARK    7  A    between atoms: O_12  and  C_13
REMARK    8  A    between atoms: C_13  and  C_14
REMARK    9  A    between atoms: N_16  and  C_17
REMARK   10  A    between atoms: C_18  and  C_26
REMARK                            x       y       z     vdW  Elec       q    Type
REMARK                         _______ _______ _______ _____ _____    ______ ____
ROOT
ATOM      1  C   UNL     1      -2.653   8.627  -3.320  0.00  0.00    +0.328 C 
ENDROOT
BRANCH   1   2
ATOM      2  C   UNL     1      -2.279   7.222  -2.922  0.00  0.00    +0.255 C 
ATOM      3  O   UNL     1      -2.260   6.341  -3.755  0.00  0.00    -0.272 OA
ATOM      4  N   UNL     1      -1.965   6.946  -1.641  0.00  0.00    -0.276 N 
ATOM      5  H   UNL     1      -1.980   7.652  -0.975  0.00  0.00    +0.155 HD
BRANCH   4   6
ATOM      6  C   UNL     1      -1.621   5.653  -1.274  0.00  0.00    +0.090 A 
ATOM      7  C   UNL     1      -1.271   5.177  -0.019  0.00  0.00    +0.084 A 
ATOM      8  C   UNL     1      -0.951   3.765   0.100  0.00  0.00    -0.018 A 
ATOM      9  C   UNL     1      -1.032   3.059  -1.049  0.00  0.00    -0.004 A 
ATOM     10  S   UNL     1      -1.524   4.240  -2.273  0.00  0.00    -0.077 S 
ATOM     11  C   UNL     1      -0.761   1.597  -1.232  0.00  0.00    +0.043 C 
ATOM     12  C   UNL     1      -0.013   1.086   0.008  0.00  0.00    +0.005 C 
ATOM     13  C   UNL     1      -0.735   1.583   1.264  0.00  0.00    +0.005 C 
ATOM     14  C   UNL     1      -0.551   3.094   1.407  0.00  0.00    +0.037 C 
BRANCH   7  15
ATOM     15  C   UNL     1      -1.226   6.046   1.118  0.00  0.00    +0.102 C 
ATOM     16  N   UNL     1      -1.191   6.736   2.020  0.00  0.00    -0.191 NA
ENDBRANCH   7  15
ENDBRANCH   4   6
ENDBRANCH   1   2
BRANCH   1  17
ATOM     17  O   UNL     1      -2.944   8.665  -4.742  0.00  0.00    -0.452 OA
BRANCH  17  18
ATOM     18  C   UNL     1      -3.298   9.857  -5.262  0.00  0.00    +0.342 C 
ATOM     19  O   UNL     1      -3.361  10.838  -4.547  0.00  0.00    -0.245 OA
BRANCH  18  25
ATOM     20  C   UNL     1      -3.977  11.211  -7.244  0.00  0.00    +0.043 A 
ATOM     21  C   UNL     1      -4.268  11.305  -8.600  0.00  0.00    +0.026 A 
ATOM     22  C   UNL     1      -4.192  10.186  -9.402  0.00  0.00    +0.034 A 
ATOM     23  C   UNL     1      -3.828   8.961  -8.866  0.00  0.00    +0.127 A 
ATOM     24  C   UNL     1      -3.532   8.848  -7.526  0.00  0.00    +0.049 A 
ATOM     25  C   UNL     1      -3.608   9.972  -6.698  0.00  0.00    +0.082 A 
BRANCH  20  27
ATOM     26  C   UNL     1      -3.127  13.380  -6.896  0.00  0.00    +0.129 C 
ATOM     27  N   UNL     1      -4.052  12.336  -6.434  0.00  0.00    -0.335 N 
ATOM     28  C   UNL     1      -5.428  12.846  -6.367  0.00  0.00    +0.129 C 
ENDBRANCH  20  27
BRANCH  23  29
ATOM     29  N   UNL     1      -3.751   7.768  -9.740  0.00  0.00    +0.056 N 
ATOM     30  O   UNL     1      -4.007   7.865 -10.927  0.00  0.00    -0.126 OA
ATOM     31  O   UNL     1      -3.431   6.690  -9.272  0.00  0.00    -0.126 OA
ENDBRANCH  23  29
ENDBRANCH  18  25
ENDBRANCH  17  18
ENDBRANCH   1  17
TORSDOF 8
