REMARK  Name = ZINC04078849
REMARK  5 active torsions:
REMARK  status: ('A' for Active; 'I' for Inactive)
REMARK    1  A    between atoms: C_3  and  N_25
REMARK    2  A    between atoms: C_6  and  C_7
REMARK    3  A    between atoms: C_8  and  C_9
REMARK    4  A    between atoms: C_14  and  C_17
REMARK    5  A    between atoms: C_20  and  C_23
REMARK                            x       y       z     vdW  Elec       q    Type
REMARK                         _______ _______ _______ _____ _____    ______ ____
ROOT
ATOM      1  C   UNL     1      -0.018   1.459   0.010  0.00  0.00    +0.243 C 
ATOM      2  O   UNL     1      -1.080   2.054   0.018  0.00  0.00    -0.270 OA
ATOM      3  N   UNL     1       1.140   2.149   0.003  0.00  0.00    -0.261 N 
ATOM      4  C   UNL     1       1.121   3.537   0.010  0.00  0.00    +0.165 A 
ATOM      5  N   UNL     1       2.132   4.385   0.005  0.00  0.00    -0.225 NA
ATOM      6  C   UNL     1       1.931   5.695   0.014  0.00  0.00    +0.080 A 
ATOM      7  C   UNL     1       0.650   6.176   0.028  0.00  0.00    +0.076 A 
ATOM      8  S   UNL     1      -0.278   4.648   0.022  0.00  0.00    -0.060 S 
ATOM      9  H   UNL     1       1.987   1.675  -0.008  0.00  0.00    +0.157 HD
ENDROOT
BRANCH   6  10
ATOM     10  C   UNL     1       3.081   6.628   0.007  0.00  0.00    +0.001 A 
ATOM     11  C   UNL     1       2.860   8.007   0.010  0.00  0.00    +0.011 A 
ATOM     12  C   UNL     1       3.924   8.872   0.010  0.00  0.00    +0.019 A 
ATOM     13  C   UNL     1       5.230   8.373  -0.005  0.00  0.00    +0.052 A 
ATOM     14  C   UNL     1       5.450   6.992  -0.013  0.00  0.00    +0.019 A 
ATOM     15  C   UNL     1       4.385   6.129  -0.007  0.00  0.00    +0.011 A 
BRANCH  13  16
ATOM     16  C   UNL     1       6.342   9.275  -0.011  0.00  0.00    +0.099 C 
ATOM     17  N   UNL     1       7.224   9.991  -0.017  0.00  0.00    -0.191 NA
ENDBRANCH  13  16
ENDBRANCH   6  10
BRANCH   1  19
ATOM     18  C   UNL     1      -1.157  -0.694   0.009  0.00  0.00    +0.013 C 
ATOM     19  C   UNL     1       0.002  -0.004   0.002  0.00  0.00    +0.068 C 
BRANCH  18  25
ATOM     20  C   UNL     1       0.082  -2.852  -0.020  0.00  0.00    +0.010 A 
ATOM     21  C   UNL     1       0.092  -4.231  -0.021  0.00  0.00    +0.033 A 
ATOM     22  C   UNL     1      -1.099  -4.936  -0.013  0.00  0.00    +0.126 A 
ATOM     23  C   UNL     1      -2.309  -4.264   0.001  0.00  0.00    +0.033 A 
ATOM     24  C   UNL     1      -2.336  -2.885   0.009  0.00  0.00    +0.010 A 
ATOM     25  C   UNL     1      -1.137  -2.166   0.001  0.00  0.00    -0.025 A 
BRANCH  22  26
ATOM     26  N   UNL     1      -1.079  -6.416  -0.021  0.00  0.00    +0.056 N 
ATOM     27  O   UNL     1      -2.125  -7.039  -0.015  0.00  0.00    -0.126 OA
ATOM     28  O   UNL     1      -0.016  -7.010  -0.034  0.00  0.00    -0.126 OA
ENDBRANCH  22  26
ENDBRANCH  18  25
ENDBRANCH   1  19
TORSDOF 5
