REMARK  Name = ZINC12864340
REMARK  19 active torsions:
REMARK  status: ('A' for Active; 'I' for Inactive)
REMARK    1  A    between atoms: C_1  and  C_2
REMARK    2  A    between atoms: C_2  and  C_3
REMARK    3  A    between atoms: C_2  and  C_4
REMARK    4  A    between atoms: C_4  and  C_6
REMARK    5  A    between atoms: C_4  and  N_10
REMARK    6  A    between atoms: C_6  and  O_8
REMARK    7  A    between atoms: O_8  and  C_9
REMARK    8  A    between atoms: C_11  and  C_13
REMARK    9  A    between atoms: C_19  and  C_21
REMARK   10  A    between atoms: C_21  and  C_23
REMARK   11  A    between atoms: C_21  and  N_27
REMARK   12  A    between atoms: C_23  and  C_24
REMARK   13  A    between atoms: C_24  and  S_25
REMARK   14  A    between atoms: S_25  and  C_26
REMARK   15  A    between atoms: C_28  and  O_30
REMARK   16  A    between atoms: O_30  and  C_31
REMARK   17  A    between atoms: C_31  and  C_32
REMARK   18  A    between atoms: C_31  and  C_33
REMARK   19  A    between atoms: C_31  and  C_34
REMARK                            x       y       z     vdW  Elec       q    Type
REMARK                         _______ _______ _______ _____ _____    ______ ____
ROOT
ATOM      1  C   UNL     1      -5.754  -1.101   2.776  0.00  0.00    +0.078 C 
ATOM      2  C   UNL     1      -6.114  -2.010   1.600  0.00  0.00    +0.032 C 
ATOM      3  C   UNL     1      -4.994  -3.034   1.390  0.00  0.00    +0.108 C 
ATOM      4  N   UNL     1      -3.721  -2.318   1.232  0.00  0.00    -0.300 N 
ATOM      5  C   UNL     1      -3.319  -1.354   2.265  0.00  0.00    +0.108 C 
ATOM      6  C   UNL     1      -4.461  -0.345   2.462  0.00  0.00    +0.032 C 
ATOM      7  C   UNL     1      -2.934  -2.544   0.161  0.00  0.00    +0.236 C 
ATOM      8  O   UNL     1      -1.841  -2.025   0.091  0.00  0.00    -0.274 OA
ENDROOT
BRANCH   1  10
ATOM      9  N   UNL     1      -6.771   0.794   3.999  0.00  0.00    -0.302 N 
ATOM     10  C   UNL     1      -6.869  -0.113   3.007  0.00  0.00    +0.217 C 
ATOM     11  O   UNL     1      -7.854  -0.135   2.300  0.00  0.00    -0.275 OA
ATOM     12  H   UNL     1      -5.983   0.811   4.565  0.00  0.00    +0.150 HD
BRANCH   9  13
ATOM     13  C   UNL     1      -7.855   1.754   4.223  0.00  0.00    +0.184 C 
BRANCH  13  15
ATOM     14  C   UNL     1      -8.339   0.836   6.496  0.00  0.00    +0.009 C 
ATOM     15  C   UNL     1      -8.926   1.115   5.111  0.00  0.00    +0.014 C 
ATOM     16  C   UNL     1     -10.114   2.070   5.243  0.00  0.00    +0.009 C 
ENDBRANCH  13  15
BRANCH  13  17
ATOM     17  C   UNL     1      -7.306   2.982   4.903  0.00  0.00    +0.328 C 
ATOM     18  O   UNL     1      -6.130   3.048   5.172  0.00  0.00    -0.249 OA
BRANCH  17  19
ATOM     19  O   UNL     1      -8.123   4.001   5.209  0.00  0.00    -0.467 OA
ATOM     20  C   UNL     1      -7.526   5.152   5.862  0.00  0.00    +0.280 C 
ENDBRANCH  17  19
ENDBRANCH  13  17
ENDBRANCH   9  13
ENDBRANCH   1  10
BRANCH   7  21
ATOM     21  C   UNL     1      -3.414  -3.442  -0.950  0.00  0.00    +0.163 C 
BRANCH  21  22
ATOM     22  N   UNL     1      -2.479  -3.369  -2.076  0.00  0.00    -0.270 N 
ATOM     23  C   UNL     1      -2.903  -3.648  -3.324  0.00  0.00    +0.401 C 
ATOM     24  O   UNL     1      -4.062  -3.962  -3.516  0.00  0.00    -0.226 OA
ATOM     25  H   UNL     1      -1.554  -3.119  -1.922  0.00  0.00    +0.153 HD
BRANCH  23  26
ATOM     26  O   UNL     1      -2.044  -3.581  -4.358  0.00  0.00    -0.445 OA
BRANCH  26  27
ATOM     27  C   UNL     1      -2.571  -3.895  -5.674  0.00  0.00    +0.107 C 
ATOM     28  C   UNL     1      -3.702  -2.924  -6.016  0.00  0.00    +0.055 C 
ATOM     29  C   UNL     1      -1.456  -3.765  -6.714  0.00  0.00    +0.055 C 
ATOM     30  C   UNL     1      -3.108  -5.328  -5.679  0.00  0.00    +0.055 C 
ENDBRANCH  26  27
ENDBRANCH  23  26
ENDBRANCH  21  22
BRANCH  21  31
ATOM     31  C   UNL     1      -3.490  -4.884  -0.444  0.00  0.00    +0.042 C 
BRANCH  31  32
ATOM     32  C   UNL     1      -4.041  -5.785  -1.550  0.00  0.00    +0.071 C 
BRANCH  32  33
ATOM     33  S   UNL     1      -4.131  -7.494  -0.950  0.00  0.00    -0.164 S 
ATOM     34  C   UNL     1      -4.795  -8.421  -2.361  0.00  0.00    +0.084 C 
ENDBRANCH  32  33
ENDBRANCH  31  32
ENDBRANCH  21  31
ENDBRANCH   7  21
TORSDOF 12
