REMARK  Name = ZINC41636927
REMARK  6 active torsions:
REMARK  status: ('A' for Active; 'I' for Inactive)
REMARK    1  A    between atoms: C_5  and  N_7
REMARK    2  A    between atoms: C_8  and  C_10
REMARK    3  A    between atoms: N_14  and  O_17
REMARK    4  A    between atoms: O_17  and  C_18
REMARK    5  A    between atoms: C_18  and  C_19
REMARK    6  A    between atoms: C_22  and  N_25
REMARK                            x       y       z     vdW  Elec       q    Type
REMARK                         _______ _______ _______ _____ _____    ______ ____
ROOT
ATOM      1  C   UNL     1       0.116  -4.240   0.190  0.00  0.00    +0.104 A 
ATOM      2  C   UNL     1      -1.068  -4.976   0.193  0.00  0.00    +0.020 A 
ATOM      3  C   UNL     1      -0.999  -6.365   0.291  0.00  0.00    +0.022 A 
ATOM      4  C   UNL     1       0.207  -6.983   0.383  0.00  0.00    +0.133 A 
ATOM      5  N   UNL     1       1.361  -6.274   0.380  0.00  0.00    -0.151 N 
ATOM      6  C   UNL     1       1.351  -4.931   0.281  0.00  0.00    +0.296 A 
ATOM      7  O   UNL     1       2.401  -4.311   0.276  0.00  0.00    -0.264 OA
ENDROOT
BRANCH   1   9
ATOM      8  N   UNL     1       1.235  -2.082  -0.039  0.00  0.00    -0.279 N 
ATOM      9  C   UNL     1       0.085  -2.773   0.088  0.00  0.00    +0.254 C 
ATOM     10  O   UNL     1      -0.979  -2.183   0.117  0.00  0.00    -0.270 OA
ATOM     11  H   UNL     1       2.078  -2.554  -0.124  0.00  0.00    +0.155 HD
BRANCH   8  16
ATOM     12  C   UNL     1       0.078   1.374  -0.529  0.00  0.00    +0.002 A 
ATOM     13  C   UNL     1       1.170   2.086  -0.066  0.00  0.00    +0.003 A 
ATOM     14  C   UNL     1       2.284   1.417   0.407  0.00  0.00    +0.040 A 
ATOM     15  C   UNL     1       2.310   0.035   0.418  0.00  0.00    +0.144 A 
ATOM     16  C   UNL     1       1.213  -0.682  -0.048  0.00  0.00    +0.069 A 
ATOM     17  C   UNL     1       0.097  -0.007  -0.521  0.00  0.00    +0.026 A 
ATOM     18  F   UNL     1       3.399  -0.618   0.879  0.00  0.00    -0.204 F 
ENDBRANCH   8  16
ENDBRANCH   1   9
BRANCH   5  19
ATOM     19  O   UNL     1       2.598  -6.957   0.478  0.00  0.00    -0.404 OA
BRANCH  19  20
ATOM     20  C   UNL     1       3.158  -7.327  -0.783  0.00  0.00    +0.296 C 
BRANCH  20  21
ATOM     21  C   UNL     1       4.465  -8.043  -0.561  0.00  0.00    -0.008 A 
ATOM     22  C   UNL     1       5.645  -7.326  -0.502  0.00  0.00    +0.009 A 
ATOM     23  C   UNL     1       6.845  -7.983  -0.298  0.00  0.00    +0.033 A 
ATOM     24  C   UNL     1       6.864  -9.357  -0.153  0.00  0.00    +0.126 A 
ATOM     25  C   UNL     1       5.684 -10.075  -0.210  0.00  0.00    +0.033 A 
ATOM     26  C   UNL     1       4.484  -9.418  -0.410  0.00  0.00    +0.009 A 
BRANCH  24  27
ATOM     27  N   UNL     1       8.148 -10.060   0.065  0.00  0.00    +0.056 N 
ATOM     28  O   UNL     1       9.180  -9.433   0.115  0.00  0.00    -0.126 OA
ATOM     29  O   UNL     1       8.165 -11.263   0.192  0.00  0.00    -0.126 OA
ENDBRANCH  24  27
ENDBRANCH  20  21
ENDBRANCH  19  20
ENDBRANCH   5  19
TORSDOF 6
