REMARK  Name = ZINC08646295
REMARK  8 active torsions:
REMARK  status: ('A' for Active; 'I' for Inactive)
REMARK    1  A    between atoms: C_1  and  C_2
REMARK    2  A    between atoms: C_2  and  C_3
REMARK    3  A    between atoms: C_12  and  C_13
REMARK    4  A    between atoms: C_13  and  C_15
REMARK    5  A    between atoms: C_15  and  N_16
REMARK    6  A    between atoms: C_19  and  C_23
REMARK    7  A    between atoms: C_19  and  C_24
REMARK    8  A    between atoms: C_27  and  N_30
REMARK                            x       y       z     vdW  Elec       q    Type
REMARK                         _______ _______ _______ _____ _____    ______ ____
ROOT
ATOM      1  N   UNL     1      -0.593  -1.264   1.812  0.00  0.00    -0.216 N 
ATOM      2  C   UNL     1      -1.154  -0.558   0.811  0.00  0.00    +0.251 C 
ATOM      3  O   UNL     1      -2.337  -0.398   0.602  0.00  0.00    -0.272 OA
ATOM      4  C   UNL     1       0.002  -0.004   0.002  0.00  0.00    +0.135 C 
ATOM      5  N   UNL     1       1.192  -0.510   0.708  0.00  0.00    -0.281 N 
ATOM      6  C   UNL     1       0.743  -1.234   1.749  0.00  0.00    +0.310 C 
ATOM      7  O   UNL     1       1.470  -1.797   2.544  0.00  0.00    -0.252 OA
ATOM      8  C   UNL     1      -0.039  -0.533  -1.433  0.00  0.00    +0.047 C 
ATOM      9  H   UNL     1       2.119  -0.353   0.468  0.00  0.00    +0.152 HD
ENDROOT
BRANCH   4  10
ATOM     10  C   UNL     1      -0.018   1.503   0.010  0.00  0.00    -0.015 A 
ATOM     11  C   UNL     1      -1.225   2.178   0.020  0.00  0.00    +0.008 A 
ATOM     12  C   UNL     1      -1.244   3.560   0.032  0.00  0.00    +0.033 A 
ATOM     13  C   UNL     1      -0.056   4.267   0.025  0.00  0.00    +0.126 A 
ATOM     14  C   UNL     1       1.151   3.592   0.010  0.00  0.00    +0.033 A 
ATOM     15  C   UNL     1       1.169   2.210   0.003  0.00  0.00    +0.008 A 
BRANCH  13  16
ATOM     16  N   UNL     1      -0.076   5.747   0.033  0.00  0.00    +0.056 N 
ATOM     17  O   UNL     1       0.971   6.370   0.027  0.00  0.00    -0.126 OA
ATOM     18  O   UNL     1      -1.139   6.342   0.045  0.00  0.00    -0.126 OA
ENDBRANCH  13  16
ENDBRANCH   4  10
BRANCH   1  19
ATOM     19  C   UNL     1      -1.352  -1.976   2.844  0.00  0.00    +0.197 C 
BRANCH  19  20
ATOM     20  C   UNL     1      -1.599  -1.055   4.011  0.00  0.00    +0.183 C 
ATOM     21  O   UNL     1      -1.182   0.085   3.984  0.00  0.00    -0.290 OA
BRANCH  20  31
ATOM     22  C   UNL     1      -3.817  -1.194   8.422  0.00  0.00    -0.024 A 
ATOM     23  C   UNL     1      -3.558   0.097   8.828  0.00  0.00    +0.005 A 
ATOM     24  C   UNL     1      -2.849   0.966   8.012  0.00  0.00    +0.001 A 
ATOM     25  C   UNL     1      -2.392   0.546   6.781  0.00  0.00    +0.011 A 
ATOM     26  C   UNL     1      -2.647  -0.755   6.359  0.00  0.00    +0.010 A 
ATOM     27  C   UNL     1      -3.365  -1.636   7.183  0.00  0.00    +0.050 A 
ATOM     28  N   UNL     1      -3.466  -2.841   6.518  0.00  0.00    -0.360 N 
ATOM     29  H   UNL     1      -3.916  -3.627   6.867  0.00  0.00    +0.165 HD
ATOM     30  C   UNL     1      -2.859  -2.776   5.318  0.00  0.00    +0.095 A 
ATOM     31  C   UNL     1      -2.319  -1.520   5.140  0.00  0.00    +0.044 A 
BRANCH  22  33
ATOM     32  C   UNL     1      -3.611  -2.969  10.141  0.00  0.00    +0.009 C 
ATOM     33  C   UNL     1      -4.588  -2.126   9.319  0.00  0.00    +0.034 C 
ENDBRANCH  22  33
ENDBRANCH  20  31
ENDBRANCH  19  20
ENDBRANCH   1  19
TORSDOF 6
