REMARK  Name = ZINC64982370
REMARK  8 active torsions:
REMARK  status: ('A' for Active; 'I' for Inactive)
REMARK    1  A    between atoms: C_1  and  C_2
REMARK    2  A    between atoms: C_2  and  C_4
REMARK    3  A    between atoms: C_2  and  O_16
REMARK    4  A    between atoms: N_6  and  C_7
REMARK    5  A    between atoms: O_16  and  C_17
REMARK    6  A    between atoms: C_20  and  C_23
REMARK    7  A    between atoms: C_23  and  C_24
REMARK    8  A    between atoms: C_23  and  C_25
REMARK                            x       y       z     vdW  Elec       q    Type
REMARK                         _______ _______ _______ _____ _____    ______ ____
ROOT
ATOM      1  C   UNL     1      -1.404  -0.465   0.389  0.00  0.00    +0.258 C 
ATOM      2  O   UNL     1      -1.824  -0.735   1.494  0.00  0.00    -0.271 OA
ATOM      3  N   UNL     1      -2.250  -0.404  -0.658  0.00  0.00    -0.282 N 
ATOM      4  H   UNL     1      -1.905  -0.270  -1.555  0.00  0.00    +0.155 HD
ENDROOT
BRANCH   3   5
ATOM      5  C   UNL     1      -3.630  -0.534  -0.452  0.00  0.00    +0.037 A 
ATOM      6  C   UNL     1      -4.418  -1.165  -1.405  0.00  0.00    +0.027 A 
ATOM      7  C   UNL     1      -5.779  -1.294  -1.203  0.00  0.00    +0.051 A 
ATOM      8  C   UNL     1      -6.361  -0.795  -0.048  0.00  0.00    +0.166 A 
ATOM      9  C   UNL     1      -5.572  -0.162   0.910  0.00  0.00    +0.168 A 
ATOM     10  C   UNL     1      -4.208  -0.038   0.709  0.00  0.00    +0.072 A 
ATOM     11  O   UNL     1      -6.374   0.235   1.941  0.00  0.00    -0.453 OA
ATOM     12  C   UNL     1      -7.716   0.205   1.419  0.00  0.00    +0.466 C 
ATOM     13  O   UNL     1      -7.657  -0.793   0.383  0.00  0.00    -0.453 OA
ENDBRANCH   3   5
BRANCH   1  15
ATOM     14  C   UNL     1       0.265   1.258  -0.242  0.00  0.00    +0.062 C 
ATOM     15  C   UNL     1       0.066  -0.197   0.186  0.00  0.00    +0.256 C 
BRANCH  15  16
ATOM     16  O   UNL     1       0.766  -0.434   1.409  0.00  0.00    -0.480 OA
BRANCH  16  17
ATOM     17  C   UNL     1       2.085  -0.747   1.313  0.00  0.00    +0.122 A 
ATOM     18  C   UNL     1       2.798  -1.106   2.448  0.00  0.00    +0.046 A 
ATOM     19  C   UNL     1       4.138  -1.424   2.349  0.00  0.00    +0.007 A 
ATOM     20  C   UNL     1       4.770  -1.383   1.119  0.00  0.00    -0.045 A 
ATOM     21  C   UNL     1       4.062  -1.025  -0.013  0.00  0.00    +0.007 A 
ATOM     22  C   UNL     1       2.720  -0.713   0.080  0.00  0.00    +0.046 A 
BRANCH  20  23
ATOM     23  C   UNL     1       6.233  -1.730   1.014  0.00  0.00    +0.013 C 
ATOM     24  C   UNL     1       6.408  -2.925   0.075  0.00  0.00    +0.012 C 
ATOM     25  C   UNL     1       7.003  -0.530   0.460  0.00  0.00    +0.012 C 
ENDBRANCH  20  23
ENDBRANCH  16  17
ENDBRANCH  15  16
ENDBRANCH   1  15
TORSDOF 5
