REMARK  Name = ZINC03269225
REMARK  12 active torsions:
REMARK  status: ('A' for Active; 'I' for Inactive)
REMARK    1  A    between atoms: C_1  and  C_2
REMARK    2  A    between atoms: C_2  and  C_4
REMARK    3  A    between atoms: C_2  and  O_16
REMARK    4  A    between atoms: N_6  and  C_7
REMARK    5  A    between atoms: C_11  and  N_13
REMARK    6  A    between atoms: O_16  and  C_17
REMARK    7  A    between atoms: C_17  and  C_19
REMARK    8  A    between atoms: C_19  and  C_21
REMARK    9  A    between atoms: C_19  and  N_24
REMARK   10  A    between atoms: C_21  and  C_22
REMARK   11  A    between atoms: C_21  and  C_23
REMARK   12  A    between atoms: C_25  and  C_27
REMARK                            x       y       z     vdW  Elec       q    Type
REMARK                         _______ _______ _______ _____ _____    ______ ____
ROOT
ATOM      1  C   UNL     1      -1.900  -0.705   1.213  0.00  0.00    +0.329 C 
ATOM      2  O   UNL     1      -1.274  -0.474   2.220  0.00  0.00    -0.249 OA
ENDROOT
BRANCH   1   3
ATOM      3  O   UNL     1      -1.339  -0.495   0.012  0.00  0.00    -0.451 OA
BRANCH   3   5
ATOM      4  C   UNL     1      -0.023   1.532  -0.004  0.00  0.00    +0.062 C 
ATOM      5  C   UNL     1       0.001   0.002  -0.001  0.00  0.00    +0.259 C 
BRANCH   5   6
ATOM      6  C   UNL     1       0.708  -0.491  -1.237  0.00  0.00    +0.258 C 
ATOM      7  O   UNL     1       0.098  -1.123  -2.073  0.00  0.00    -0.271 OA
ATOM      8  N   UNL     1       2.018  -0.231  -1.413  0.00  0.00    -0.282 N 
ATOM      9  H   UNL     1       2.491   0.331  -0.778  0.00  0.00    +0.155 HD
BRANCH   8  10
ATOM     10  C   UNL     1       2.698  -0.770  -2.511  0.00  0.00    +0.036 A 
ATOM     11  C   UNL     1       4.024  -1.163  -2.384  0.00  0.00    +0.023 A 
ATOM     12  C   UNL     1       4.692  -1.695  -3.469  0.00  0.00    +0.004 A 
ATOM     13  C   UNL     1       4.041  -1.836  -4.682  0.00  0.00    +0.033 A 
ATOM     14  C   UNL     1       2.722  -1.445  -4.811  0.00  0.00    +0.128 A 
ATOM     15  C   UNL     1       2.046  -0.918  -3.728  0.00  0.00    +0.056 A 
BRANCH  14  16
ATOM     16  N   UNL     1       2.030  -1.597  -6.111  0.00  0.00    +0.056 N 
ATOM     17  O   UNL     1       2.619  -2.063  -7.059  0.00  0.00    -0.126 OA
ATOM     18  O   UNL     1       0.876  -1.256  -6.225  0.00  0.00    -0.126 OA
ENDBRANCH  14  16
ENDBRANCH   8  10
ENDBRANCH   5   6
ENDBRANCH   3   5
ENDBRANCH   1   3
BRANCH   1  19
ATOM     19  C   UNL     1      -3.310  -1.229   1.306  0.00  0.00    +0.185 C 
BRANCH  19  20
ATOM     20  N   UNL     1      -3.687  -1.371   2.714  0.00  0.00    -0.298 N 
ATOM     21  C   UNL     1      -4.642  -2.252   3.070  0.00  0.00    +0.245 C 
ATOM     22  O   UNL     1      -5.191  -2.929   2.223  0.00  0.00    -0.270 OA
ATOM     23  H   UNL     1      -3.249  -0.830   3.390  0.00  0.00    +0.150 HD
BRANCH  21  24
ATOM     24  C   UNL     1      -5.022  -2.395   4.491  0.00  0.00    +0.037 A 
ATOM     25  C   UNL     1      -4.397  -1.614   5.465  0.00  0.00    +0.016 A 
ATOM     26  C   UNL     1      -4.756  -1.752   6.789  0.00  0.00    +0.039 A 
ATOM     27  C   UNL     1      -5.735  -2.664   7.154  0.00  0.00    +0.123 A 
ATOM     28  C   UNL     1      -6.358  -3.441   6.190  0.00  0.00    +0.039 A 
ATOM     29  C   UNL     1      -6.012  -3.307   4.863  0.00  0.00    +0.016 A 
ATOM     30  F   UNL     1      -6.082  -2.795   8.453  0.00  0.00    -0.205 F 
ENDBRANCH  21  24
ENDBRANCH  19  20
BRANCH  19  31
ATOM     31  C   UNL     1      -4.263  -0.249   0.618  0.00  0.00    +0.014 C 
ATOM     32  C   UNL     1      -4.089   1.144   1.226  0.00  0.00    +0.009 C 
ATOM     33  C   UNL     1      -3.949  -0.196  -0.878  0.00  0.00    +0.009 C 
ENDBRANCH  19  31
ENDBRANCH   1  19
TORSDOF 9
