REMARK  Name = ZINC36575424
REMARK  14 active torsions:
REMARK  status: ('A' for Active; 'I' for Inactive)
REMARK    1  A    between atoms: C_1  and  C_2
REMARK    2  A    between atoms: C_2  and  C_3
REMARK    3  A    between atoms: C_3  and  N_4
REMARK    4  A    between atoms: N_4  and  C_5
REMARK    5  A    between atoms: C_5  and  C_7
REMARK    6  A    between atoms: C_5  and  C_17
REMARK    7  A    between atoms: C_9  and  N_14
REMARK    8  A    between atoms: N_19  and  C_20
REMARK    9  A    between atoms: C_20  and  C_21
REMARK   10  A    between atoms: C_20  and  C_22
REMARK   11  A    between atoms: C_20  and  C_23
REMARK   12  A    between atoms: C_24  and  C_26
REMARK   13  A    between atoms: C_26  and  N_27
REMARK   14  A    between atoms: C_28  and  C_30
REMARK                            x       y       z     vdW  Elec       q    Type
REMARK                         _______ _______ _______ _____ _____    ______ ____
ROOT
ATOM      1  C   UNL     1      -1.318  -3.155   1.230  0.00  0.00    +0.194 C 
ENDROOT
BRANCH   1   2
ATOM      2  C   UNL     1       0.021  -3.003   1.905  0.00  0.00    +0.002 A 
ATOM      3  C   UNL     1       0.654  -1.774   1.915  0.00  0.00    +0.040 A 
ATOM      4  C   UNL     1       1.882  -1.634   2.533  0.00  0.00    +0.127 A 
ATOM      5  C   UNL     1       2.479  -2.723   3.141  0.00  0.00    +0.034 A 
ATOM      6  C   UNL     1       1.847  -3.951   3.132  0.00  0.00    +0.022 A 
ATOM      7  C   UNL     1       0.614  -4.091   2.519  0.00  0.00    +0.047 A 
ATOM      8 CL   UNL     1      -0.183  -5.633   2.513  0.00  0.00    -0.083 Cl
BRANCH   4   9
ATOM      9  N   UNL     1       2.559  -0.318   2.543  0.00  0.00    +0.056 N 
ATOM     10  O   UNL     1       1.999   0.654   2.092  0.00  0.00    -0.126 OA
ATOM     11  O   UNL     1       3.673  -0.214   3.002  0.00  0.00    -0.126 OA
ENDBRANCH   4   9
ENDBRANCH   1   2
BRANCH   1  12
ATOM     12  C   UNL     1      -2.414  -3.040   2.259  0.00  0.00    +0.239 C 
ATOM     13  O   UNL     1      -3.249  -2.166   2.160  0.00  0.00    -0.273 OA
ATOM     14  N   UNL     1      -2.467  -3.909   3.287  0.00  0.00    -0.309 N 
ATOM     15  H   UNL     1      -1.799  -4.609   3.366  0.00  0.00    +0.149 HD
BRANCH  14  16
ATOM     16  C   UNL     1      -3.532  -3.798   4.287  0.00  0.00    +0.026 C 
ATOM     17  C   UNL     1      -4.892  -3.953   3.602  0.00  0.00    +0.031 C 
ATOM     18  C   UNL     1      -3.362  -4.896   5.338  0.00  0.00    +0.031 C 
ATOM     19  C   UNL     1      -3.455  -2.428   4.963  0.00  0.00    +0.031 C 
ENDBRANCH  14  16
ENDBRANCH   1  12
BRANCH   1  20
ATOM     20  N   UNL     1      -1.481  -2.104   0.224  0.00  0.00    -0.285 N 
ATOM     21  C   UNL     1      -1.637  -0.821   0.608  0.00  0.00    +0.234 C 
ATOM     22  O   UNL     1      -1.578  -0.529   1.784  0.00  0.00    -0.274 OA
BRANCH  20  23
ATOM     23  C   UNL     1      -1.474  -2.446  -1.201  0.00  0.00    +0.108 C 
BRANCH  23  25
ATOM     24  C   UNL     1      -2.900  -3.120  -3.138  0.00  0.00    +0.005 C 
ATOM     25  C   UNL     1      -2.912  -2.642  -1.685  0.00  0.00    +0.016 C 
ENDBRANCH  23  25
ENDBRANCH  20  23
BRANCH  21  26
ATOM     26  C   UNL     1      -1.884   0.250  -0.423  0.00  0.00    +0.200 C 
BRANCH  26  27
ATOM     27  N   UNL     1      -2.018   1.548   0.243  0.00  0.00    -0.303 N 
ATOM     28  C   UNL     1      -2.245   2.659  -0.485  0.00  0.00    +0.244 C 
ATOM     29  O   UNL     1      -2.339   2.584  -1.695  0.00  0.00    -0.270 OA
ATOM     30  H   UNL     1      -1.943   1.607   1.208  0.00  0.00    +0.150 HD
BRANCH  28  31
ATOM     31  C   UNL     1      -2.380   3.968   0.187  0.00  0.00    +0.037 A 
ATOM     32  C   UNL     1      -2.267   4.059   1.575  0.00  0.00    +0.013 A 
ATOM     33  C   UNL     1      -2.393   5.284   2.196  0.00  0.00    +0.001 A 
ATOM     34  C   UNL     1      -2.632   6.422   1.446  0.00  0.00    +0.000 A 
ATOM     35  C   UNL     1      -2.745   6.339   0.070  0.00  0.00    +0.001 A 
ATOM     36  C   UNL     1      -2.615   5.121  -0.564  0.00  0.00    +0.013 A 
ENDBRANCH  28  31
ENDBRANCH  26  27
ENDBRANCH  21  26
ENDBRANCH   1  20
TORSDOF 10
