REMARK  Name = ZINC09633469
REMARK  8 active torsions:
REMARK  status: ('A' for Active; 'I' for Inactive)
REMARK    1  A    between atoms: C_6  and  N_7
REMARK    2  A    between atoms: C_8  and  C_10
REMARK    3  A    between atoms: C_10  and  O_11
REMARK    4  A    between atoms: O_11  and  C_12
REMARK    5  A    between atoms: C_12  and  C_14
REMARK    6  A    between atoms: C_14  and  S_15
REMARK    7  A    between atoms: S_15  and  C_16
REMARK    8  A    between atoms: N_21  and  C_22
REMARK                            x       y       z     vdW  Elec       q    Type
REMARK                         _______ _______ _______ _____ _____    ______ ____
ROOT
ATOM      1  C   UNL     1       8.049  -3.395   4.788  0.00  0.00    +0.318 C 
ATOM      2  O   UNL     1       8.882  -2.523   4.870  0.00  0.00    -0.250 OA
ENDROOT
BRANCH   1   3
ATOM      3  O   UNL     1       6.901  -3.168   4.131  0.00  0.00    -0.455 OA
BRANCH   3   4
ATOM      4  C   UNL     1       6.728  -1.852   3.543  0.00  0.00    +0.328 C 
BRANCH   4   6
ATOM      5  N   UNL     1       5.010  -0.649   2.231  0.00  0.00    -0.283 N 
ATOM      6  C   UNL     1       5.390  -1.783   2.852  0.00  0.00    +0.255 C 
ATOM      7  O   UNL     1       4.655  -2.748   2.855  0.00  0.00    -0.272 OA
ATOM      8  H   UNL     1       5.627   0.097   2.162  0.00  0.00    +0.155 HD
BRANCH   5  14
ATOM      9  C   UNL     1       2.657  -1.190   2.295  0.00  0.00    +0.027 A 
ATOM     10  C   UNL     1       1.388  -1.090   1.757  0.00  0.00    +0.051 A 
ATOM     11  C   UNL     1       1.177  -0.347   0.608  0.00  0.00    +0.166 A 
ATOM     12  C   UNL     1       2.246   0.301  -0.008  0.00  0.00    +0.168 A 
ATOM     13  C   UNL     1       3.517   0.200   0.532  0.00  0.00    +0.072 A 
ATOM     14  C   UNL     1       3.724  -0.546   1.684  0.00  0.00    +0.037 A 
ATOM     15  O   UNL     1       1.782   0.958  -1.110  0.00  0.00    -0.453 OA
ATOM     16  C   UNL     1       0.355   1.044  -0.934  0.00  0.00    +0.466 C 
ATOM     17  O   UNL     1       0.043  -0.094  -0.110  0.00  0.00    -0.453 OA
ENDBRANCH   5  14
ENDBRANCH   4   6
ENDBRANCH   3   4
ENDBRANCH   1   3
BRANCH   1  18
ATOM     18  C   UNL     1       8.300  -4.738   5.425  0.00  0.00    +0.196 C 
BRANCH  18  19
ATOM     19  S   UNL     1       9.925  -4.731   6.230  0.00  0.00    -0.086 S 
BRANCH  19  20
ATOM     20  C   UNL     1      10.068  -6.347   6.917  0.00  0.00    +0.160 A 
ATOM     21  N   UNL     1       9.211  -7.350   6.881  0.00  0.00    -0.133 NA
ATOM     22  N   UNL     1       9.528  -8.543   7.487  0.00  0.00    -0.125 NA
ATOM     23  C   UNL     1      10.682  -8.677   8.111  0.00  0.00    +0.183 A 
ATOM     24  S   UNL     1      11.407  -7.064   7.857  0.00  0.00    -0.025 S 
ATOM     25  N   UNL     1      11.196  -9.777   8.786  0.00  0.00    -0.319 N 
ATOM     26  H   UNL     1      12.070  -9.726   9.202  0.00  0.00    +0.148 HD
BRANCH  25  27
ATOM     27  C   UNL     1      10.416 -11.015   8.870  0.00  0.00    +0.072 C 
ATOM     28  C   UNL     1       9.446 -10.927  10.051  0.00  0.00    +0.022 C 
ATOM     29  C   UNL     1       8.632 -12.220  10.139  0.00  0.00    +0.002 C 
ATOM     30  C   UNL     1       9.578 -13.405  10.342  0.00  0.00    +0.000 C 
ATOM     31  C   UNL     1      10.547 -13.493   9.162  0.00  0.00    +0.002 C 
ATOM     32  C   UNL     1      11.361 -12.200   9.074  0.00  0.00    +0.022 C 
ENDBRANCH  25  27
ENDBRANCH  19  20
ENDBRANCH  18  19
ENDBRANCH   1  18
TORSDOF 8
