REMARK  Name = ZINC53217243
REMARK  8 active torsions:
REMARK  status: ('A' for Active; 'I' for Inactive)
REMARK    1  A    between atoms: C_1  and  S_2
REMARK    2  A    between atoms: S_2  and  C_3
REMARK    3  A    between atoms: C_6  and  N_23
REMARK    4  A    between atoms: C_7  and  C_9
REMARK    5  A    between atoms: N_11  and  C_12
REMARK    6  A    between atoms: C_12  and  C_13
REMARK    7  A    between atoms: C_13  and  C_14
REMARK    8  A    between atoms: C_17  and  N_20
REMARK                            x       y       z     vdW  Elec       q    Type
REMARK                         _______ _______ _______ _____ _____    ______ ____
ROOT
ATOM      1  C   UNL     1       1.879  -3.461  -3.448  0.00  0.00    +0.246 C 
ATOM      2  O   UNL     1       2.541  -3.728  -4.432  0.00  0.00    -0.270 OA
ATOM      3  N   UNL     1       1.315  -4.450  -2.727  0.00  0.00    -0.311 N 
ATOM      4  H   UNL     1       0.787  -4.237  -1.942  0.00  0.00    +0.149 HD
ENDROOT
BRANCH   1   9
ATOM      5  C   UNL     1       0.238  -0.211  -2.505  0.00  0.00    +0.008 A 
ATOM      6  C   UNL     1       1.350   0.595  -2.283  0.00  0.00    +0.017 A 
ATOM      7  C   UNL     1       2.623   0.082  -2.441  0.00  0.00    +0.034 A 
ATOM      8  C   UNL     1       2.800  -1.234  -2.819  0.00  0.00    +0.138 A 
ATOM      9  C   UNL     1       1.691  -2.051  -3.043  0.00  0.00    +0.068 A 
ATOM     10  C   UNL     1       0.406  -1.536  -2.879  0.00  0.00    +0.030 A 
BRANCH   8  11
ATOM     11  N   UNL     1       4.167  -1.778  -2.986  0.00  0.00    +0.057 N 
ATOM     12  O   UNL     1       5.124  -1.044  -2.908  0.00  0.00    -0.126 OA
ATOM     13  O   UNL     1       4.325  -2.958  -3.201  0.00  0.00    -0.126 OA
ENDBRANCH   8  11
BRANCH   5  15
ATOM     14  C   UNL     1      -1.097   2.174  -1.819  0.00  0.00    +0.090 C 
ATOM     15  S   UNL     1      -1.383   0.449  -2.302  0.00  0.00    -0.129 S 
ENDBRANCH   5  15
ENDBRANCH   1   9
BRANCH   3  16
ATOM     16  C   UNL     1       1.501  -5.847  -3.128  0.00  0.00    +0.109 C 
BRANCH  16  17
ATOM     17  C   UNL     1       0.764  -6.762  -2.148  0.00  0.00    +0.054 C 
BRANCH  17  18
ATOM     18  C   UNL     1       0.955  -8.198  -2.561  0.00  0.00    -0.046 A 
ATOM     19  C   UNL     1       0.062  -8.791  -3.434  0.00  0.00    +0.006 A 
ATOM     20  C   UNL     1       0.237 -10.109  -3.812  0.00  0.00    +0.033 A 
ATOM     21  C   UNL     1       1.306 -10.834  -3.318  0.00  0.00    +0.126 A 
ATOM     22  C   UNL     1       2.199 -10.241  -2.446  0.00  0.00    +0.033 A 
ATOM     23  C   UNL     1       2.026  -8.922  -2.071  0.00  0.00    +0.006 A 
BRANCH  21  24
ATOM     24  N   UNL     1       1.493 -12.245  -3.723  0.00  0.00    +0.056 N 
ATOM     25  O   UNL     1       0.711 -12.764  -4.486  0.00  0.00    -0.126 OA
ATOM     26  O   UNL     1       2.427 -12.879  -3.291  0.00  0.00    -0.126 OA
ENDBRANCH  21  24
ENDBRANCH  17  18
ENDBRANCH  16  17
ENDBRANCH   3  16
TORSDOF 7
