REMARK  Name = ZINC59461723
REMARK  5 active torsions:
REMARK  status: ('A' for Active; 'I' for Inactive)
REMARK    1  A    between atoms: C_4  and  C_7
REMARK    2  A    between atoms: N_9  and  C_27
REMARK    3  A    between atoms: N_13  and  N_14
REMARK    4  A    between atoms: C_17  and  C_20
REMARK    5  A    between atoms: C_27  and  N_29
REMARK                            x       y       z     vdW  Elec       q    Type
REMARK                         _______ _______ _______ _____ _____    ______ ____
ROOT
ATOM      1  C   UNL     1       3.698  -0.687  -0.037  0.00  0.00    +0.122 C 
ATOM      2  N   UNL     1       4.890  -0.144  -0.041  0.00  0.00    -0.168 NA
ATOM      3  N   UNL     1       5.868  -1.140  -0.058  0.00  0.00    -0.134 N 
ATOM      4  C   UNL     1       5.287  -2.355  -0.066  0.00  0.00    +0.294 C 
ATOM      5  O   UNL     1       5.859  -3.432  -0.080  0.00  0.00    -0.266 OA
ATOM      6  C   UNL     1       3.885  -2.148  -0.047  0.00  0.00    +0.177 C 
ATOM      7  N   UNL     1       2.933  -3.082  -0.043  0.00  0.00    -0.140 NA
ENDROOT
BRANCH   7   8
ATOM      8  N   UNL     1       3.255  -4.331  -0.052  0.00  0.00    -0.123 NA
ATOM      9  C   UNL     1       2.298  -5.270  -0.048  0.00  0.00    +0.192 A 
ATOM     10  N   UNL     1       2.444  -6.614  -0.051  0.00  0.00    -0.332 N 
ATOM     11  C   UNL     1       1.335  -7.403  -0.045  0.00  0.00    +0.055 A 
ATOM     12  C   UNL     1       0.136  -6.769  -0.036  0.00  0.00    +0.075 A 
ATOM     13  S   UNL     1       0.630  -5.056  -0.030  0.00  0.00    -0.056 S 
ATOM     14  H   UNL     1       3.329  -7.012  -0.058  0.00  0.00    +0.168 HD
BRANCH  11  15
ATOM     15  C   UNL     1       1.432  -8.879  -0.048  0.00  0.00    -0.001 A 
ATOM     16  C   UNL     1       2.683  -9.499  -0.052  0.00  0.00    +0.011 A 
ATOM     17  C   UNL     1       2.768 -10.876  -0.055  0.00  0.00    +0.020 A 
ATOM     18  C   UNL     1       1.615 -11.643  -0.054  0.00  0.00    +0.041 A 
ATOM     19  C   UNL     1       0.371 -11.034  -0.050  0.00  0.00    +0.020 A 
ATOM     20  C   UNL     1       0.274  -9.658  -0.042  0.00  0.00    +0.011 A 
ATOM     21 CL   UNL     1       1.729 -13.375  -0.058  0.00  0.00    -0.084 Cl
ENDBRANCH  11  15
ENDBRANCH   7   8
BRANCH   1  25
ATOM     22  C   UNL     1      -0.017   1.379   0.010  0.00  0.00    +0.000 A 
ATOM     23  C   UNL     1       1.169   2.092   0.002  0.00  0.00    +0.001 A 
ATOM     24  C   UNL     1       2.377   1.427  -0.013  0.00  0.00    +0.010 A 
ATOM     25  C   UNL     1       2.403   0.033  -0.021  0.00  0.00    +0.004 A 
ATOM     26  C   UNL     1       1.205  -0.680  -0.013  0.00  0.00    +0.010 A 
ATOM     27  C   UNL     1       0.002  -0.004   0.002  0.00  0.00    +0.001 A 
ENDBRANCH   1  25
BRANCH   3  28
ATOM     28  C   UNL     1       7.198  -0.919  -0.066  0.00  0.00    +0.158 C 
ATOM     29  S   UNL     1       8.285  -2.241  -0.087  0.00  0.00    -0.017 S 
BRANCH  28  30
ATOM     30  N   UNL     1       7.671   0.343  -0.056  0.00  0.00    -0.339 N 
ATOM     31  H   UNL     1       7.055   1.092  -0.044  0.00  0.00    +0.144 HD
ATOM     32  H   UNL     1       8.628   0.502  -0.062  0.00  0.00    +0.144 HD
ENDBRANCH  28  30
ENDBRANCH   3  28
TORSDOF 5
