REMARK  Name = ZINC38769446
REMARK  7 active torsions:
REMARK  status: ('A' for Active; 'I' for Inactive)
REMARK    1  A    between atoms: C_3  and  C_10
REMARK    2  A    between atoms: C_5  and  N_7
REMARK    3  A    between atoms: C_16  and  S_19
REMARK    4  A    between atoms: S_19  and  C_20
REMARK    5  A    between atoms: C_20  and  C_21
REMARK    6  A    between atoms: N_23  and  C_24
REMARK    7  A    between atoms: C_24  and  C_25
REMARK                            x       y       z     vdW  Elec       q    Type
REMARK                         _______ _______ _______ _____ _____    ______ ____
ROOT
ATOM      1  C   UNL     1       3.659   2.163  -0.022  0.00  0.00    +0.092 A 
ATOM      2  C   UNL     1       3.641   3.565  -0.009  0.00  0.00    +0.034 A 
ATOM      3  C   UNL     1       4.867   4.239  -0.017  0.00  0.00    +0.052 A 
ATOM      4  C   UNL     1       6.029   3.476  -0.038  0.00  0.00    +0.179 A 
ATOM      5  N   UNL     1       7.348   3.810  -0.051  0.00  0.00    -0.127 NA
ATOM      6  N   UNL     1       8.068   2.744  -0.070  0.00  0.00    -0.120 NA
ATOM      7  C   UNL     1       7.259   1.651  -0.070  0.00  0.00    +0.213 A 
ATOM      8  N   UNL     1       5.943   2.118  -0.049  0.00  0.00    -0.187 N 
ATOM      9  N   UNL     1       4.812   1.513  -0.036  0.00  0.00    -0.163 NA
ENDROOT
BRANCH   1  12
ATOM     10  C   UNL     1      -0.017   1.379   0.010  0.00  0.00    +0.003 A 
ATOM     11  C   UNL     1       1.167   2.088   0.002  0.00  0.00    +0.010 A 
ATOM     12  C   UNL     1       2.384   1.407  -0.013  0.00  0.00    +0.004 A 
ATOM     13  C   UNL     1       2.397   0.013  -0.021  0.00  0.00    +0.042 A 
ATOM     14  C   UNL     1       1.206  -0.685  -0.013  0.00  0.00    +0.127 A 
ATOM     15  C   UNL     1       0.002  -0.004   0.002  0.00  0.00    +0.033 A 
BRANCH  14  16
ATOM     16  N   UNL     1       1.218  -2.165  -0.021  0.00  0.00    +0.056 N 
ATOM     17  O   UNL     1       2.364  -2.815  -0.035  0.00  0.00    -0.126 OA
ATOM     18  O   UNL     1       0.083  -2.833  -0.014  0.00  0.00    -0.126 OA
ENDBRANCH  14  16
ENDBRANCH   1  12
BRANCH   7  19
ATOM     19  S   UNL     1       7.744   0.063  -0.090  0.00  0.00    -0.075 S 
BRANCH  19  20
ATOM     20  C   UNL     1       9.556   0.158  -0.110  0.00  0.00    +0.173 C 
BRANCH  20  21
ATOM     21  C   UNL     1      10.131  -1.235  -0.129  0.00  0.00    +0.224 C 
ATOM     22  O   UNL     1       9.392  -2.197  -0.130  0.00  0.00    -0.275 OA
ATOM     23  N   UNL     1      11.467  -1.412  -0.147  0.00  0.00    -0.310 N 
ATOM     24  H   UNL     1      12.058  -0.643  -0.146  0.00  0.00    +0.149 HD
BRANCH  23  25
ATOM     25  C   UNL     1      12.027  -2.766  -0.166  0.00  0.00    +0.146 C 
BRANCH  25  26
ATOM     26  C   UNL     1      13.531  -2.687  -0.182  0.00  0.00    +0.007 A 
ATOM     27  C   UNL     1      14.396  -2.658   0.861  0.00  0.00    +0.013 A 
ATOM     28  C   UNL     1      15.753  -2.584   0.605  0.00  0.00    +0.008 A 
ATOM     29  C   UNL     1      16.178  -2.544  -0.681  0.00  0.00    +0.045 A 
ATOM     30  S   UNL     1      14.638  -2.617  -1.581  0.00  0.00    -0.100 S 
ENDBRANCH  25  26
ENDBRANCH  23  25
ENDBRANCH  20  21
ENDBRANCH  19  20
ENDBRANCH   7  19
TORSDOF 7
