REMARK  Name = ZINC12124996
REMARK  9 active torsions:
REMARK  status: ('A' for Active; 'I' for Inactive)
REMARK    1  A    between atoms: C_1  and  C_2
REMARK    2  A    between atoms: C_2  and  O_3
REMARK    3  A    between atoms: O_3  and  C_4
REMARK    4  A    between atoms: C_4  and  C_6
REMARK    5  A    between atoms: C_9  and  C_12
REMARK    6  A    between atoms: C_12  and  C_13
REMARK    7  A    between atoms: N_19  and  N_20
REMARK    8  A    between atoms: C_21  and  C_22
REMARK    9  A    between atoms: C_26  and  N_28
REMARK                            x       y       z     vdW  Elec       q    Type
REMARK                         _______ _______ _______ _____ _____    ______ ____
ROOT
ATOM      1  C   UNL     1       3.784  10.367   0.021  0.00  0.00    +0.144 C 
ATOM      2  C   UNL     1       2.362   9.827   0.032  0.00  0.00    +0.232 C 
ATOM      3  O   UNL     1       1.386  10.545   0.046  0.00  0.00    -0.274 OA
ATOM      4  N   UNL     1       2.281   8.505   0.026  0.00  0.00    -0.263 N 
ATOM      5  C   UNL     1       3.373   7.702   0.010  0.00  0.00    +0.183 C 
ATOM      6  N   UNL     1       3.403   6.334   0.003  0.00  0.00    -0.127 NA
ATOM      7  S   UNL     1       4.725   8.790   0.010  0.00  0.00    -0.075 S 
ATOM      8  H   UNL     1       1.403   8.094   0.033  0.00  0.00    +0.157 HD
ENDROOT
BRANCH   6   9
ATOM      9  N   UNL     1       2.300   5.665   0.010  0.00  0.00    -0.155 NA
ATOM     10  C   UNL     1       2.330   4.313   0.003  0.00  0.00    +0.143 C 
BRANCH  10  11
ATOM     11  C   UNL     1       1.132   3.586   0.011  0.00  0.00    -0.003 A 
ATOM     12  C   UNL     1      -0.113   4.261   0.026  0.00  0.00    +0.009 A 
ATOM     13  C   UNL     1      -1.271   3.540   0.033  0.00  0.00    +0.003 A 
ATOM     14  C   UNL     1      -1.232   2.151   0.020  0.00  0.00    +0.033 A 
ATOM     15  C   UNL     1      -0.018   1.476   0.010  0.00  0.00    +0.127 A 
ATOM     16  C   UNL     1       1.156   2.171   0.003  0.00  0.00    +0.042 A 
BRANCH  15  17
ATOM     17  N   UNL     1       0.002  -0.004   0.002  0.00  0.00    +0.056 N 
ATOM     18  O   UNL     1       1.151  -0.647  -0.012  0.00  0.00    -0.126 OA
ATOM     19  O   UNL     1      -1.129  -0.678   0.009  0.00  0.00    -0.126 OA
ENDBRANCH  15  17
ENDBRANCH  10  11
ENDBRANCH   6   9
BRANCH   1  20
ATOM     20  C   UNL     1       4.056  11.191  -1.239  0.00  0.00    +0.059 C 
BRANCH  20  24
ATOM     21  C   UNL     1       7.952  12.936  -0.989  0.00  0.00    +0.059 A 
ATOM     22  C   UNL     1       7.784  11.676  -1.566  0.00  0.00    +0.015 A 
ATOM     23  C   UNL     1       6.524  11.119  -1.644  0.00  0.00    +0.004 A 
ATOM     24  C   UNL     1       5.429  11.806  -1.151  0.00  0.00    -0.046 A 
ATOM     25  C   UNL     1       5.588  13.058  -0.583  0.00  0.00    +0.004 A 
ATOM     26  C   UNL     1       6.842  13.624  -0.494  0.00  0.00    +0.015 A 
BRANCH  21  27
ATOM     27  C   UNL     1       9.298  13.539  -0.903  0.00  0.00    +0.339 C 
ATOM     28  O   UNL     1      10.261  12.939  -1.335  0.00  0.00    -0.245 OA
BRANCH  27  29
ATOM     29  O   UNL     1       9.457  14.755  -0.346  0.00  0.00    -0.461 OA
BRANCH  29  31
ATOM     30  C   UNL     1      10.789  16.665   0.366  0.00  0.00    +0.048 C 
ATOM     31  C   UNL     1      10.807  15.286  -0.296  0.00  0.00    +0.229 C 
ENDBRANCH  29  31
ENDBRANCH  27  29
ENDBRANCH  21  27
ENDBRANCH  20  24
ENDBRANCH   1  20
TORSDOF 8
