REMARK  Name = ZINC32814327
REMARK  12 active torsions:
REMARK  status: ('A' for Active; 'I' for Inactive)
REMARK    1  A    between atoms: C_1  and  C_2
REMARK    2  A    between atoms: C_2  and  O_3
REMARK    3  A    between atoms: O_3  and  C_4
REMARK    4  A    between atoms: C_4  and  C_6
REMARK    5  A    between atoms: C_10  and  N_11
REMARK    6  A    between atoms: C_12  and  C_14
REMARK    7  A    between atoms: C_14  and  O_15
REMARK    8  A    between atoms: O_15  and  C_16
REMARK    9  A    between atoms: C_19  and  C_26
REMARK   10  A    between atoms: C_21  and  N_22
REMARK   11  A    between atoms: C_23  and  C_25
REMARK   12  A    between atoms: C_29  and  C_31
REMARK                            x       y       z     vdW  Elec       q    Type
REMARK                         _______ _______ _______ _____ _____    ______ ____
ROOT
ATOM      1  C   UNL     1      -6.062   3.394   0.146  0.00  0.00    +0.325 C 
ENDROOT
BRANCH   1   3
ATOM      2  N   UNL     1      -8.502   3.791   0.238  0.00  0.00    -0.277 N 
ATOM      3  C   UNL     1      -7.260   4.308   0.146  0.00  0.00    +0.255 C 
ATOM      4  O   UNL     1      -7.108   5.508   0.063  0.00  0.00    -0.272 OA
ATOM      5  H   UNL     1      -8.640   2.703   0.313  0.00  0.00    +0.155 HD
BRANCH   2  10
ATOM      6  C   UNL     1     -10.945   4.293   0.318  0.00  0.00    +0.091 A 
ATOM      7  C   UNL     1     -11.920   5.383   0.302  0.00  0.00    -0.021 A 
ATOM      8  C   UNL     1     -11.396   6.617   0.200  0.00  0.00    -0.004 A 
ATOM      9  S   UNL     1      -9.640   6.359   0.131  0.00  0.00    -0.077 S 
ATOM     10  C   UNL     1      -9.604   4.632   0.238  0.00  0.00    +0.086 A 
ATOM     11  C   UNL     1     -12.458   7.683   0.187  0.00  0.00    +0.043 C 
ATOM     12  C   UNL     1     -13.721   6.979   0.731  0.00  0.00    +0.010 C 
ATOM     13  C   UNL     1     -13.443   5.508   0.366  0.00  0.00    +0.037 C 
BRANCH   6  14
ATOM     14  C   UNL     1     -11.370   2.896   0.419  0.00  0.00    +0.342 C 
ATOM     15  O   UNL     1     -11.500   2.377   1.512  0.00  0.00    -0.245 OA
BRANCH  14  16
ATOM     16  O   UNL     1     -11.618   2.183  -0.699  0.00  0.00    -0.461 OA
BRANCH  16  18
ATOM     17  C   UNL     1     -12.268   0.163  -1.893  0.00  0.00    +0.048 C 
ATOM     18  C   UNL     1     -12.036   0.804  -0.523  0.00  0.00    +0.229 C 
ENDBRANCH  16  18
ENDBRANCH  14  16
ENDBRANCH   6  14
ENDBRANCH   2  10
ENDBRANCH   1   3
BRANCH   1  19
ATOM     19  O   UNL     1      -4.869   4.173   0.040  0.00  0.00    -0.481 OA
BRANCH  19  20
ATOM     20  C   UNL     1      -3.689   3.497   0.025  0.00  0.00    +0.142 A 
ATOM     21  C   UNL     1      -3.683   2.114   0.112  0.00  0.00    +0.048 A 
ATOM     22  C   UNL     1      -2.488   1.423   0.099  0.00  0.00    +0.014 A 
ATOM     23  C   UNL     1      -1.283   2.116  -0.003  0.00  0.00    +0.003 A 
ATOM     24  C   UNL     1      -1.286   3.507  -0.085  0.00  0.00    +0.037 A 
ATOM     25  C   UNL     1      -2.488   4.196  -0.076  0.00  0.00    +0.076 A 
BRANCH  23  26
ATOM     26  C   UNL     1       0.002   1.374  -0.017  0.00  0.00    +0.078 A 
ATOM     27  C   UNL     1       0.026   0.006  -0.034  0.00  0.00    +0.075 A 
ATOM     28  S   UNL     1       1.788  -0.291  -0.053  0.00  0.00    -0.080 S 
ATOM     29  C   UNL     1       2.300   1.368  -0.037  0.00  0.00    +0.076 A 
ATOM     30  N   UNL     1       1.160   2.015  -0.019  0.00  0.00    -0.244 NA
ATOM     31  C   UNL     1       3.701   1.923  -0.042  0.00  0.00    +0.073 C 
ENDBRANCH  23  26
BRANCH  25  32
ATOM     32  N   UNL     1      -2.495   5.595  -0.162  0.00  0.00    -0.283 N 
ATOM     33  C   UNL     1      -1.511   6.311   0.416  0.00  0.00    +0.214 C 
ATOM     34  O   UNL     1      -0.576   5.743   0.942  0.00  0.00    -0.276 OA
ATOM     35  C   UNL     1      -1.571   7.816   0.410  0.00  0.00    +0.109 C 
ATOM     36  H   UNL     1      -3.304   6.108  -0.702  0.00  0.00    +0.155 HD
ENDBRANCH  25  32
ENDBRANCH  19  20
ENDBRANCH   1  19
TORSDOF 9
