REMARK  Name = ZINC36073708
REMARK  9 active torsions:
REMARK  status: ('A' for Active; 'I' for Inactive)
REMARK    1  A    between atoms: C_4  and  C_7
REMARK    2  A    between atoms: C_7  and  N_8
REMARK    3  A    between atoms: N_8  and  C_9
REMARK    4  A    between atoms: N_8  and  C_19
REMARK    5  A    between atoms: C_9  and  C_10
REMARK    6  A    between atoms: C_19  and  C_20
REMARK    7  A    between atoms: C_22  and  C_25
REMARK    8  A    between atoms: N_27  and  C_28
REMARK    9  A    between atoms: C_28  and  C_29
REMARK                            x       y       z     vdW  Elec       q    Type
REMARK                         _______ _______ _______ _____ _____    ______ ____
ROOT
ATOM      1  N   UNL     1       4.210  -0.844   1.337  0.00  0.00    +0.391 N 
ATOM      2  H   UNL     1       4.126   0.071   1.756  0.00  0.00    -0.080 HD
ENDROOT
BRANCH   1   3
ATOM      3  C   UNL     1       3.774  -0.782  -0.064  0.00  0.00    -0.042 C 
BRANCH   3   7
ATOM      4  C   UNL     1      -0.164   0.861  -0.264  0.00  0.00    +0.000 A 
ATOM      5  C   UNL     1       0.933   1.700  -0.206  0.00  0.00    +0.000 A 
ATOM      6  C   UNL     1       2.208   1.168  -0.141  0.00  0.00    +0.002 A 
ATOM      7  C   UNL     1       2.385  -0.203  -0.134  0.00  0.00    -0.064 A 
ATOM      8  C   UNL     1       1.288  -1.042  -0.192  0.00  0.00    +0.002 A 
ATOM      9  C   UNL     1       0.014  -0.510  -0.258  0.00  0.00    +0.000 A 
ENDBRANCH   3   7
ENDBRANCH   1   3
BRANCH   1  10
ATOM     10  C   UNL     1       5.610  -1.282   1.396  0.00  0.00    -0.042 C 
BRANCH  10  11
ATOM     11  C   UNL     1       6.490  -0.243   0.750  0.00  0.00    -0.060 A 
ATOM     12  C   UNL     1       6.760  -0.313  -0.604  0.00  0.00    +0.005 A 
ATOM     13  C   UNL     1       7.566   0.638  -1.201  0.00  0.00    +0.050 A 
ATOM     14  C   UNL     1       8.106   1.664  -0.443  0.00  0.00    +0.166 A 
ATOM     15  C   UNL     1       7.833   1.735   0.921  0.00  0.00    +0.166 A 
ATOM     16  C   UNL     1       7.020   0.781   1.512  0.00  0.00    +0.051 A 
ATOM     17  O   UNL     1       8.474   2.824   1.438  0.00  0.00    -0.453 OA
ATOM     18  C   UNL     1       9.469   3.184   0.462  0.00  0.00    +0.466 C 
ATOM     19  O   UNL     1       8.917   2.709  -0.780  0.00  0.00    -0.453 OA
ENDBRANCH  10  11
ENDBRANCH   1  10
BRANCH   1  20
ATOM     20  C   UNL     1       3.366  -1.797   2.071  0.00  0.00    +0.020 C 
BRANCH  20  21
ATOM     21  C   UNL     1       3.722  -1.758   3.535  0.00  0.00    +0.179 A 
ATOM     22  N   UNL     1       3.242  -0.920   4.404  0.00  0.00    -0.210 NA
ATOM     23  C   UNL     1       3.794  -1.193   5.617  0.00  0.00    +0.163 A 
ATOM     24  C   UNL     1       4.638  -2.246   5.445  0.00  0.00    +0.230 A 
ATOM     25  O   UNL     1       4.578  -2.588   4.148  0.00  0.00    -0.449 OA
BRANCH  23  26
ATOM     26  C   UNL     1       3.527  -0.482   6.881  0.00  0.00    +0.266 C 
ATOM     27  O   UNL     1       4.156  -0.766   7.883  0.00  0.00    -0.268 OA
ATOM     28  N   UNL     1       2.588   0.483   6.926  0.00  0.00    -0.306 N 
ATOM     29  H   UNL     1       2.037   0.660   6.147  0.00  0.00    +0.149 HD
BRANCH  28  30
ATOM     30  C   UNL     1       2.398   1.264   8.150  0.00  0.00    +0.140 C 
BRANCH  30  31
ATOM     31  C   UNL     1       1.295   2.270   7.939  0.00  0.00    -0.027 A 
ATOM     32  C   UNL     1       1.574   3.537   7.450  0.00  0.00    +0.025 A 
ATOM     33  C   UNL     1       0.537   4.432   7.269  0.00  0.00    +0.111 A 
ATOM     34  N   UNL     1      -0.705   4.093   7.557  0.00  0.00    -0.263 NA
ATOM     35  C   UNL     1      -1.007   2.897   8.023  0.00  0.00    +0.111 A 
ATOM     36  C   UNL     1      -0.023   1.947   8.224  0.00  0.00    +0.025 A 
ENDBRANCH  30  31
ENDBRANCH  28  30
ENDBRANCH  23  26
ENDBRANCH  20  21
ENDBRANCH   1  20
TORSDOF 9
