REMARK  Name = ZINC05027682
REMARK  7 active torsions:
REMARK  status: ('A' for Active; 'I' for Inactive)
REMARK    1  A    between atoms: C_3  and  C_6
REMARK    2  A    between atoms: C_9  and  C_28
REMARK    3  A    between atoms: C_15  and  C_17
REMARK    4  A    between atoms: N_19  and  C_20
REMARK    5  A    between atoms: C_20  and  C_21
REMARK    6  A    between atoms: C_21  and  C_22
REMARK    7  A    between atoms: C_22  and  N_23
REMARK                            x       y       z     vdW  Elec       q    Type
REMARK                         _______ _______ _______ _____ _____    ______ ____
ROOT
ATOM      1  C   UNL     1       3.599   0.625  -0.029  0.00  0.00    +0.149 C 
ATOM      2  C   UNL     1       4.112   0.368   1.388  0.00  0.00    +0.065 C 
ATOM      3  C   UNL     1       5.646   0.284   1.377  0.00  0.00    +0.202 C 
ATOM      4  N   UNL     1       6.019  -0.699   0.355  0.00  0.00    -0.226 N 
ATOM      5  C   UNL     1       5.198  -1.010  -0.722  0.00  0.00    +0.114 C 
ATOM      6  N   UNL     1       4.050  -0.435  -0.940  0.00  0.00    -0.362 N 
ATOM      7  C   UNL     1       5.886  -2.049  -1.486  0.00  0.00    +0.072 C 
ATOM      8  C   UNL     1       7.066  -2.292  -0.863  0.00  0.00    +0.110 C 
ATOM      9  N   UNL     1       7.170  -1.473   0.250  0.00  0.00    -0.258 N 
ATOM     10  H   UNL     1       7.925  -1.443   0.858  0.00  0.00    +0.170 HD
ATOM     11  H   UNL     1       3.500  -0.703  -1.693  0.00  0.00    +0.162 HD
ENDROOT
BRANCH   1  14
ATOM     12  C   UNL     1      -0.016   1.341   0.009  0.00  0.00    +0.041 A 
ATOM     13  C   UNL     1       1.331   1.769  -0.001  0.00  0.00    +0.047 A 
ATOM     14  C   UNL     1       2.092   0.660  -0.014  0.00  0.00    +0.127 A 
ATOM     15  O   UNL     1       1.282  -0.411  -0.012  0.00  0.00    -0.466 OA
ATOM     16  C   UNL     1       0.002  -0.004   0.002  0.00  0.00    +0.195 A 
ENDBRANCH   1  14
BRANCH   8  17
ATOM     17  C   UNL     1       8.080  -3.275  -1.302  0.00  0.00    +0.259 C 
ATOM     18  O   UNL     1       9.107  -3.413  -0.666  0.00  0.00    -0.269 OA
ATOM     19  N   UNL     1       7.866  -4.018  -2.405  0.00  0.00    -0.310 N 
ATOM     20  H   UNL     1       7.046  -3.908  -2.913  0.00  0.00    +0.149 HD
BRANCH  19  21
ATOM     21  C   UNL     1       8.871  -4.991  -2.840  0.00  0.00    +0.106 C 
BRANCH  21  22
ATOM     22  C   UNL     1       8.384  -5.695  -4.108  0.00  0.00    +0.040 C 
BRANCH  22  23
ATOM     23  C   UNL     1       9.434  -6.712  -4.562  0.00  0.00    +0.124 C 
BRANCH  23  24
ATOM     24  N   UNL     1       8.968  -7.385  -5.776  0.00  0.00    -0.338 N 
ATOM     25  C   UNL     1       8.220  -8.530  -5.834  0.00  0.00    +0.104 A 
ATOM     26  C   UNL     1       8.017  -8.797  -7.138  0.00  0.00    +0.101 A 
ATOM     27  N   UNL     1       8.624  -7.842  -7.857  0.00  0.00    -0.352 N 
ATOM     28  C   UNL     1       9.192  -6.990  -7.048  0.00  0.00    +0.173 A 
ATOM     29  H   UNL     1       8.636  -7.790  -8.826  0.00  0.00    +0.166 HD
ENDBRANCH  23  24
ENDBRANCH  22  23
ENDBRANCH  21  22
ENDBRANCH  19  21
ENDBRANCH   8  17
BRANCH   3  30
ATOM     30  C   UNL     1       6.153  -0.169   2.748  0.00  0.00    +0.410 C 
ATOM     31  F   UNL     1       5.625  -1.429   3.048  0.00  0.00    -0.169 F 
ATOM     32  F   UNL     1       7.550  -0.242   2.727  0.00  0.00    -0.169 F 
ATOM     33  F   UNL     1       5.749   0.751   3.721  0.00  0.00    -0.169 F 
ENDBRANCH   3  30
TORSDOF 7
