REMARK  Name = ZINC39662880
REMARK  5 active torsions:
REMARK  status: ('A' for Active; 'I' for Inactive)
REMARK    1  A    between atoms: C_5  and  C_8
REMARK    2  A    between atoms: C_12  and  C_21
REMARK    3  A    between atoms: N_23  and  C_24
REMARK    4  A    between atoms: C_24  and  C_25
REMARK    5  A    between atoms: C_28  and  C_31
REMARK                            x       y       z     vdW  Elec       q    Type
REMARK                         _______ _______ _______ _____ _____    ______ ____
ROOT
ATOM      1  C   UNL     1       1.223  -2.317   0.012  0.00  0.00    +0.252 C 
ATOM      2  O   UNL     1       1.301  -2.955   1.044  0.00  0.00    -0.270 OA
ATOM      3  N   UNL     1       1.258  -2.951  -1.177  0.00  0.00    -0.296 N 
ATOM      4  C   UNL     1       1.184  -2.349  -2.530  0.00  0.00    +0.121 C 
ATOM      5  C   UNL     1       2.192  -3.162  -3.374  0.00  0.00    +0.100 C 
ATOM      6  C   UNL     1       2.315  -4.511  -2.647  0.00  0.00    -0.004 C 
ATOM      7  C   UNL     1       1.387  -4.407  -1.427  0.00  0.00    +0.115 C 
ATOM      8  C   UNL     1       1.863  -5.646  -3.560  0.00  0.00    -0.010 C 
ATOM      9  C   UNL     1       2.050  -6.983  -2.836  0.00  0.00    -0.082 C 
ATOM     10  N   UNL     1       3.462  -7.152  -2.473  0.00  0.00    +0.379 N 
ATOM     11  C   UNL     1       3.863  -6.109  -1.521  0.00  0.00    -0.082 C 
ATOM     12  C   UNL     1       3.753  -4.736  -2.190  0.00  0.00    -0.010 C 
ATOM     13  H   UNL     1       3.593  -8.059  -2.051  0.00  0.00    -0.086 HD
ATOM     14  H   UNL     1       4.031  -7.085  -3.303  0.00  0.00    -0.086 HD
ENDROOT
BRANCH   1  19
ATOM     15  C   UNL     1      -0.295   1.118   0.152  0.00  0.00    +0.041 A 
ATOM     16  C   UNL     1       0.837   1.912   0.153  0.00  0.00    +0.026 A 
ATOM     17  C   UNL     1       2.095   1.338   0.108  0.00  0.00    +0.077 A 
ATOM     18  C   UNL     1       2.229  -0.038   0.062  0.00  0.00    +0.156 A 
ATOM     19  C   UNL     1       1.089  -0.848   0.061  0.00  0.00    +0.108 A 
ATOM     20  C   UNL     1      -0.179  -0.259   0.107  0.00  0.00    +0.138 A 
ATOM     21  F   UNL     1      -1.286  -1.032   0.106  0.00  0.00    -0.205 F 
ATOM     22  F   UNL     1       3.458  -0.598   0.017  0.00  0.00    -0.203 F 
ATOM     23 CL   UNL     1       3.508   2.346   0.109  0.00  0.00    -0.081 Cl
ENDBRANCH   1  19
BRANCH   5  24
ATOM     24  C   UNL     1       1.664  -3.362  -4.771  0.00  0.00    +0.218 C 
ATOM     25  O   UNL     1       0.469  -3.434  -4.963  0.00  0.00    -0.275 OA
ATOM     26  N   UNL     1       2.521  -3.461  -5.807  0.00  0.00    -0.315 N 
ATOM     27  H   UNL     1       3.477  -3.403  -5.653  0.00  0.00    +0.149 HD
BRANCH  26  28
ATOM     28  C   UNL     1       2.008  -3.655  -7.165  0.00  0.00    +0.107 C 
BRANCH  28  29
ATOM     29  C   UNL     1       3.179  -3.734  -8.146  0.00  0.00    +0.006 C 
ATOM     30  C   UNL     1       3.910  -2.390  -8.178  0.00  0.00    +0.006 C 
ATOM     31  C   UNL     1       5.081  -2.469  -9.159  0.00  0.00    +0.015 C 
ATOM     32  C   UNL     1       4.554  -2.796 -10.558  0.00  0.00    +0.102 C 
ATOM     33  C   UNL     1       3.824  -4.141 -10.526  0.00  0.00    +0.015 C 
ATOM     34  C   UNL     1       2.652  -4.062  -9.545  0.00  0.00    +0.006 C 
BRANCH  32  35
ATOM     35  C   UNL     1       5.708  -2.874 -11.524  0.00  0.00    +0.359 C 
ATOM     36  O   UNL     1       5.643  -3.612 -12.492  0.00  0.00    -0.246 OA
ATOM     37  O   UNL     1       6.706  -2.200 -11.337  0.00  0.00    -0.246 OA
ENDBRANCH  32  35
ENDBRANCH  28  29
ENDBRANCH  26  28
ENDBRANCH   5  24
TORSDOF 5
