REMARK  Name = ZINC13203777
REMARK  8 active torsions:
REMARK  status: ('A' for Active; 'I' for Inactive)
REMARK    1  A    between atoms: C_6  and  C_7
REMARK    2  A    between atoms: C_10  and  S_15
REMARK    3  A    between atoms: N_11  and  C_12
REMARK    4  A    between atoms: C_12  and  C_13
REMARK    5  A    between atoms: S_15  and  C_16
REMARK    6  A    between atoms: C_16  and  C_17
REMARK    7  A    between atoms: N_19  and  C_20
REMARK    8  A    between atoms: C_22  and  N_27
REMARK                            x       y       z     vdW  Elec       q    Type
REMARK                         _______ _______ _______ _____ _____    ______ ____
ROOT
ATOM      1  C   UNL     1      -1.995   1.045   2.019  0.00  0.00    +0.165 A 
ATOM      2  N   UNL     1      -2.318   1.885   2.974  0.00  0.00    -0.128 NA
ATOM      3  N   UNL     1      -1.460   2.841   3.026  0.00  0.00    -0.122 NA
ATOM      4  C   UNL     1      -0.534   2.666   2.111  0.00  0.00    +0.193 A 
ATOM      5  N   UNL     1      -0.845   1.521   1.434  0.00  0.00    -0.291 N 
ENDROOT
BRANCH   1  11
ATOM      6  C   UNL     1      -2.496  -0.786   0.406  0.00  0.00    +0.013 A 
ATOM      7  C   UNL     1      -3.181  -1.934   0.062  0.00  0.00    +0.021 A 
ATOM      8  C   UNL     1      -4.105  -2.480   0.937  0.00  0.00    +0.041 A 
ATOM      9  C   UNL     1      -4.344  -1.882   2.163  0.00  0.00    +0.021 A 
ATOM     10  C   UNL     1      -3.662  -0.737   2.519  0.00  0.00    +0.013 A 
ATOM     11  C   UNL     1      -2.729  -0.182   1.642  0.00  0.00    +0.019 A 
ATOM     12 CL   UNL     1      -4.967  -3.920   0.495  0.00  0.00    -0.084 Cl
ENDBRANCH   1  11
BRANCH   5  13
ATOM     13  C   UNL     1      -0.103   0.921   0.322  0.00  0.00    +0.250 C 
BRANCH  13  14
ATOM     14  C   UNL     1      -0.707   1.369  -0.984  0.00  0.00    +0.375 C 
ATOM     15  O   UNL     1      -1.659   2.113  -0.986  0.00  0.00    -0.244 OA
ATOM     16  O   UNL     1      -0.187   0.942  -2.146  0.00  0.00    -0.244 OA
ENDBRANCH  13  14
ENDBRANCH   5  13
BRANCH   4  17
ATOM     17  S   UNL     1       0.849   3.716   1.809  0.00  0.00    -0.077 S 
BRANCH  17  18
ATOM     18  C   UNL     1       0.568   4.977   3.077  0.00  0.00    +0.173 C 
BRANCH  18  19
ATOM     19  C   UNL     1       1.661   6.012   3.006  0.00  0.00    +0.228 C 
ATOM     20  O   UNL     1       2.543   5.907   2.181  0.00  0.00    -0.275 OA
ATOM     21  N   UNL     1       1.658   7.054   3.861  0.00  0.00    -0.284 N 
ATOM     22  H   UNL     1       0.997   7.098   4.570  0.00  0.00    +0.155 HD
BRANCH  21  23
ATOM     23  C   UNL     1       2.609   8.072   3.726  0.00  0.00    +0.054 A 
ATOM     24  C   UNL     1       3.206   8.309   2.495  0.00  0.00    +0.057 A 
ATOM     25  C   UNL     1       4.141   9.317   2.364  0.00  0.00    +0.128 A 
ATOM     26  C   UNL     1       4.491  10.084   3.460  0.00  0.00    +0.034 A 
ATOM     27  C   UNL     1       3.903   9.849   4.689  0.00  0.00    +0.024 A 
ATOM     28  C   UNL     1       2.963   8.845   4.826  0.00  0.00    +0.062 A 
ATOM     29 CL   UNL     1       2.225   8.549   6.369  0.00  0.00    -0.082 Cl
BRANCH  25  30
ATOM     30  N   UNL     1       4.773   9.572   1.051  0.00  0.00    +0.056 N 
ATOM     31  O   UNL     1       5.601  10.458   0.935  0.00  0.00    -0.126 OA
ATOM     32  O   UNL     1       4.466   8.897   0.085  0.00  0.00    -0.126 OA
ENDBRANCH  25  30
ENDBRANCH  21  23
ENDBRANCH  18  19
ENDBRANCH  17  18
ENDBRANCH   4  17
TORSDOF 8
