REMARK  Name = ZINC33674925
REMARK  14 active torsions:
REMARK  status: ('A' for Active; 'I' for Inactive)
REMARK    1  A    between atoms: C_1  and  C_2
REMARK    2  A    between atoms: C_2  and  C_3
REMARK    3  A    between atoms: C_2  and  C_4
REMARK    4  A    between atoms: C_4  and  N_5
REMARK    5  A    between atoms: C_6  and  C_8
REMARK    6  A    between atoms: C_11  and  C_13
REMARK    7  A    between atoms: C_13  and  N_14
REMARK    8  A    between atoms: N_14  and  C_15
REMARK    9  A    between atoms: N_14  and  S_19
REMARK   10  A    between atoms: C_15  and  C_16
REMARK   11  A    between atoms: C_16  and  C_17
REMARK   12  A    between atoms: C_16  and  C_18
REMARK   13  A    between atoms: S_19  and  C_22
REMARK   14  A    between atoms: C_26  and  N_28
REMARK                            x       y       z     vdW  Elec       q    Type
REMARK                         _______ _______ _______ _____ _____    ______ ____
ROOT
ATOM      1  N   UNL     1      -3.155   4.247  -1.706  0.00  0.00    -0.170 NA
ENDROOT
BRANCH   1   2
ATOM      2  S   UNL     1      -2.569   4.114  -0.164  0.00  0.00    +0.061 S 
ATOM      3  O   UNL     1      -3.465   3.264   0.539  0.00  0.00    -0.153 OA
ATOM      4  O   UNL     1      -2.270   5.434   0.273  0.00  0.00    -0.153 OA
BRANCH   2   5
ATOM      5  C   UNL     1      -1.033   3.256  -0.262  0.00  0.00    +0.108 A 
ATOM      6  C   UNL     1      -1.006   1.877  -0.178  0.00  0.00    +0.030 A 
ATOM      7  C   UNL     1       0.199   1.204  -0.249  0.00  0.00    +0.024 A 
ATOM      8  C   UNL     1       1.377   1.910  -0.416  0.00  0.00    +0.071 A 
ATOM      9  C   UNL     1       1.348   3.290  -0.506  0.00  0.00    +0.146 A 
ATOM     10  C   UNL     1       0.143   3.963  -0.429  0.00  0.00    +0.062 A 
ATOM     11 CL   UNL     1       2.890   1.065  -0.514  0.00  0.00    -0.081 Cl
BRANCH   9  12
ATOM     12  N   UNL     1       2.608   4.046  -0.684  0.00  0.00    +0.058 N 
ATOM     13  O   UNL     1       2.583   5.262  -0.763  0.00  0.00    -0.126 OA
ATOM     14  O   UNL     1       3.670   3.454  -0.752  0.00  0.00    -0.126 OA
ENDBRANCH   9  12
ENDBRANCH   2   5
ENDBRANCH   1   2
BRANCH   1  15
ATOM     15  C   UNL     1      -2.806   5.411  -2.525  0.00  0.00    +0.172 C 
BRANCH  15  19
ATOM     16  C   UNL     1      -0.684   4.290  -5.385  0.00  0.00    +0.133 A 
ATOM     17  C   UNL     1       0.522   4.539  -4.780  0.00  0.00    +0.080 A 
ATOM     18  S   UNL     1       0.016   5.150  -3.237  0.00  0.00    -0.078 S 
ATOM     19  C   UNL     1      -1.698   5.042  -3.477  0.00  0.00    +0.095 A 
ATOM     20  N   UNL     1      -1.790   4.554  -4.687  0.00  0.00    -0.238 NA
BRANCH  16  22
ATOM     21  N   UNL     1      -1.953   3.511  -7.321  0.00  0.00    -0.310 N 
ATOM     22  C   UNL     1      -0.755   3.746  -6.751  0.00  0.00    +0.263 C 
ATOM     23  O   UNL     1       0.268   3.509  -7.365  0.00  0.00    -0.269 OA
ATOM     24  H   UNL     1      -2.878   3.725  -6.766  0.00  0.00    +0.149 HD
BRANCH  21  25
ATOM     25  C   UNL     1      -2.024   2.970  -8.681  0.00  0.00    +0.107 C 
BRANCH  25  27
ATOM     26  C   UNL     1      -4.161   4.171  -9.161  0.00  0.00    +0.009 C 
ATOM     27  C   UNL     1      -3.489   2.799  -9.086  0.00  0.00    -0.000 C 
ATOM     28  C   UNL     1      -3.564   2.118 -10.455  0.00  0.00    +0.009 C 
ENDBRANCH  25  27
ENDBRANCH  21  25
ENDBRANCH  16  22
ENDBRANCH  15  19
ENDBRANCH   1  15
BRANCH   1  29
ATOM     29  C   UNL     1      -4.023   3.201  -2.253  0.00  0.00    +0.113 C 
BRANCH  29  30
ATOM     30  C   UNL     1      -5.487   3.575  -2.011  0.00  0.00    -0.001 C 
ATOM     31  C   UNL     1      -5.831   4.832  -2.813  0.00  0.00    +0.008 C 
ATOM     32  C   UNL     1      -6.388   2.423  -2.458  0.00  0.00    +0.008 C 
ENDBRANCH  29  30
ENDBRANCH   1  29
TORSDOF 10
