REMARK  Name = ZINC13216515
REMARK  10 active torsions:
REMARK  status: ('A' for Active; 'I' for Inactive)
REMARK    1  A    between atoms: C_1  and  O_2
REMARK    2  A    between atoms: O_2  and  C_3
REMARK    3  A    between atoms: C_5  and  C_12
REMARK    4  A    between atoms: C_7  and  O_10
REMARK    5  A    between atoms: C_8  and  O_9
REMARK    6  A    between atoms: O_10  and  C_11
REMARK    7  A    between atoms: C_13  and  C_14
REMARK    8  A    between atoms: C_13  and  S_16
REMARK    9  A    between atoms: S_16  and  C_17
REMARK   10  A    between atoms: C_20  and  C_22
REMARK                            x       y       z     vdW  Elec       q    Type
REMARK                         _______ _______ _______ _____ _____    ______ ____
ROOT
ATOM      1  C   UNL     1       0.499  -2.881   0.345  0.00  0.00    +0.030 C 
ATOM      2  C   UNL     1      -0.653  -2.736  -0.355  0.00  0.00    +0.106 C 
ENDROOT
BRANCH   1   5
ATOM      3  C   UNL     1       2.732  -5.829   0.980  0.00  0.00    +0.166 A 
ATOM      4  C   UNL     1       2.306  -4.568   0.608  0.00  0.00    +0.057 A 
ATOM      5  C   UNL     1       0.956  -4.221   0.739  0.00  0.00    -0.017 A 
ATOM      6  C   UNL     1       0.044  -5.151   1.250  0.00  0.00    +0.057 A 
ATOM      7  C   UNL     1       0.478  -6.412   1.615  0.00  0.00    +0.166 A 
ATOM      8  C   UNL     1       1.821  -6.753   1.484  0.00  0.00    +0.201 A 
BRANCH   3  10
ATOM      9  C   UNL     1       4.923  -5.170   0.330  0.00  0.00    +0.277 C 
ATOM     10  O   UNL     1       4.043  -6.167   0.854  0.00  0.00    -0.491 OA
ENDBRANCH   3  10
BRANCH   8  11
ATOM     11  O   UNL     1       2.244  -7.993   1.849  0.00  0.00    -0.501 OA
ATOM     12  H   UNL     1       2.522  -8.058   2.773  0.00  0.00    +0.292 HD
ENDBRANCH   8  11
BRANCH   7  13
ATOM     13  O   UNL     1      -0.409  -7.318   2.108  0.00  0.00    -0.491 OA
ATOM     14  C   UNL     1      -1.786  -6.939   2.118  0.00  0.00    +0.277 C 
ENDBRANCH   7  13
ENDBRANCH   1   5
BRANCH   2  15
ATOM     15  C   UNL     1      -1.280  -3.903  -0.986  0.00  0.00    +0.393 C 
ATOM     16  O   UNL     1      -2.370  -3.797  -1.513  0.00  0.00    -0.240 OA
ATOM     17  O   UNL     1      -0.646  -5.094  -0.981  0.00  0.00    -0.240 OA
ENDBRANCH   2  15
BRANCH   2  18
ATOM     18  S   UNL     1      -1.398  -1.147  -0.507  0.00  0.00    -0.022 S 
BRANCH  18  19
ATOM     19  C   UNL     1      -1.264  -0.912  -2.249  0.00  0.00    +0.283 A 
ATOM     20  N   UNL     1      -0.651  -1.706  -3.095  0.00  0.00    -0.100 NA
ATOM     21  N   UNL     1      -0.753  -1.226  -4.284  0.00  0.00    -0.106 NA
ATOM     22  C   UNL     1      -1.436  -0.107  -4.245  0.00  0.00    +0.249 A 
ATOM     23  O   UNL     1      -1.774   0.116  -2.956  0.00  0.00    -0.411 OA
BRANCH  22  24
ATOM     24  C   UNL     1      -1.773   0.752  -5.399  0.00  0.00    +0.042 A 
ATOM     25  C   UNL     1      -2.515   1.919  -5.208  0.00  0.00    +0.017 A 
ATOM     26  C   UNL     1      -2.826   2.722  -6.286  0.00  0.00    +0.050 A 
ATOM     27  C   UNL     1      -2.411   2.369  -7.562  0.00  0.00    +0.166 A 
ATOM     28  C   UNL     1      -1.674   1.202  -7.759  0.00  0.00    +0.167 A 
ATOM     29  C   UNL     1      -1.355   0.396  -6.682  0.00  0.00    +0.062 A 
ATOM     30  O   UNL     1      -1.392   1.084  -9.090  0.00  0.00    -0.453 OA
ATOM     31  C   UNL     1      -1.610   2.394  -9.646  0.00  0.00    +0.466 C 
ATOM     32  O   UNL     1      -2.590   2.980  -8.770  0.00  0.00    -0.453 OA
ENDBRANCH  22  24
ENDBRANCH  18  19
ENDBRANCH   2  18
TORSDOF 8
