REMARK  Name = ZINC57934274
REMARK  8 active torsions:
REMARK  status: ('A' for Active; 'I' for Inactive)
REMARK    1  A    between atoms: C_1  and  C_2
REMARK    2  A    between atoms: C_2  and  C_3
REMARK    3  A    between atoms: C_2  and  C_4
REMARK    4  A    between atoms: C_4  and  C_5
REMARK    5  A    between atoms: C_5  and  N_6
REMARK    6  A    between atoms: C_14  and  C_18
REMARK    7  A    between atoms: C_18  and  C_19
REMARK    8  A    between atoms: C_18  and  C_20
REMARK                            x       y       z     vdW  Elec       q    Type
REMARK                         _______ _______ _______ _____ _____    ______ ____
ROOT
ATOM      1  N   UNL     1       2.873  -0.545  -2.413  0.00  0.00    -0.268 N 
ATOM      2  C   UNL     1       3.474  -1.812  -2.417  0.00  0.00    +0.061 A 
ATOM      3  C   UNL     1       3.690  -2.497  -1.232  0.00  0.00    +0.074 A 
ATOM      4  C   UNL     1       4.282  -3.752  -1.254  0.00  0.00    +0.164 A 
ATOM      5  C   UNL     1       4.658  -4.324  -2.464  0.00  0.00    +0.164 A 
ATOM      6  C   UNL     1       4.446  -3.638  -3.652  0.00  0.00    +0.074 A 
ATOM      7  C   UNL     1       3.859  -2.386  -3.629  0.00  0.00    +0.053 A 
ATOM      8  N   UNL     1       3.643  -1.665  -4.815  0.00  0.00    -0.331 N 
ATOM      9  C   UNL     1       3.662  -0.197  -4.740  0.00  0.00    +0.160 C 
ATOM     10  C   UNL     1       2.914   0.239  -3.506  0.00  0.00    +0.240 C 
ATOM     11  O   UNL     1       2.347   1.311  -3.496  0.00  0.00    -0.273 OA
ATOM     12  O   UNL     1       5.232  -5.558  -2.502  0.00  0.00    -0.485 OA
ATOM     13  C   UNL     1       5.773  -6.055  -1.273  0.00  0.00    +0.270 C 
ATOM     14  C   UNL     1       4.741  -5.816  -0.163  0.00  0.00    +0.270 C 
ATOM     15  O   UNL     1       4.491  -4.409  -0.079  0.00  0.00    -0.485 OA
ATOM     16  H   UNL     1       3.488  -2.122  -5.657  0.00  0.00    +0.147 HD
ENDROOT
BRANCH   9  17
ATOM     17  C   UNL     1       5.109   0.294  -4.671  0.00  0.00    +0.012 C 
ATOM     18  C   UNL     1       5.863  -0.162  -5.922  0.00  0.00    +0.009 C 
ATOM     19  C   UNL     1       5.127   1.822  -4.593  0.00  0.00    +0.009 C 
ENDBRANCH   9  17
BRANCH   1  20
ATOM     20  C   UNL     1       2.187  -0.073  -1.207  0.00  0.00    +0.114 C 
BRANCH  20  21
ATOM     21  C   UNL     1       0.718  -0.497  -1.257  0.00  0.00    +0.022 C 
BRANCH  21  23
ATOM     22  C   UNL     1      -0.019   1.526   0.010  0.00  0.00    +0.007 C 
ATOM     23  C   UNL     1       0.002  -0.004   0.002  0.00  0.00    -0.016 C 
ATOM     24  C   UNL     1      -1.433  -0.534   0.013  0.00  0.00    +0.007 C 
ENDBRANCH  21  23
ENDBRANCH  20  21
ENDBRANCH   1  20
TORSDOF 4
