REMARK  Name = ZINC08533258
REMARK  9 active torsions:
REMARK  status: ('A' for Active; 'I' for Inactive)
REMARK    1  A    between atoms: C_1  and  C_2
REMARK    2  A    between atoms: C_5  and  C_8
REMARK    3  A    between atoms: C_8  and  N_9
REMARK    4  A    between atoms: N_9  and  C_10
REMARK    5  A    between atoms: N_9  and  C_11
REMARK    6  A    between atoms: C_11  and  C_13
REMARK    7  A    between atoms: C_11  and  C_14
REMARK    8  A    between atoms: N_16  and  C_17
REMARK    9  A    between atoms: C_18  and  C_25
REMARK                            x       y       z     vdW  Elec       q    Type
REMARK                         _______ _______ _______ _____ _____    ______ ____
ROOT
ATOM      1  C   UNL     1       3.177  -6.385   0.378  0.00  0.00    +0.204 C 
ATOM      2  O   UNL     1       3.935  -5.438   0.402  0.00  0.00    -0.277 OA
ATOM      3  N   UNL     1       3.659  -7.637   0.510  0.00  0.00    -0.281 N 
ATOM      4  H   UNL     1       3.053  -8.394   0.491  0.00  0.00    +0.155 HD
ENDROOT
BRANCH   3   5
ATOM      5  C   UNL     1       5.020  -7.842   0.673  0.00  0.00    +0.084 A 
ATOM      6  C   UNL     1       5.688  -9.044   0.816  0.00  0.00    +0.068 A 
ATOM      7  C   UNL     1       7.140  -8.990   0.973  0.00  0.00    -0.023 A 
ATOM      8  C   UNL     1       7.647  -7.744   0.958  0.00  0.00    -0.004 A 
ATOM      9  S   UNL     1       6.237  -6.690   0.733  0.00  0.00    -0.077 S 
ATOM     10  C   UNL     1       9.142  -7.745   1.127  0.00  0.00    +0.043 C 
ATOM     11  C   UNL     1       9.472  -9.148   1.682  0.00  0.00    +0.010 C 
ATOM     12  C   UNL     1       8.287  -9.982   1.153  0.00  0.00    +0.037 C 
BRANCH   6  13
ATOM     13  C   UNL     1       4.968 -10.322   0.812  0.00  0.00    +0.244 C 
ATOM     14  O   UNL     1       4.785 -10.913  -0.236  0.00  0.00    -0.270 OA
ATOM     15  N   UNL     1       4.510 -10.841   1.968  0.00  0.00    -0.325 N 
ATOM     16  H   UNL     1       4.656 -10.370   2.803  0.00  0.00    +0.145 HD
ATOM     17  H   UNL     1       4.034 -11.686   1.965  0.00  0.00    +0.145 HD
ENDBRANCH   6  13
ENDBRANCH   3   5
BRANCH   1  18
ATOM     18  C   UNL     1       1.697  -6.162   0.202  0.00  0.00    +0.016 C 
ATOM     19  C   UNL     1       1.028  -6.066   1.575  0.00  0.00    -0.004 C 
BRANCH  18  20
ATOM     20  N   UNL     1       1.475  -4.913  -0.539  0.00  0.00    +0.388 N 
ATOM     21  C   UNL     1       2.041  -5.038  -1.889  0.00  0.00    -0.095 C 
ATOM     22  H   UNL     1       1.925  -4.150  -0.055  0.00  0.00    -0.081 HD
BRANCH  20  23
ATOM     23  C   UNL     1       0.033  -4.650  -0.635  0.00  0.00    -0.042 C 
BRANCH  23  28
ATOM     24  C   UNL     1      -0.829   0.490  -3.132  0.00  0.00    +0.044 C 
ATOM     25  C   UNL     1      -0.604  -0.851  -2.481  0.00  0.00    -0.050 A 
ATOM     26  C   UNL     1      -0.525  -1.992  -3.257  0.00  0.00    +0.003 A 
ATOM     27  C   UNL     1      -0.319  -3.221  -2.659  0.00  0.00    +0.002 A 
ATOM     28  C   UNL     1      -0.191  -3.309  -1.286  0.00  0.00    -0.064 A 
ATOM     29  C   UNL     1      -0.269  -2.168  -0.510  0.00  0.00    +0.002 A 
ATOM     30  C   UNL     1      -0.471  -0.938  -1.107  0.00  0.00    +0.003 A 
ENDBRANCH  23  28
ENDBRANCH  20  23
ENDBRANCH  18  20
ENDBRANCH   1  18
TORSDOF 6
