REMARK  Name = ZINC21234553
REMARK  14 active torsions:
REMARK  status: ('A' for Active; 'I' for Inactive)
REMARK    1  A    between atoms: C_1  and  C_2
REMARK    2  A    between atoms: C_4  and  C_12
REMARK    3  A    between atoms: C_5  and  C_11
REMARK    4  A    between atoms: N_6  and  C_7
REMARK    5  A    between atoms: C_7  and  C_8
REMARK    6  A    between atoms: C_8  and  O_9
REMARK    7  A    between atoms: O_9  and  C_10
REMARK    8  A    between atoms: C_13  and  C_14
REMARK    9  A    between atoms: C_13  and  C_16
REMARK   10  A    between atoms: C_16  and  O_18
REMARK   11  A    between atoms: O_18  and  C_19
REMARK   12  A    between atoms: C_19  and  C_20
REMARK   13  A    between atoms: N_22  and  C_23
REMARK   14  A    between atoms: C_24  and  C_32
REMARK                            x       y       z     vdW  Elec       q    Type
REMARK                         _______ _______ _______ _____ _____    ______ ____
ROOT
ATOM      1  C   UNL     1      -1.710 -10.040   2.210  0.00  0.00    +0.328 C 
ENDROOT
BRANCH   1   2
ATOM      2  C   UNL     1      -1.805 -11.323   1.425  0.00  0.00    +0.255 C 
ATOM      3  O   UNL     1      -1.804 -11.294   0.213  0.00  0.00    -0.272 OA
ATOM      4  N   UNL     1      -1.892 -12.503   2.071  0.00  0.00    -0.277 N 
ATOM      5  H   UNL     1      -1.894 -12.530   3.170  0.00  0.00    +0.155 HD
BRANCH   4   6
ATOM      6  C   UNL     1      -1.980 -13.684   1.348  0.00  0.00    +0.084 A 
ATOM      7  C   UNL     1      -2.070 -14.983   1.827  0.00  0.00    +0.068 A 
ATOM      8  C   UNL     1      -2.155 -16.054   0.850  0.00  0.00    -0.023 A 
ATOM      9  C   UNL     1      -2.126 -15.659  -0.441  0.00  0.00    -0.004 A 
ATOM     10  S   UNL     1      -1.995 -13.895  -0.371  0.00  0.00    -0.077 S 
ATOM     11  C   UNL     1      -2.190 -16.533  -1.655  0.00  0.00    +0.043 C 
ATOM     12  C   UNL     1      -1.918 -17.982  -1.223  0.00  0.00    +0.005 C 
ATOM     13  C   UNL     1      -2.781 -18.302   0.001  0.00  0.00    +0.005 C 
ATOM     14  C   UNL     1      -2.265 -17.529   1.216  0.00  0.00    +0.037 C 
BRANCH   7  15
ATOM     15  C   UNL     1      -2.083 -15.263   3.266  0.00  0.00    +0.244 C 
ATOM     16  O   UNL     1      -3.139 -15.306   3.869  0.00  0.00    -0.270 OA
ATOM     17  N   UNL     1      -0.924 -15.475   3.922  0.00  0.00    -0.325 N 
ATOM     18  H   UNL     1      -0.934 -15.685   5.002  0.00  0.00    +0.145 HD
ATOM     19  H   UNL     1       0.031 -15.437   3.378  0.00  0.00    +0.145 HD
ENDBRANCH   7  15
ENDBRANCH   4   6
ENDBRANCH   1   2
BRANCH   1  20
ATOM     20  O   UNL     1      -1.628  -8.917   1.294  0.00  0.00    -0.451 OA
BRANCH  20  21
ATOM     21  C   UNL     1      -1.537  -7.687   1.839  0.00  0.00    +0.350 C 
ATOM     22  O   UNL     1      -1.527  -7.557   3.048  0.00  0.00    -0.244 OA
BRANCH  21  24
ATOM     23  C   UNL     1      -1.356  -5.245   1.533  0.00  0.00    +0.035 C 
ATOM     24  C   UNL     1      -1.450  -6.505   0.974  0.00  0.00    +0.136 C 
BRANCH  23  28
ATOM     25  C   UNL     1      -2.174  -2.193  -2.408  0.00  0.00    +0.063 C 
ATOM     26  C   UNL     1      -1.787  -2.743  -1.060  0.00  0.00    +0.017 A 
ATOM     27  C   UNL     1      -1.911  -4.025  -0.678  0.00  0.00    +0.030 A 
ATOM     28  C   UNL     1      -1.418  -4.095   0.705  0.00  0.00    -0.003 A 
ATOM     29  C   UNL     1      -1.027  -2.807   1.032  0.00  0.00    +0.023 A 
ATOM     30  N   UNL     1      -1.252  -2.018  -0.034  0.00  0.00    -0.345 N 
ATOM     31  C   UNL     1      -0.449  -2.367   2.353  0.00  0.00    +0.064 C 
BRANCH  30  32
ATOM     32  C   UNL     1      -0.969  -0.582  -0.084  0.00  0.00    +0.149 C 
BRANCH  32  33
ATOM     33  C   UNL     1       0.458  -0.360  -0.589  0.00  0.00    +0.181 C 
BRANCH  33  34
ATOM     34  O   UNL     1       0.734   1.041  -0.639  0.00  0.00    -0.381 OA
ATOM     35  C   UNL     1       2.049   1.359  -1.100  0.00  0.00    +0.194 C 
ENDBRANCH  33  34
ENDBRANCH  32  33
ENDBRANCH  30  32
ENDBRANCH  23  28
BRANCH  24  36
ATOM     36  C   UNL     1      -1.461  -6.657  -0.450  0.00  0.00    +0.106 C 
ATOM     37  N   UNL     1      -1.471  -6.779  -1.579  0.00  0.00    -0.191 NA
ENDBRANCH  24  36
ENDBRANCH  21  24
ENDBRANCH  20  21
ENDBRANCH   1  20
TORSDOF 11
