REMARK  Name = ZINC24773374
REMARK  9 active torsions:
REMARK  status: ('A' for Active; 'I' for Inactive)
REMARK    1  A    between atoms: C_1  and  C_2
REMARK    2  A    between atoms: C_2  and  C_3
REMARK    3  A    between atoms: C_3  and  N_4
REMARK    4  A    between atoms: N_4  and  C_5
REMARK    5  A    between atoms: N_4  and  C_16
REMARK    6  A    between atoms: C_5  and  C_6
REMARK    7  A    between atoms: C_9  and  C_11
REMARK    8  A    between atoms: C_16  and  C_17
REMARK    9  A    between atoms: N_19  and  C_20
REMARK                            x       y       z     vdW  Elec       q    Type
REMARK                         _______ _______ _______ _____ _____    ______ ____
ROOT
ATOM      1  N   UNL     1       4.101   0.619   1.321  0.00  0.00    +0.391 N 
ATOM      2  H   UNL     1       3.785   1.349   2.081  0.00  0.00    -0.080 HD
ENDROOT
BRANCH   1   3
ATOM      3  C   UNL     1       3.554  -0.691   1.699  0.00  0.00    -0.078 C 
BRANCH   3   5
ATOM      4  C   UNL     1       3.280  -3.070   0.985  0.00  0.00    +0.002 C 
ATOM      5  C   UNL     1       3.895  -1.718   0.617  0.00  0.00    -0.022 C 
ENDBRANCH   3   5
ENDBRANCH   1   3
BRANCH   1   6
ATOM      6  C   UNL     1       3.568   1.058   0.024  0.00  0.00    +0.021 C 
BRANCH   6   7
ATOM      7  C   UNL     1       2.087   1.310   0.149  0.00  0.00    +0.202 A 
ATOM      8  N   UNL     1       1.524   2.440   0.472  0.00  0.00    -0.114 NA
ATOM      9  N   UNL     1       0.246   2.297   0.483  0.00  0.00    -0.107 NA
ATOM     10  C   UNL     1      -0.054   1.057   0.164  0.00  0.00    +0.255 A 
ATOM     11  O   UNL     1       1.109   0.409  -0.053  0.00  0.00    -0.422 OA
BRANCH  10  12
ATOM     12  C   UNL     1      -1.405   0.484   0.064  0.00  0.00    +0.076 A 
ATOM     13  C   UNL     1      -2.628   1.092   0.279  0.00  0.00    +0.021 A 
ATOM     14  C   UNL     1      -3.769   0.342   0.118  0.00  0.00    +0.008 A 
ATOM     15  C   UNL     1      -3.661  -0.966  -0.234  0.00  0.00    +0.046 A 
ATOM     16  S   UNL     1      -1.893  -1.180  -0.359  0.00  0.00    -0.092 S 
ENDBRANCH  10  12
ENDBRANCH   6   7
ENDBRANCH   1   6
BRANCH   1  17
ATOM     17  C   UNL     1       5.570   0.591   1.304  0.00  0.00    +0.020 C 
BRANCH  17  18
ATOM     18  C   UNL     1       6.087   0.534   2.718  0.00  0.00    +0.201 C 
ATOM     19  O   UNL     1       5.316   0.621   3.651  0.00  0.00    -0.278 OA
ATOM     20  N   UNL     1       7.407   0.388   2.947  0.00  0.00    -0.286 N 
ATOM     21  H   UNL     1       8.116   0.393   2.106  0.00  0.00    +0.155 HD
BRANCH  20  22
ATOM     22  C   UNL     1       7.877   0.227   4.258  0.00  0.00    +0.051 A 
ATOM     23  C   UNL     1       7.170   0.771   5.321  0.00  0.00    +0.073 A 
ATOM     24  C   UNL     1       7.634   0.612   6.617  0.00  0.00    +0.164 A 
ATOM     25  C   UNL     1       8.809  -0.094   6.851  0.00  0.00    +0.163 A 
ATOM     26  C   UNL     1       9.514  -0.636   5.786  0.00  0.00    +0.066 A 
ATOM     27  C   UNL     1       9.049  -0.481   4.494  0.00  0.00    +0.043 A 
ATOM     28 BR   UNL     1      10.011  -1.226   3.047  0.00  0.00    -0.048 Br
ATOM     29  O   UNL     1       9.279  -0.265   8.118  0.00  0.00    -0.485 OA
ATOM     30  C   UNL     1       8.751   0.608   9.122  0.00  0.00    +0.270 C 
ATOM     31  C   UNL     1       7.225   0.660   8.960  0.00  0.00    +0.270 C 
ATOM     32  O   UNL     1       6.931   1.155   7.649  0.00  0.00    -0.485 OA
ENDBRANCH  20  22
ENDBRANCH  17  18
ENDBRANCH   1  17
TORSDOF 8
