REMARK  Name = ZINC16672249
REMARK  11 active torsions:
REMARK  status: ('A' for Active; 'I' for Inactive)
REMARK    1  A    between atoms: C_1  and  C_2
REMARK    2  A    between atoms: C_2  and  C_3
REMARK    3  A    between atoms: C_6  and  O_9
REMARK    4  A    between atoms: O_9  and  C_10
REMARK    5  A    between atoms: C_10  and  C_11
REMARK    6  A    between atoms: C_11  and  C_13
REMARK    7  A    between atoms: C_11  and  O_34
REMARK    8  A    between atoms: C_13  and  N_14
REMARK    9  A    between atoms: N_22  and  C_33
REMARK   10  A    between atoms: C_27  and  C_32
REMARK   11  A    between atoms: C_29  and  C_31
REMARK                            x       y       z     vdW  Elec       q    Type
REMARK                         _______ _______ _______ _____ _____    ______ ____
ROOT
ATOM      1  N   UNL     1       0.948  -2.013  -0.018  0.00  0.00    -0.300 N 
ATOM      2  C   UNL     1       1.229  -0.658  -0.013  0.00  0.00    +0.153 A 
ATOM      3  C   UNL     1       2.414   0.105  -0.020  0.00  0.00    +0.280 A 
ATOM      4  O   UNL     1       3.501  -0.446  -0.033  0.00  0.00    -0.265 OA
ATOM      5  N   UNL     1       2.331   1.451  -0.012  0.00  0.00    -0.273 N 
ATOM      6  H   UNL     1       3.170   1.996  -0.018  0.00  0.00    +0.173 HD
ATOM      7  C   UNL     1       1.139   2.072   0.002  0.00  0.00    +0.331 A 
ATOM      8  O   UNL     1       1.103   3.287   0.009  0.00  0.00    -0.246 OA
ATOM      9  N   UNL     1      -0.017   1.381   0.010  0.00  0.00    -0.280 N 
ATOM     10  C   UNL     1       0.002  -0.004   0.002  0.00  0.00    +0.170 A 
ATOM     11  N   UNL     1      -0.949  -0.940   0.006  0.00  0.00    -0.192 NA
ATOM     12  C   UNL     1      -0.399  -2.135  -0.006  0.00  0.00    +0.235 A 
ATOM     13  N   UNL     1      -1.095  -3.337  -0.006  0.00  0.00    -0.204 N 
ATOM     14  C   UNL     1      -2.447  -3.480   0.012  0.00  0.00    +0.045 A 
ATOM     15  C   UNL     1      -2.718  -4.804   0.001  0.00  0.00    +0.048 A 
ATOM     16  C   UNL     1      -1.500  -5.495  -0.014  0.00  0.00    +0.061 A 
ATOM     17  N   UNL     1      -0.529  -4.618  -0.018  0.00  0.00    -0.169 NA
ATOM     18  C   UNL     1      -1.335  -6.992  -0.024  0.00  0.00    +0.067 C 
ATOM     19  C   UNL     1      -3.460  -2.364   0.035  0.00  0.00    +0.066 C 
ATOM     20  C   UNL     1      -1.296   2.096   0.020  0.00  0.00    +0.155 C 
ENDROOT
BRANCH   1  21
ATOM     21  C   UNL     1       1.923  -3.107  -0.034  0.00  0.00    +0.160 C 
BRANCH  21  22
ATOM     22  C   UNL     1       2.248  -3.479  -1.482  0.00  0.00    +0.172 C 
BRANCH  22  23
ATOM     23  O   UNL     1       1.078  -4.006  -2.112  0.00  0.00    -0.387 OA
ATOM     24  H   UNL     1       0.725  -4.799  -1.686  0.00  0.00    +0.210 HD
ENDBRANCH  22  23
BRANCH  22  25
ATOM     25  C   UNL     1       3.356  -4.534  -1.500  0.00  0.00    +0.262 C 
BRANCH  25  26
ATOM     26  O   UNL     1       3.741  -4.797  -2.851  0.00  0.00    -0.489 OA
BRANCH  26  30
ATOM     27  C   UNL     1       6.720  -7.589  -3.441  0.00  0.00    -0.047 A 
ATOM     28  C   UNL     1       6.142  -6.956  -4.527  0.00  0.00    +0.007 A 
ATOM     29  C   UNL     1       5.145  -6.020  -4.332  0.00  0.00    +0.046 A 
ATOM     30  C   UNL     1       4.722  -5.716  -3.046  0.00  0.00    +0.121 A 
ATOM     31  C   UNL     1       5.307  -6.349  -1.958  0.00  0.00    +0.046 A 
ATOM     32  C   UNL     1       6.300  -7.288  -2.159  0.00  0.00    +0.007 A 
BRANCH  27  34
ATOM     33  C   UNL     1       9.169  -7.912  -3.650  0.00  0.00    +0.009 C 
ATOM     34  C   UNL     1       7.808  -8.609  -3.657  0.00  0.00    +0.032 C 
ENDBRANCH  27  34
ENDBRANCH  26  30
ENDBRANCH  25  26
ENDBRANCH  22  25
ENDBRANCH  21  22
ENDBRANCH   1  21
TORSDOF 7
