REMARK  Name = ZINC09242812
REMARK  7 active torsions:
REMARK  status: ('A' for Active; 'I' for Inactive)
REMARK    1  A    between atoms: C_3  and  C_10
REMARK    2  A    between atoms: C_5  and  N_7
REMARK    3  A    between atoms: C_12  and  C_28
REMARK    4  A    between atoms: N_16  and  C_17
REMARK    5  A    between atoms: C_20  and  S_23
REMARK    6  A    between atoms: S_23  and  N_26
REMARK    7  A    between atoms: C_28  and  C_30
REMARK                            x       y       z     vdW  Elec       q    Type
REMARK                         _______ _______ _______ _____ _____    ______ ____
ROOT
ATOM      1  C   UNL     1      -2.468   3.802   0.038  0.00  0.00    +0.150 C 
ATOM      2  C   UNL     1      -3.031   3.934   1.434  0.00  0.00    +0.077 C 
ATOM      3  C   UNL     1      -4.241   3.326   1.427  0.00  0.00    +0.250 C 
ATOM      4  C   UNL     1      -4.507   2.792   0.075  0.00  0.00    +0.292 C 
ATOM      5  O   UNL     1      -5.511   2.191  -0.252  0.00  0.00    -0.266 OA
ATOM      6  N   UNL     1      -3.472   3.068  -0.741  0.00  0.00    -0.253 N 
ATOM      7  O   UNL     1      -5.074   3.224   2.488  0.00  0.00    -0.282 OA
ENDROOT
BRANCH   1  10
ATOM      8  C   UNL     1      -0.006   0.942   0.144  0.00  0.00    +0.003 A 
ATOM      9  C   UNL     1      -1.193   1.649   0.108  0.00  0.00    +0.006 A 
ATOM     10  C   UNL     1      -1.174   3.031   0.072  0.00  0.00    -0.020 A 
ATOM     11  C   UNL     1       0.033   3.705   0.063  0.00  0.00    +0.038 A 
ATOM     12  C   UNL     1       1.220   2.998   0.093  0.00  0.00    +0.127 A 
ATOM     13  C   UNL     1       1.201   1.616   0.134  0.00  0.00    +0.033 A 
BRANCH  12  14
ATOM     14  N   UNL     1       2.513   3.720   0.083  0.00  0.00    +0.056 N 
ATOM     15  O   UNL     1       3.556   3.103   0.203  0.00  0.00    -0.126 OA
ATOM     16  O   UNL     1       2.533   4.931  -0.047  0.00  0.00    -0.126 OA
ENDBRANCH  12  14
ENDBRANCH   1  10
BRANCH   6  17
ATOM     17  C   UNL     1      -3.372   2.720  -2.091  0.00  0.00    +0.038 A 
ATOM     18  C   UNL     1      -2.244   3.076  -2.820  0.00  0.00    +0.025 A 
ATOM     19  C   UNL     1      -2.146   2.726  -4.152  0.00  0.00    +0.030 A 
ATOM     20  C   UNL     1      -3.173   2.030  -4.763  0.00  0.00    +0.105 A 
ATOM     21  C   UNL     1      -4.299   1.679  -4.042  0.00  0.00    +0.030 A 
ATOM     22  C   UNL     1      -4.402   2.021  -2.708  0.00  0.00    +0.025 A 
BRANCH  20  23
ATOM     23  S   UNL     1      -3.046   1.591  -6.465  0.00  0.00    +0.056 S 
ATOM     24  O   UNL     1      -1.660   1.558  -6.774  0.00  0.00    -0.153 OA
ATOM     25  O   UNL     1      -3.898   0.470  -6.660  0.00  0.00    -0.153 OA
BRANCH  23  26
ATOM     26  N   UNL     1      -3.696   2.837  -7.342  0.00  0.00    -0.204 NA
ATOM     27  H   UNL     1      -3.636   2.601  -8.414  0.00  0.00    +0.144 HD
ATOM     28  H   UNL     1      -3.135   3.761  -7.138  0.00  0.00    +0.144 HD
ENDBRANCH  23  26
ENDBRANCH  20  23
ENDBRANCH   6  17
BRANCH   2  29
ATOM     29  C   UNL     1      -2.391   4.594   2.576  0.00  0.00    +0.195 C 
ATOM     30  O   UNL     1      -2.032   3.938   3.535  0.00  0.00    -0.287 OA
BRANCH  29  31
ATOM     31  C   UNL     1      -2.183   6.057   2.562  0.00  0.00    +0.022 A 
ATOM     32  C   UNL     1      -2.514   6.802   1.428  0.00  0.00    +0.013 A 
ATOM     33  C   UNL     1      -2.323   8.168   1.423  0.00  0.00    +0.021 A 
ATOM     34  C   UNL     1      -1.793   8.800   2.537  0.00  0.00    +0.041 A 
ATOM     35  C   UNL     1      -1.457   8.065   3.662  0.00  0.00    +0.021 A 
ATOM     36  C   UNL     1      -1.649   6.700   3.681  0.00  0.00    +0.013 A 
ATOM     37 CL   UNL     1      -1.550  10.518   2.521  0.00  0.00    -0.084 Cl
ENDBRANCH  29  31
ENDBRANCH   2  29
TORSDOF 7
