REMARK  Name = ZINC13276501
REMARK  8 active torsions:
REMARK  status: ('A' for Active; 'I' for Inactive)
REMARK    1  A    between atoms: C_3  and  N_9
REMARK    2  A    between atoms: C_6  and  C_7
REMARK    3  A    between atoms: N_9  and  S_10
REMARK    4  A    between atoms: S_10  and  C_13
REMARK    5  A    between atoms: C_16  and  S_22
REMARK    6  A    between atoms: C_17  and  N_19
REMARK    7  A    between atoms: S_22  and  C_23
REMARK    8  A    between atoms: N_27  and  C_28
REMARK                            x       y       z     vdW  Elec       q    Type
REMARK                         _______ _______ _______ _____ _____    ______ ____
ROOT
ATOM      1  C   UNL     1      -0.763   5.212  -7.479  0.00  0.00    +0.111 A 
ATOM      2  C   UNL     1      -0.381   5.550  -6.193  0.00  0.00    +0.030 A 
ATOM      3  C   UNL     1      -0.462   4.616  -5.179  0.00  0.00    +0.019 A 
ATOM      4  C   UNL     1      -0.920   3.333  -5.454  0.00  0.00    +0.046 A 
ATOM      5  C   UNL     1      -1.303   2.997  -6.746  0.00  0.00    +0.142 A 
ATOM      6  C   UNL     1      -1.223   3.937  -7.755  0.00  0.00    +0.062 A 
ENDROOT
BRANCH   1   7
ATOM      7  S   UNL     1      -0.663   6.408  -8.769  0.00  0.00    +0.072 S 
ATOM      8  O   UNL     1       0.387   7.299  -8.416  0.00  0.00    -0.150 OA
ATOM      9  O   UNL     1      -0.671   5.687  -9.993  0.00  0.00    -0.150 OA
BRANCH   7  10
ATOM     10  N   UNL     1      -2.065   7.289  -8.729  0.00  0.00    -0.216 N 
ATOM     11  H   UNL     1      -2.674   7.266  -9.483  0.00  0.00    +0.174 HD
BRANCH  10  14
ATOM     12  C   UNL     1      -1.988  10.025  -6.296  0.00  0.00    +0.017 A 
ATOM     13  C   UNL     1      -1.691   9.260  -7.394  0.00  0.00    +0.025 A 
ATOM     14  C   UNL     1      -2.368   8.063  -7.614  0.00  0.00    +0.048 A 
ATOM     15  C   UNL     1      -3.351   7.642  -6.723  0.00  0.00    +0.025 A 
ATOM     16  C   UNL     1      -3.649   8.400  -5.620  0.00  0.00    +0.017 A 
ATOM     17  C   UNL     1      -2.972   9.603  -5.396  0.00  0.00    +0.063 A 
BRANCH  17  18
ATOM     18  C   UNL     1      -3.293  10.423  -4.215  0.00  0.00    +0.387 C 
ATOM     19  O   UNL     1      -2.703  11.467  -4.021  0.00  0.00    -0.241 OA
ATOM     20  O   UNL     1      -4.241  10.014  -3.348  0.00  0.00    -0.241 OA
ENDBRANCH  17  18
ENDBRANCH  10  14
ENDBRANCH   7  10
ENDBRANCH   1   7
BRANCH   5  21
ATOM     21  N   UNL     1      -1.796   1.633  -7.042  0.00  0.00    +0.058 N 
ATOM     22  O   UNL     1      -2.132   1.339  -8.175  0.00  0.00    -0.126 OA
ATOM     23  O   UNL     1      -1.866   0.804  -6.152  0.00  0.00    -0.126 OA
ENDBRANCH   5  21
BRANCH   4  24
ATOM     24  S   UNL     1      -1.021   2.137  -4.164  0.00  0.00    -0.046 S 
BRANCH  24  25
ATOM     25  C   UNL     1       0.414   1.179  -4.521  0.00  0.00    +0.214 A 
ATOM     26  N   UNL     1       1.217   1.330  -5.552  0.00  0.00    -0.101 NA
ATOM     27  N   UNL     1       2.164   0.463  -5.515  0.00  0.00    -0.022 NA
ATOM     28  N   UNL     1       2.043  -0.288  -4.475  0.00  0.00    -0.043 NA
ATOM     29  N   UNL     1       0.900   0.152  -3.785  0.00  0.00    -0.217 N 
BRANCH  29  30
ATOM     30  C   UNL     1       0.349  -0.389  -2.540  0.00  0.00    +0.112 C 
ATOM     31  C   UNL     1      -0.078  -1.858  -2.536  0.00  0.00    +0.029 C 
ATOM     32  C   UNL     1       1.186  -1.427  -1.789  0.00  0.00    +0.029 C 
ENDBRANCH  29  30
ENDBRANCH  24  25
ENDBRANCH   4  24
TORSDOF 8
