REMARK  Name = ZINC21462390
REMARK  12 active torsions:
REMARK  status: ('A' for Active; 'I' for Inactive)
REMARK    1  A    between atoms: C_1  and  C_2
REMARK    2  A    between atoms: C_2  and  O_3
REMARK    3  A    between atoms: O_3  and  C_4
REMARK    4  A    between atoms: C_4  and  C_6
REMARK    5  A    between atoms: C_7  and  C_36
REMARK    6  A    between atoms: C_13  and  C_17
REMARK    7  A    between atoms: C_17  and  C_19
REMARK    8  A    between atoms: C_17  and  S_20
REMARK    9  A    between atoms: S_20  and  C_21
REMARK   10  A    between atoms: N_27  and  C_28
REMARK   11  A    between atoms: C_28  and  C_29
REMARK   12  A    between atoms: C_29  and  C_30
REMARK                            x       y       z     vdW  Elec       q    Type
REMARK                         _______ _______ _______ _____ _____    ______ ____
ROOT
ATOM      1  C   UNL     1      -8.795  -4.553   0.059  0.00  0.00    +0.117 C 
ATOM      2  C   UNL     1      -9.326  -4.478  -1.375  0.00  0.00    +0.027 C 
ENDROOT
BRANCH   1  10
ATOM      3  C   UNL     1      -2.843  -2.416   0.016  0.00  0.00    +0.102 A 
ATOM      4  C   UNL     1      -3.204  -3.733   0.018  0.00  0.00    -0.015 A 
ATOM      5  C   UNL     1      -4.556  -4.082   0.028  0.00  0.00    +0.076 A 
ATOM      6  C   UNL     1      -5.176  -5.427   0.032  0.00  0.00    +0.260 A 
ATOM      7  O   UNL     1      -4.487  -6.432   0.026  0.00  0.00    -0.267 OA
ATOM      8  N   UNL     1      -6.520  -5.510   0.041  0.00  0.00    -0.309 N 
ATOM      9  H   UNL     1      -6.942  -6.384   0.043  0.00  0.00    +0.170 HD
ATOM     10  C   UNL     1      -7.296  -4.399   0.048  0.00  0.00    +0.124 A 
ATOM     11  N   UNL     1      -6.783  -3.198   0.045  0.00  0.00    -0.225 NA
ATOM     12  C   UNL     1      -5.471  -3.003   0.035  0.00  0.00    +0.116 A 
ATOM     13  S   UNL     1      -4.417  -1.575   0.036  0.00  0.00    -0.062 S 
ATOM     14  C   UNL     1      -2.147  -4.807   0.009  0.00  0.00    +0.046 C 
BRANCH   3  15
ATOM     15  C   UNL     1      -1.497  -1.838   0.006  0.00  0.00    +0.346 C 
ATOM     16  O   UNL     1      -0.523  -2.566  -0.007  0.00  0.00    -0.244 OA
BRANCH  15  17
ATOM     17  O   UNL     1      -1.339  -0.499   0.012  0.00  0.00    -0.461 OA
BRANCH  17  19
ATOM     18  C   UNL     1      -0.019   1.526   0.010  0.00  0.00    +0.048 C 
ATOM     19  C   UNL     1       0.002  -0.004   0.002  0.00  0.00    +0.229 C 
ENDBRANCH  17  19
ENDBRANCH  15  17
ENDBRANCH   3  15
ENDBRANCH   1  10
BRANCH   1  20
ATOM     20  S   UNL     1      -9.533  -3.222   1.046  0.00  0.00    -0.075 S 
BRANCH  20  21
ATOM     21  C   UNL     1     -11.249  -3.622   1.085  0.00  0.00    +0.193 A 
ATOM     22  N   UNL     1     -11.801  -4.656   0.519  0.00  0.00    -0.145 NA
ATOM     23  N   UNL     1     -13.177  -4.612   0.783  0.00  0.00    -0.226 N 
ATOM     24  H   UNL     1     -13.839  -5.255   0.485  0.00  0.00    +0.194 HD
ATOM     25  C   UNL     1     -13.411  -3.511   1.526  0.00  0.00    +0.345 A 
ATOM     26  O   UNL     1     -14.493  -3.143   1.947  0.00  0.00    -0.245 OA
ATOM     27  N   UNL     1     -12.228  -2.895   1.724  0.00  0.00    -0.270 N 
BRANCH  27  28
ATOM     28  C   UNL     1     -12.021  -1.661   2.486  0.00  0.00    +0.133 C 
BRANCH  28  29
ATOM     29  C   UNL     1     -12.156  -0.457   1.553  0.00  0.00    +0.057 C 
BRANCH  29  30
ATOM     30  C   UNL     1     -11.943   0.813   2.336  0.00  0.00    -0.046 A 
ATOM     31  C   UNL     1     -13.017   1.443   2.937  0.00  0.00    +0.004 A 
ATOM     32  C   UNL     1     -12.821   2.608   3.656  0.00  0.00    +0.000 A 
ATOM     33  C   UNL     1     -11.552   3.141   3.775  0.00  0.00    +0.000 A 
ATOM     34  C   UNL     1     -10.478   2.510   3.175  0.00  0.00    +0.000 A 
ATOM     35  C   UNL     1     -10.672   1.344   2.460  0.00  0.00    +0.004 A 
ENDBRANCH  29  30
ENDBRANCH  28  29
ENDBRANCH  27  28
ENDBRANCH  20  21
ENDBRANCH   1  20
TORSDOF 9
