REMARK  Name = ZINC12801243
REMARK  7 active torsions:
REMARK  status: ('A' for Active; 'I' for Inactive)
REMARK    1  A    between atoms: C_3  and  N_27
REMARK    2  A    between atoms: C_6  and  C_7
REMARK    3  A    between atoms: C_10  and  C_12
REMARK    4  A    between atoms: C_13  and  C_14
REMARK    5  A    between atoms: C_13  and  C_16
REMARK    6  A    between atoms: N_18  and  C_19
REMARK    7  A    between atoms: C_22  and  C_25
REMARK                            x       y       z     vdW  Elec       q    Type
REMARK                         _______ _______ _______ _____ _____    ______ ____
ROOT
ATOM      1  C   UNL     1       3.573   1.859   0.110  0.00  0.00    +0.070 C 
ATOM      2  C   UNL     1       2.423   1.082   0.107  0.00  0.00    +0.117 C 
ENDROOT
BRANCH   1   6
ATOM      3  C   UNL     1       6.390  -0.297   0.368  0.00  0.00    +0.136 A 
ATOM      4  C   UNL     1       7.039   0.918   0.321  0.00  0.00    +0.050 A 
ATOM      5  C   UNL     1       6.057   1.902   0.216  0.00  0.00    +0.050 A 
ATOM      6  C   UNL     1       4.833   1.247   0.203  0.00  0.00    +0.130 A 
ATOM      7  O   UNL     1       5.065  -0.079   0.301  0.00  0.00    -0.455 OA
BRANCH   3  13
ATOM      8  C   UNL     1       8.433  -1.710   0.540  0.00  0.00    +0.014 A 
ATOM      9  C   UNL     1       9.034  -2.947   0.648  0.00  0.00    +0.033 A 
ATOM     10  C   UNL     1       8.262  -4.094   0.686  0.00  0.00    +0.126 A 
ATOM     11  C   UNL     1       6.882  -4.010   0.620  0.00  0.00    +0.033 A 
ATOM     12  C   UNL     1       6.267  -2.780   0.517  0.00  0.00    +0.014 A 
ATOM     13  C   UNL     1       7.040  -1.617   0.479  0.00  0.00    +0.017 A 
BRANCH  10  14
ATOM     14  N   UNL     1       8.914  -5.418   0.796  0.00  0.00    +0.056 N 
ATOM     15  O   UNL     1       8.237  -6.430   0.829  0.00  0.00    -0.126 OA
ATOM     16  O   UNL     1      10.129  -5.496   0.854  0.00  0.00    -0.126 OA
ENDBRANCH  10  14
ENDBRANCH   3  13
ENDBRANCH   1   6
BRANCH   2  17
ATOM     17  C   UNL     1       1.105   1.721   0.010  0.00  0.00    +0.259 C 
ATOM     18  O   UNL     1       1.021   2.932  -0.069  0.00  0.00    -0.269 OA
ATOM     19  N   UNL     1      -0.011   0.966   0.007  0.00  0.00    -0.281 N 
ATOM     20  H   UNL     1       0.058  -0.002   0.003  0.00  0.00    +0.155 HD
BRANCH  19  21
ATOM     21  C   UNL     1      -1.264   1.575   0.005  0.00  0.00    +0.034 A 
ATOM     22  C   UNL     1      -2.322   0.989   0.693  0.00  0.00    +0.024 A 
ATOM     23  C   UNL     1      -3.560   1.591   0.697  0.00  0.00    +0.017 A 
ATOM     24  C   UNL     1      -3.756   2.787   0.001  0.00  0.00    +0.063 A 
ATOM     25  C   UNL     1      -2.692   3.371  -0.693  0.00  0.00    +0.017 A 
ATOM     26  C   UNL     1      -1.455   2.766  -0.689  0.00  0.00    +0.024 A 
BRANCH  24  27
ATOM     27  C   UNL     1      -5.082   3.432  -0.001  0.00  0.00    +0.387 C 
ATOM     28  O   UNL     1      -5.250   4.472  -0.607  0.00  0.00    -0.241 OA
ATOM     29  O   UNL     1      -6.106   2.868   0.668  0.00  0.00    -0.241 OA
ENDBRANCH  24  27
ENDBRANCH  19  21
ENDBRANCH   2  17
BRANCH   2  30
ATOM     30  C   UNL     1       2.522  -0.344   0.200  0.00  0.00    +0.104 C 
ATOM     31  N   UNL     1       2.601  -1.475   0.273  0.00  0.00    -0.191 NA
ENDBRANCH   2  30
TORSDOF 7
