REMARK  Name = ZINC13064628
REMARK  11 active torsions:
REMARK  status: ('A' for Active; 'I' for Inactive)
REMARK    1  A    between atoms: C_1  and  C_2
REMARK    2  A    between atoms: C_2  and  C_3
REMARK    3  A    between atoms: C_3  and  C_5
REMARK    4  A    between atoms: C_3  and  N_73
REMARK    5  A    between atoms: N_9  and  C_10
REMARK    6  A    between atoms: C_10  and  C_11
REMARK    7  A    between atoms: C_17  and  C_18
REMARK    8  A    between atoms: C_17  and  N_73
REMARK    9  A    between atoms: C_22  and  C_31
REMARK   10  A    between atoms: C_23  and  C_30
REMARK   11  A    between atoms: C_32  and  N_73
REMARK                            x       y       z     vdW  Elec       q    Type
REMARK                         _______ _______ _______ _____ _____    ______ ____
ROOT
ATOM      1  N   UNL     1       5.507  -2.985   1.400  0.00  0.00    +0.391 N 
ATOM      2  H   UNL     1       4.706  -3.453   1.840  0.00  0.00    -0.080 HD
ENDROOT
BRANCH   1   3
ATOM      3  C   UNL     1       5.859  -1.789   2.194  0.00  0.00    -0.067 C 
ATOM      4  C   UNL     1       7.157  -1.165   1.676  0.00  0.00    -0.015 C 
ATOM      5  C   UNL     1       7.500   0.067   2.516  0.00  0.00    -0.002 C 
ATOM      6  C   UNL     1       7.681  -0.346   3.978  0.00  0.00    -0.000 C 
ATOM      7  C   UNL     1       6.383  -0.970   4.495  0.00  0.00    -0.002 C 
ATOM      8  C   UNL     1       6.040  -2.202   3.656  0.00  0.00    -0.015 C 
ENDBRANCH   1   3
BRANCH   1   9
ATOM      9  C   UNL     1       6.650  -3.922   1.364  0.00  0.00    +0.003 C 
BRANCH   9  10
ATOM     10  C   UNL     1       7.682  -3.455   0.370  0.00  0.00    +0.138 A 
ATOM     11  N   UNL     1       7.467  -3.097  -0.872  0.00  0.00    -0.115 NA
ATOM     12  N   UNL     1       8.598  -2.763  -1.392  0.00  0.00    -0.023 NA
ATOM     13  N   UNL     1       9.530  -2.906  -0.515  0.00  0.00    -0.044 NA
ATOM     14  N   UNL     1       9.005  -3.332   0.584  0.00  0.00    -0.228 N 
BRANCH  14  15
ATOM     15  C   UNL     1       9.716  -3.624   1.831  0.00  0.00    +0.178 C 
BRANCH  15  16
ATOM     16  C   UNL     1      10.161  -5.088   1.833  0.00  0.00    +0.140 C 
ATOM     17  C   UNL     1      10.809  -5.436   3.190  0.00  0.00    +0.035 C 
ATOM     18  C   UNL     1      11.989  -6.353   2.766  0.00  0.00    +0.031 C 
ATOM     19  C   UNL     1      12.386  -5.713   1.412  0.00  0.00    +0.160 C 
ATOM     20  O   UNL     1      11.147  -5.298   0.816  0.00  0.00    -0.375 OA
ENDBRANCH  15  16
ENDBRANCH  14  15
ENDBRANCH   9  10
BRANCH   9  22
ATOM     21  C   UNL     1       5.191  -5.836   2.034  0.00  0.00    +0.002 C 
ATOM     22  C   UNL     1       6.137  -5.304   0.956  0.00  0.00    -0.011 C 
ENDBRANCH   9  22
ENDBRANCH   1   9
BRANCH   1  23
ATOM     23  C   UNL     1       5.135  -2.588   0.026  0.00  0.00    -0.036 C 
BRANCH  23  24
ATOM     24  C   UNL     1       3.769  -1.953   0.058  0.00  0.00    +0.001 A 
ATOM     25  C   UNL     1       3.644  -0.611  -0.095  0.00  0.00    +0.017 A 
ATOM     26  C   UNL     1       2.302  -0.025  -0.058  0.00  0.00    -0.001 A 
ATOM     27  C   UNL     1       2.110   1.352  -0.209  0.00  0.00    +0.013 A 
ATOM     28  C   UNL     1       0.846   1.867  -0.170  0.00  0.00    -0.047 A 
ATOM     29  C   UNL     1      -0.250   1.036   0.019  0.00  0.00    -0.046 A 
ATOM     30  C   UNL     1      -0.085  -0.323   0.171  0.00  0.00    +0.030 A 
ATOM     31  C   UNL     1       1.194  -0.871   0.135  0.00  0.00    +0.049 A 
ATOM     32  N   UNL     1       1.389  -2.227   0.284  0.00  0.00    -0.322 N 
ATOM     33  H   UNL     1       0.624  -2.809   0.417  0.00  0.00    +0.169 HD
ATOM     34  C   UNL     1       2.624  -2.756   0.248  0.00  0.00    +0.251 A 
ATOM     35  O   UNL     1       2.760  -3.960   0.384  0.00  0.00    -0.268 OA
ATOM     36  C   UNL     1      -1.637   1.627   0.053  0.00  0.00    +0.044 C 
ATOM     37  C   UNL     1       0.639   3.351  -0.334  0.00  0.00    +0.044 C 
ENDBRANCH  23  24
ENDBRANCH   1  23
TORSDOF 8
