REMARK  Name = ZINC45799894
REMARK  7 active torsions:
REMARK  status: ('A' for Active; 'I' for Inactive)
REMARK    1  A    between atoms: C_1  and  N_2
REMARK    2  A    between atoms: N_5  and  C_6
REMARK    3  A    between atoms: C_9  and  N_12
REMARK    4  A    between atoms: C_13  and  C_15
REMARK    5  A    between atoms: C_16  and  C_20
REMARK    6  A    between atoms: C_20  and  O_21
REMARK    7  A    between atoms: O_21  and  C_22
REMARK                            x       y       z     vdW  Elec       q    Type
REMARK                         _______ _______ _______ _____ _____    ______ ____
ROOT
ATOM      1  N   UNL     1       2.743  -5.057  -5.170  0.00  0.00    -0.279 N 
ATOM      2  C   UNL     1       2.560  -6.392  -5.189  0.00  0.00    +0.284 C 
ATOM      3  O   UNL     1       2.007  -6.944  -4.256  0.00  0.00    -0.266 OA
ATOM      4  H   UNL     1       3.243  -4.626  -5.881  0.00  0.00    +0.155 HD
ENDROOT
BRANCH   1   8
ATOM      5  C   UNL     1       1.164  -2.781  -2.054  0.00  0.00    +0.035 A 
ATOM      6  C   UNL     1       1.642  -4.060  -1.806  0.00  0.00    +0.025 A 
ATOM      7  C   UNL     1       2.165  -4.814  -2.837  0.00  0.00    +0.025 A 
ATOM      8  C   UNL     1       2.213  -4.293  -4.124  0.00  0.00    +0.034 A 
ATOM      9  C   UNL     1       1.734  -3.013  -4.372  0.00  0.00    +0.025 A 
ATOM     10  C   UNL     1       1.206  -2.261  -3.342  0.00  0.00    +0.025 A 
BRANCH   5  15
ATOM     11  C   UNL     1      -2.106   0.376  -0.462  0.00  0.00    +0.129 C 
ATOM     12  N   UNL     1      -0.976  -0.523  -0.213  0.00  0.00    -0.302 N 
ATOM     13  C   UNL     1      -0.406  -1.188  -1.237  0.00  0.00    +0.304 C 
ATOM     14  O   UNL     1      -0.829  -1.042  -2.367  0.00  0.00    -0.253 OA
ATOM     15  N   UNL     1       0.633  -2.015  -1.008  0.00  0.00    -0.269 N 
ATOM     16  H   UNL     1      -0.639  -0.639   0.689  0.00  0.00    +0.150 HD
ATOM     17  H   UNL     1       1.014  -2.081  -0.118  0.00  0.00    +0.156 HD
ENDBRANCH   5  15
ENDBRANCH   1   8
BRANCH   2  18
ATOM     18  C   UNL     1       3.028  -7.180  -6.334  0.00  0.00    +0.196 A 
ATOM     19  C   UNL     1       2.902  -8.532  -6.483  0.00  0.00    +0.040 A 
ATOM     20  C   UNL     1       3.484  -8.857  -7.718  0.00  0.00    +0.049 A 
ATOM     21  C   UNL     1       3.933  -7.705  -8.262  0.00  0.00    +0.196 A 
ATOM     22  O   UNL     1       3.652  -6.696  -7.428  0.00  0.00    -0.458 OA
BRANCH  19  23
ATOM     23  C   UNL     1       2.263  -9.488  -5.510  0.00  0.00    +0.268 C 
BRANCH  23  24
ATOM     24  O   UNL     1       2.332 -10.816  -6.033  0.00  0.00    -0.487 OA
BRANCH  24  25
ATOM     25  C   UNL     1       1.796 -11.807  -5.272  0.00  0.00    +0.121 A 
ATOM     26  C   UNL     1       1.212 -11.507  -4.051  0.00  0.00    +0.045 A 
ATOM     27  C   UNL     1       0.668 -12.516  -3.280  0.00  0.00    +0.004 A 
ATOM     28  C   UNL     1       0.706 -13.825  -3.724  0.00  0.00    +0.000 A 
ATOM     29  C   UNL     1       1.289 -14.127  -4.941  0.00  0.00    +0.004 A 
ATOM     30  C   UNL     1       1.828 -13.120  -5.719  0.00  0.00    +0.045 A 
ENDBRANCH  24  25
ENDBRANCH  23  24
ENDBRANCH  19  23
ENDBRANCH   2  18
TORSDOF 6
