REMARK  Name = ZINC40342022
REMARK  6 active torsions:
REMARK  status: ('A' for Active; 'I' for Inactive)
REMARK    1  A    between atoms: C_1  and  C_2
REMARK    2  A    between atoms: C_2  and  C_3
REMARK    3  A    between atoms: C_3  and  N_4
REMARK    4  A    between atoms: C_5  and  C_22
REMARK    5  A    between atoms: C_8  and  C_15
REMARK    6  A    between atoms: C_25  and  N_28
REMARK                            x       y       z     vdW  Elec       q    Type
REMARK                         _______ _______ _______ _____ _____    ______ ____
ROOT
ATOM      1  N   UNL     1       0.738  -1.962  -1.265  0.00  0.00    -0.285 N 
ATOM      2  C   UNL     1       1.783  -2.812  -0.679  0.00  0.00    +0.141 C 
ATOM      3  C   UNL     1       1.360  -4.232  -0.939  0.00  0.00    +0.035 A 
ATOM      4  C   UNL     1       1.647  -5.593  -0.793  0.00  0.00    +0.099 A 
ATOM      5  N   UNL     1       0.666  -6.266  -1.362  0.00  0.00    -0.173 NA
ATOM      6  N   UNL     1      -0.211  -5.464  -1.853  0.00  0.00    -0.272 N 
ATOM      7  H   UNL     1      -1.018  -5.738  -2.317  0.00  0.00    +0.189 HD
ATOM      8  C   UNL     1       0.161  -4.170  -1.623  0.00  0.00    +0.126 A 
ATOM      9  C   UNL     1      -0.201  -2.760  -1.805  0.00  0.00    +0.265 C 
ATOM     10  O   UNL     1      -1.206  -2.368  -2.367  0.00  0.00    -0.268 OA
ENDROOT
BRANCH   4  11
ATOM     11  C   UNL     1       2.837  -6.174  -0.122  0.00  0.00    +0.003 A 
ATOM     12  C   UNL     1       4.068  -5.527  -0.201  0.00  0.00    +0.011 A 
ATOM     13  C   UNL     1       5.171  -6.071   0.425  0.00  0.00    +0.020 A 
ATOM     14  C   UNL     1       5.056  -7.256   1.131  0.00  0.00    +0.041 A 
ATOM     15  C   UNL     1       3.834  -7.902   1.212  0.00  0.00    +0.020 A 
ATOM     16  C   UNL     1       2.724  -7.363   0.594  0.00  0.00    +0.011 A 
ATOM     17 CL   UNL     1       6.447  -7.936   1.916  0.00  0.00    -0.084 Cl
ENDBRANCH   4  11
BRANCH   2  18
ATOM     18  C   UNL     1       1.884  -2.562   0.804  0.00  0.00    -0.022 A 
ATOM     19  C   UNL     1       0.737  -2.385   1.554  0.00  0.00    +0.008 A 
ATOM     20  C   UNL     1       0.829  -2.156   2.914  0.00  0.00    +0.033 A 
ATOM     21  C   UNL     1       2.068  -2.105   3.524  0.00  0.00    +0.126 A 
ATOM     22  C   UNL     1       3.216  -2.283   2.774  0.00  0.00    +0.033 A 
ATOM     23  C   UNL     1       3.123  -2.517   1.414  0.00  0.00    +0.008 A 
BRANCH  21  24
ATOM     24  N   UNL     1       2.167  -1.859   4.980  0.00  0.00    +0.056 N 
ATOM     25  O   UNL     1       1.164  -1.702   5.636  0.00  0.00    -0.126 OA
ATOM     26  O   UNL     1       3.252  -1.814   5.513  0.00  0.00    -0.126 OA
ENDBRANCH  21  24
ENDBRANCH   2  18
BRANCH   1  27
ATOM     27  C   UNL     1       0.718  -0.497  -1.257  0.00  0.00    +0.109 C 
BRANCH  27  29
ATOM     28  C   UNL     1      -0.019   1.526   0.010  0.00  0.00    +0.005 C 
ATOM     29  C   UNL     1       0.002  -0.004   0.002  0.00  0.00    +0.016 C 
ENDBRANCH  27  29
ENDBRANCH   1  27
TORSDOF 5
