REMARK  Name = ZINC61697950
REMARK  6 active torsions:
REMARK  status: ('A' for Active; 'I' for Inactive)
REMARK    1  A    between atoms: C_1  and  C_2
REMARK    2  A    between atoms: C_2  and  C_4
REMARK    3  A    between atoms: C_2  and  O_22
REMARK    4  A    between atoms: C_7  and  O_11
REMARK    5  A    between atoms: O_11  and  C_12
REMARK    6  A    between atoms: C_17  and  N_18
REMARK                            x       y       z     vdW  Elec       q    Type
REMARK                         _______ _______ _______ _____ _____    ______ ____
ROOT
ATOM      1  C   UNL     1       0.748  -0.490  -1.215  0.00  0.00    -0.018 A 
ATOM      2  C   UNL     1       0.054  -0.549  -2.409  0.00  0.00    +0.010 A 
ATOM      3  C   UNL     1       0.684  -0.994  -3.555  0.00  0.00    +0.048 A 
ATOM      4  C   UNL     1       2.015  -1.382  -3.508  0.00  0.00    +0.147 A 
ATOM      5  C   UNL     1       2.711  -1.322  -2.308  0.00  0.00    +0.083 A 
ATOM      6  C   UNL     1       2.076  -0.870  -1.165  0.00  0.00    +0.029 A 
ATOM      7 CL   UNL     1       4.376  -1.806  -2.244  0.00  0.00    -0.080 Cl
ENDROOT
BRANCH   1   9
ATOM      8  C   UNL     1       0.005   1.525   0.024  0.00  0.00    +0.043 C 
ATOM      9  C   UNL     1       0.058  -0.004   0.033  0.00  0.00    +0.141 C 
BRANCH   9  10
ATOM     10  O   UNL     1      -1.272  -0.526   0.076  0.00  0.00    -0.387 OA
ATOM     11  H   UNL     1      -1.776  -0.253   0.855  0.00  0.00    +0.210 HD
ENDBRANCH   9  10
ENDBRANCH   1   9
BRANCH   4  12
ATOM     12  O   UNL     1       2.637  -1.821  -4.634  0.00  0.00    -0.452 OA
BRANCH  12  13
ATOM     13  C   UNL     1       2.749  -3.163  -4.819  0.00  0.00    +0.159 A 
ATOM     14  C   UNL     1       2.134  -4.040  -3.937  0.00  0.00    +0.051 A 
ATOM     15  C   UNL     1       2.249  -5.403  -4.127  0.00  0.00    +0.042 A 
ATOM     16  C   UNL     1       2.977  -5.895  -5.197  0.00  0.00    +0.126 A 
ATOM     17  C   UNL     1       3.591  -5.021  -6.078  0.00  0.00    +0.074 A 
ATOM     18  C   UNL     1       3.473  -3.657  -5.894  0.00  0.00    +0.171 A 
ATOM     19  F   UNL     1       3.089  -7.228  -5.381  0.00  0.00    -0.205 F 
BRANCH  18  20
ATOM     20  N   UNL     1       4.125  -2.723  -6.840  0.00  0.00    +0.060 N 
ATOM     21  O   UNL     1       4.756  -3.154  -7.777  0.00  0.00    -0.126 OA
ATOM     22  O   UNL     1       4.026  -1.529  -6.676  0.00  0.00    -0.126 OA
ENDBRANCH  18  20
ENDBRANCH  12  13
ENDBRANCH   4  12
TORSDOF 5
