REMARK  Name = ZINC60132504
REMARK  6 active torsions:
REMARK  status: ('A' for Active; 'I' for Inactive)
REMARK    1  A    between atoms: C_1  and  C_2
REMARK    2  A    between atoms: C_5  and  C_11
REMARK    3  A    between atoms: C_7  and  N_8
REMARK    4  A    between atoms: C_11  and  C_13
REMARK    5  A    between atoms: C_14  and  C_15
REMARK    6  A    between atoms: C_18  and  O_22
REMARK                            x       y       z     vdW  Elec       q    Type
REMARK                         _______ _______ _______ _____ _____    ______ ____
ROOT
ATOM      1  C   UNL     1       0.572  -4.197  -0.099  0.00  0.00    +0.186 C 
ATOM      2  O   UNL     1       0.896  -4.788   0.915  0.00  0.00    -0.287 OA
ENDROOT
BRANCH   1   7
ATOM      3  C   UNL     1      -0.538   1.447   0.089  0.00  0.00    +0.046 C 
ATOM      4  C   UNL     1      -0.247  -0.031   0.040  0.00  0.00    -0.020 A 
ATOM      5  C   UNL     1      -0.350  -0.714  -1.160  0.00  0.00    +0.006 A 
ATOM      6  C   UNL     1      -0.086  -2.066  -1.212  0.00  0.00    +0.012 A 
ATOM      7  C   UNL     1       0.287  -2.747  -0.051  0.00  0.00    +0.024 A 
ATOM      8  C   UNL     1       0.390  -2.052   1.155  0.00  0.00    +0.044 A 
ATOM      9  C   UNL     1       0.127  -0.698   1.193  0.00  0.00    +0.130 A 
BRANCH   9  10
ATOM     10  N   UNL     1       0.241   0.042   2.470  0.00  0.00    +0.057 N 
ATOM     11  O   UNL     1       0.675   1.170   2.478  0.00  0.00    -0.126 OA
ATOM     12  O   UNL     1      -0.100  -0.482   3.504  0.00  0.00    -0.126 OA
ENDBRANCH   9  10
ENDBRANCH   1   7
BRANCH   1  13
ATOM     13  C   UNL     1       0.466  -4.900  -1.325  0.00  0.00    +0.052 C 
ATOM     14  C   UNL     1       0.726  -6.227  -1.369  0.00  0.00    +0.012 C 
BRANCH  14  15
ATOM     15  C   UNL     1       0.617  -6.955  -2.640  0.00  0.00    -0.023 A 
ATOM     16  C   UNL     1       0.249  -6.277  -3.809  0.00  0.00    +0.011 A 
ATOM     17  C   UNL     1       0.148  -6.963  -4.998  0.00  0.00    +0.047 A 
ATOM     18  C   UNL     1       0.410  -8.328  -5.040  0.00  0.00    +0.135 A 
ATOM     19  C   UNL     1       0.776  -9.007  -3.882  0.00  0.00    +0.083 A 
ATOM     20  C   UNL     1       0.886  -8.328  -2.689  0.00  0.00    +0.031 A 
ATOM     21 CL   UNL     1       1.101 -10.711  -3.943  0.00  0.00    -0.080 Cl
BRANCH  18  22
ATOM     22  O   UNL     1       0.308  -9.000  -6.215  0.00  0.00    -0.505 OA
ATOM     23  H   UNL     1       1.128  -9.027  -6.726  0.00  0.00    +0.292 HD
ENDBRANCH  18  22
ENDBRANCH  14  15
ENDBRANCH   1  13
TORSDOF 5
