REMARK  Name = ZINC35303095
REMARK  7 active torsions:
REMARK  status: ('A' for Active; 'I' for Inactive)
REMARK    1  A    between atoms: C_1  and  C_2
REMARK    2  A    between atoms: C_2  and  N_3
REMARK    3  A    between atoms: N_6  and  C_7
REMARK    4  A    between atoms: C_7  and  C_9
REMARK    5  A    between atoms: C_7  and  C_16
REMARK    6  A    between atoms: C_9  and  C_10
REMARK    7  A    between atoms: C_22  and  C_24
REMARK                            x       y       z     vdW  Elec       q    Type
REMARK                         _______ _______ _______ _____ _____    ______ ____
ROOT
ATOM      1  C   UNL     1       1.838  -3.964   4.181  0.00  0.00    +0.239 C 
ATOM      2  O   UNL     1       1.834  -3.041   4.968  0.00  0.00    -0.273 OA
ATOM      3  N   UNL     1       2.000  -5.226   4.625  0.00  0.00    -0.262 N 
ATOM      4  C   UNL     1       2.163  -5.470   5.983  0.00  0.00    +0.188 A 
ATOM      5  N   UNL     1       2.184  -4.624   7.005  0.00  0.00    -0.125 NA
ATOM      6  N   UNL     1       2.343  -5.016   8.193  0.00  0.00    -0.140 NA
ATOM      7  C   UNL     1       2.499  -6.300   8.492  0.00  0.00    +0.134 A 
ATOM      8  S   UNL     1       2.395  -7.017   6.855  0.00  0.00    -0.030 S 
ATOM      9  H   UNL     1       2.003  -5.965   3.996  0.00  0.00    +0.157 HD
ENDROOT
BRANCH   7  10
ATOM     10  C   UNL     1       2.696  -6.952   9.804  0.00  0.00    +0.013 A 
ATOM     11  C   UNL     1       2.845  -8.338   9.881  0.00  0.00    +0.014 A 
ATOM     12  C   UNL     1       3.029  -8.945  11.105  0.00  0.00    +0.050 A 
ATOM     13  C   UNL     1       3.067  -8.182  12.264  0.00  0.00    +0.166 A 
ATOM     14  C   UNL     1       2.919  -6.798  12.194  0.00  0.00    +0.167 A 
ATOM     15  C   UNL     1       2.739  -6.183  10.968  0.00  0.00    +0.060 A 
ATOM     16  O   UNL     1       2.993  -6.287  13.457  0.00  0.00    -0.453 OA
ATOM     17  C   UNL     1       2.778  -7.406  14.338  0.00  0.00    +0.466 C 
ATOM     18  O   UNL     1       3.235  -8.536  13.572  0.00  0.00    -0.453 OA
ENDBRANCH   7  10
BRANCH   1  19
ATOM     19  C   UNL     1       1.661  -3.700   2.708  0.00  0.00    +0.165 C 
BRANCH  19  23
ATOM     20  N   UNL     1       0.711  -0.489   1.189  0.00  0.00    -0.300 N 
ATOM     21  C   UNL     1       0.854  -1.814   1.394  0.00  0.00    +0.300 C 
ATOM     22  O   UNL     1       0.395  -2.606   0.593  0.00  0.00    -0.253 OA
ATOM     23  N   UNL     1       1.506  -2.260   2.486  0.00  0.00    -0.288 N 
ATOM     24  H   UNL     1       1.077   0.142   1.827  0.00  0.00    +0.150 HD
ATOM     25  H   UNL     1       1.872  -1.628   3.124  0.00  0.00    +0.151 HD
BRANCH  20  27
ATOM     26  C   UNL     1      -0.019   1.526   0.010  0.00  0.00    +0.024 C 
ATOM     27  C   UNL     1       0.002  -0.004   0.002  0.00  0.00    +0.102 C 
ENDBRANCH  20  27
ENDBRANCH  19  23
BRANCH  19  28
ATOM     28  C   UNL     1       2.890  -4.203   1.949  0.00  0.00    +0.067 C 
BRANCH  28  29
ATOM     29  C   UNL     1       2.662  -4.051   0.467  0.00  0.00    -0.045 A 
ATOM     30  C   UNL     1       2.078  -5.078  -0.251  0.00  0.00    +0.004 A 
ATOM     31  C   UNL     1       1.869  -4.939  -1.611  0.00  0.00    +0.000 A 
ATOM     32  C   UNL     1       2.244  -3.773  -2.252  0.00  0.00    +0.000 A 
ATOM     33  C   UNL     1       2.827  -2.746  -1.533  0.00  0.00    +0.000 A 
ATOM     34  C   UNL     1       3.032  -2.884  -0.173  0.00  0.00    +0.004 A 
ENDBRANCH  28  29
ENDBRANCH  19  28
ENDBRANCH   1  19
TORSDOF 6
