REMARK  Name = ZINC39886066
REMARK  13 active torsions:
REMARK  status: ('A' for Active; 'I' for Inactive)
REMARK    1  A    between atoms: C_1  and  C_2
REMARK    2  A    between atoms: C_2  and  O_3
REMARK    3  A    between atoms: O_3  and  C_4
REMARK    4  A    between atoms: C_4  and  C_6
REMARK    5  A    between atoms: C_9  and  N_12
REMARK    6  A    between atoms: C_13  and  C_15
REMARK    7  A    between atoms: C_15  and  S_16
REMARK    8  A    between atoms: S_16  and  C_17
REMARK    9  A    between atoms: N_22  and  C_25
REMARK   10  A    between atoms: C_28  and  C_31
REMARK   11  A    between atoms: C_31  and  O_33
REMARK   12  A    between atoms: O_33  and  C_34
REMARK   13  A    between atoms: C_34  and  C_35
REMARK                            x       y       z     vdW  Elec       q    Type
REMARK                         _______ _______ _______ _____ _____    ______ ____
ROOT
ATOM      1  C   UNL     1       5.399  -8.081  -8.511  0.00  0.00    +0.142 C 
ATOM      2  C   UNL     1       5.494  -9.620  -8.532  0.00  0.00    +0.120 C 
ATOM      3  C   UNL     1       6.979  -9.885  -8.409  0.00  0.00    +0.228 C 
ATOM      4  O   UNL     1       7.497 -10.981  -8.386  0.00  0.00    -0.275 OA
ATOM      5  N   UNL     1       7.630  -8.718  -8.332  0.00  0.00    -0.209 N 
ATOM      6  C   UNL     1       6.839  -7.635  -8.381  0.00  0.00    +0.240 C 
ATOM      7  O   UNL     1       7.215  -6.484  -8.329  0.00  0.00    -0.274 OA
ENDROOT
BRANCH   5   8
ATOM      8  C   UNL     1       9.020  -8.633  -8.210  0.00  0.00    +0.044 A 
ATOM      9  C   UNL     1       9.833  -9.030  -9.267  0.00  0.00    +0.025 A 
ATOM     10  C   UNL     1      11.203  -8.948  -9.151  0.00  0.00    +0.017 A 
ATOM     11  C   UNL     1      11.775  -8.466  -7.971  0.00  0.00    +0.059 A 
ATOM     12  C   UNL     1      10.954  -8.069  -6.911  0.00  0.00    +0.017 A 
ATOM     13  C   UNL     1       9.585  -8.148  -7.037  0.00  0.00    +0.025 A 
BRANCH  11  14
ATOM     14  C   UNL     1      13.242  -8.378  -7.842  0.00  0.00    +0.339 C 
ATOM     15  O   UNL     1      13.954  -8.725  -8.764  0.00  0.00    -0.245 OA
BRANCH  14  16
ATOM     16  O   UNL     1      13.792  -7.913  -6.704  0.00  0.00    -0.461 OA
BRANCH  16  17
ATOM     17  C   UNL     1      15.219  -7.855  -6.649  0.00  0.00    +0.229 C 
ATOM     18  C   UNL     1      15.655  -7.305  -5.289  0.00  0.00    +0.048 C 
ENDBRANCH  16  17
ENDBRANCH  14  16
ENDBRANCH  11  14
ENDBRANCH   5   8
BRANCH   1  19
ATOM     19  S   UNL     1       4.426  -7.521  -7.087  0.00  0.00    -0.138 S 
BRANCH  19  20
ATOM     20  C   UNL     1       4.356  -5.719  -7.284  0.00  0.00    +0.165 C 
BRANCH  20  22
ATOM     21  N   UNL     1       3.379  -3.786  -6.089  0.00  0.00    -0.285 N 
ATOM     22  C   UNL     1       3.564  -5.120  -6.151  0.00  0.00    +0.227 C 
ATOM     23  O   UNL     1       3.094  -5.838  -5.294  0.00  0.00    -0.275 OA
ATOM     24  H   UNL     1       3.691  -3.219  -6.812  0.00  0.00    +0.155 HD
BRANCH  21  28
ATOM     25  C   UNL     1       1.470  -2.098  -2.794  0.00  0.00    +0.059 A 
ATOM     26  C   UNL     1       2.271  -3.233  -2.634  0.00  0.00    +0.017 A 
ATOM     27  C   UNL     1       2.900  -3.789  -3.726  0.00  0.00    +0.024 A 
ATOM     28  C   UNL     1       2.740  -3.221  -4.986  0.00  0.00    +0.033 A 
ATOM     29  C   UNL     1       1.945  -2.091  -5.149  0.00  0.00    +0.024 A 
ATOM     30  C   UNL     1       1.308  -1.534  -4.063  0.00  0.00    +0.017 A 
BRANCH  25  31
ATOM     31  C   UNL     1       0.794  -1.501  -1.627  0.00  0.00    +0.339 C 
ATOM     32  O   UNL     1       0.095  -0.517  -1.768  0.00  0.00    -0.245 OA
BRANCH  31  33
ATOM     33  O   UNL     1       0.953  -2.045  -0.405  0.00  0.00    -0.461 OA
BRANCH  33  35
ATOM     34  C   UNL     1       0.566  -2.168   1.977  0.00  0.00    +0.048 C 
ATOM     35  C   UNL     1       0.269  -1.415   0.680  0.00  0.00    +0.229 C 
ENDBRANCH  33  35
ENDBRANCH  31  33
ENDBRANCH  25  31
ENDBRANCH  21  28
ENDBRANCH  20  22
ENDBRANCH  19  20
ENDBRANCH   1  19
TORSDOF 11
