REMARK  Name = ZINC39922939
REMARK  6 active torsions:
REMARK  status: ('A' for Active; 'I' for Inactive)
REMARK    1  A    between atoms: C_1  and  C_2
REMARK    2  A    between atoms: C_2  and  C_21
REMARK    3  A    between atoms: N_3  and  N_4
REMARK    4  A    between atoms: C_5  and  C_7
REMARK    5  A    between atoms: C_10  and  C_13
REMARK    6  A    between atoms: C_24  and  N_27
REMARK                            x       y       z     vdW  Elec       q    Type
REMARK                         _______ _______ _______ _____ _____    ______ ____
ROOT
ATOM      1  N   UNL     1      -1.133  -1.356   1.628  0.00  0.00    -0.205 N 
ATOM      2  C   UNL     1      -1.718  -1.546   2.827  0.00  0.00    +0.263 C 
ATOM      3  O   UNL     1      -1.659  -0.680   3.675  0.00  0.00    -0.271 OA
ATOM      4  H   UNL     1      -1.180  -2.049   0.950  0.00  0.00    +0.177 HD
ENDROOT
BRANCH   2   5
ATOM      5  C   UNL     1      -2.444  -2.835   3.115  0.00  0.00    +0.240 C 
ATOM      6  C   UNL     1      -1.467  -3.918   3.537  0.00  0.00    +0.041 C 
ATOM      7  C   UNL     1      -1.855  -4.234   4.787  0.00  0.00    +0.093 C 
ATOM      8  N   UNL     1      -2.926  -3.483   5.156  0.00  0.00    -0.153 NA
ATOM      9  N   UNL     1      -3.316  -2.688   4.293  0.00  0.00    -0.170 NA
BRANCH   7  10
ATOM     10  C   UNL     1      -1.205  -5.258   5.642  0.00  0.00    +0.020 A 
ATOM     11  C   UNL     1      -0.211  -6.080   5.115  0.00  0.00    +0.013 A 
ATOM     12  C   UNL     1       0.390  -7.031   5.913  0.00  0.00    +0.021 A 
ATOM     13  C   UNL     1       0.008  -7.169   7.237  0.00  0.00    +0.042 A 
ATOM     14  C   UNL     1      -0.978  -6.356   7.767  0.00  0.00    +0.040 A 
ATOM     15  C   UNL     1      -1.582  -5.396   6.977  0.00  0.00    +0.052 A 
ATOM     16 CL   UNL     1      -2.814  -4.370   7.644  0.00  0.00    -0.083 Cl
ATOM     17 CL   UNL     1       0.769  -8.368   8.236  0.00  0.00    -0.083 Cl
ENDBRANCH   7  10
ENDBRANCH   2   5
BRANCH   1  20
ATOM     18  C   UNL     1       0.855   1.290  -0.086  0.00  0.00    +0.068 C 
ATOM     19  C   UNL     1      -0.003   0.078   0.168  0.00  0.00    +0.063 C 
ATOM     20  N   UNL     1      -0.458  -0.158   1.360  0.00  0.00    -0.184 NA
BRANCH  19  21
ATOM     21  C   UNL     1      -0.327  -0.841  -0.940  0.00  0.00    -0.002 A 
ATOM     22  C   UNL     1      -1.570  -1.476  -0.984  0.00  0.00    +0.012 A 
ATOM     23  C   UNL     1      -1.867  -2.334  -2.023  0.00  0.00    +0.033 A 
ATOM     24  C   UNL     1      -0.935  -2.565  -3.020  0.00  0.00    +0.126 A 
ATOM     25  C   UNL     1       0.298  -1.939  -2.983  0.00  0.00    +0.033 A 
ATOM     26  C   UNL     1       0.606  -1.075  -1.953  0.00  0.00    +0.012 A 
BRANCH  24  27
ATOM     27  N   UNL     1      -1.260  -3.487  -4.132  0.00  0.00    +0.056 N 
ATOM     28  O   UNL     1      -2.337  -4.036  -4.167  0.00  0.00    -0.126 OA
ATOM     29  O   UNL     1      -0.449  -3.691  -5.005  0.00  0.00    -0.126 OA
ENDBRANCH  24  27
ENDBRANCH  19  21
ENDBRANCH   1  20
TORSDOF 5
