REMARK  Name = ZINC20905877
REMARK  11 active torsions:
REMARK  status: ('A' for Active; 'I' for Inactive)
REMARK    1  A    between atoms: C_1  and  O_2
REMARK    2  A    between atoms: O_2  and  C_3
REMARK    3  A    between atoms: C_3  and  C_5
REMARK    4  A    between atoms: C_8  and  C_11
REMARK    5  A    between atoms: N_12  and  N_13
REMARK    6  A    between atoms: C_16  and  S_19
REMARK    7  A    between atoms: S_19  and  C_20
REMARK    8  A    between atoms: C_20  and  C_21
REMARK    9  A    between atoms: C_27  and  S_29
REMARK   10  A    between atoms: S_29  and  C_30
REMARK   11  A    between atoms: C_30  and  C_31
REMARK                            x       y       z     vdW  Elec       q    Type
REMARK                         _______ _______ _______ _____ _____    ______ ____
ROOT
ATOM      1  N   UNL     1      -6.238   5.982   0.066  0.00  0.00    -0.205 N 
ATOM      2  C   UNL     1      -6.257   7.370   0.074  0.00  0.00    +0.232 A 
ATOM      3  N   UNL     1      -7.371   8.169   0.083  0.00  0.00    -0.186 NA
ATOM      4  C   UNL     1      -6.902   9.456   0.089  0.00  0.00    +0.211 A 
ATOM      5  N   UNL     1      -5.593   9.390   0.083  0.00  0.00    -0.144 NA
ATOM      6  N   UNL     1      -5.214   8.162   0.079  0.00  0.00    -0.245 N 
ATOM      7  H   UNL     1      -7.183   5.420   0.067  0.00  0.00    +0.177 HD
ATOM      8  H   UNL     1      -4.200   7.736   0.080  0.00  0.00    +0.192 HD
ENDROOT
BRANCH   1  10
ATOM      9  C   UNL     1      -4.998   3.999   0.048  0.00  0.00    +0.138 C 
ATOM     10  N   UNL     1      -5.016   5.299   0.056  0.00  0.00    -0.188 NA
BRANCH   9  14
ATOM     11  C   UNL     1      -1.301   1.931   0.019  0.00  0.00    +0.059 A 
ATOM     12  C   UNL     1      -1.320   3.329   0.032  0.00  0.00    +0.015 A 
ATOM     13  C   UNL     1      -2.511   3.996   0.037  0.00  0.00    +0.010 A 
ATOM     14  C   UNL     1      -3.714   3.280   0.038  0.00  0.00    -0.005 A 
ATOM     15  C   UNL     1      -3.695   1.881   0.030  0.00  0.00    +0.010 A 
ATOM     16  C   UNL     1      -2.503   1.215   0.021  0.00  0.00    +0.015 A 
BRANCH  11  17
ATOM     17  C   UNL     1      -0.014   1.211   0.009  0.00  0.00    +0.339 C 
ATOM     18  O   UNL     1       0.002  -0.004   0.002  0.00  0.00    -0.245 OA
BRANCH  17  20
ATOM     19  C   UNL     1       2.372   1.127  -0.015  0.00  0.00    +0.280 C 
ATOM     20  O   UNL     1       1.143   1.901   0.001  0.00  0.00    -0.464 OA
ENDBRANCH  17  20
ENDBRANCH  11  17
ENDBRANCH   9  14
ENDBRANCH   1  10
BRANCH   4  21
ATOM     21  S   UNL     1      -7.875  10.925   0.102  0.00  0.00    -0.075 S 
BRANCH  21  22
ATOM     22  C   UNL     1      -6.563  12.171   0.104  0.00  0.00    +0.173 C 
BRANCH  22  23
ATOM     23  C   UNL     1      -7.178  13.547   0.115  0.00  0.00    +0.229 C 
ATOM     24  O   UNL     1      -8.384  13.673   0.121  0.00  0.00    -0.275 OA
ATOM     25  N   UNL     1      -6.387  14.639   0.118  0.00  0.00    -0.263 N 
ATOM     26  C   UNL     1      -6.955  15.910   0.129  0.00  0.00    +0.189 A 
ATOM     27  N   UNL     1      -8.227  16.273   0.137  0.00  0.00    -0.125 NA
ATOM     28  N   UNL     1      -8.576  17.485   0.146  0.00  0.00    -0.133 NA
ATOM     29  C   UNL     1      -7.689  18.470   0.148  0.00  0.00    +0.160 A 
ATOM     30  S   UNL     1      -6.171  17.520   0.142  0.00  0.00    -0.024 S 
ATOM     31  H   UNL     1      -5.293  14.525   0.113  0.00  0.00    +0.157 HD
BRANCH  29  32
ATOM     32  S   UNL     1      -7.934  20.215   0.161  0.00  0.00    -0.093 S 
BRANCH  32  33
ATOM     33  C   UNL     1      -9.738  20.405   0.171  0.00  0.00    +0.103 C 
BRANCH  33  34
ATOM     34  C   UNL     1     -10.089  21.870   0.182  0.00  0.00    -0.023 C 
ATOM     35  C   UNL     1     -10.712  22.403  -0.840  0.00  0.00    +0.005 C 
ENDBRANCH  33  34
ENDBRANCH  32  33
ENDBRANCH  29  32
ENDBRANCH  22  23
ENDBRANCH  21  22
ENDBRANCH   4  21
TORSDOF 10
