REMARK  Name = ZINC41593303
REMARK  11 active torsions:
REMARK  status: ('A' for Active; 'I' for Inactive)
REMARK    1  A    between atoms: C_1  and  C_2
REMARK    2  A    between atoms: C_5  and  N_27
REMARK    3  A    between atoms: C_7  and  N_8
REMARK    4  A    between atoms: C_9  and  C_11
REMARK    5  A    between atoms: N_13  and  C_14
REMARK    6  A    between atoms: C_14  and  C_15
REMARK    7  A    between atoms: C_15  and  C_17
REMARK    8  A    between atoms: C_15  and  N_20
REMARK    9  A    between atoms: C_17  and  C_18
REMARK   10  A    between atoms: C_17  and  C_19
REMARK   11  A    between atoms: C_23  and  C_26
REMARK                            x       y       z     vdW  Elec       q    Type
REMARK                         _______ _______ _______ _____ _____    ______ ____
ROOT
ATOM      1  C   UNL     1       0.677  -0.696   4.946  0.00  0.00    +0.299 C 
ATOM      2  O   UNL     1       0.728   0.496   4.724  0.00  0.00    -0.265 OA
ATOM      3  N   UNL     1       0.341  -1.138   6.174  0.00  0.00    -0.309 N 
ATOM      4  H   UNL     1       0.300  -2.091   6.352  0.00  0.00    +0.149 HD
ENDROOT
BRANCH   1   6
ATOM      5  N   UNL     1       1.323  -1.230   2.632  0.00  0.00    -0.277 N 
ATOM      6  C   UNL     1       0.987  -1.672   3.860  0.00  0.00    +0.303 C 
ATOM      7  O   UNL     1       0.936  -2.864   4.083  0.00  0.00    -0.265 OA
ATOM      8  H   UNL     1       1.437  -0.280   2.473  0.00  0.00    +0.155 HD
BRANCH   5  15
ATOM      9  C   UNL     1       0.604  -0.420   0.001  0.00  0.00    +0.045 C 
ATOM     10  C   UNL     1       1.171  -1.786   0.288  0.00  0.00    -0.029 A 
ATOM     11  C   UNL     1       1.360  -2.686  -0.743  0.00  0.00    +0.007 A 
ATOM     12  C   UNL     1       1.880  -3.940  -0.480  0.00  0.00    +0.033 A 
ATOM     13  C   UNL     1       2.212  -4.298   0.814  0.00  0.00    +0.128 A 
ATOM     14  C   UNL     1       2.025  -3.404   1.849  0.00  0.00    +0.056 A 
ATOM     15  C   UNL     1       1.508  -2.140   1.588  0.00  0.00    +0.039 A 
BRANCH  13  16
ATOM     16  N   UNL     1       2.768  -5.642   1.090  0.00  0.00    +0.056 N 
ATOM     17  O   UNL     1       2.932  -6.426   0.184  0.00  0.00    -0.126 OA
ATOM     18  O   UNL     1       3.058  -5.955   2.221  0.00  0.00    -0.126 OA
ENDBRANCH  13  16
ENDBRANCH   5  15
ENDBRANCH   1   6
BRANCH   3  19
ATOM     19  C   UNL     1       0.036  -0.180   7.240  0.00  0.00    +0.089 C 
BRANCH  19  20
ATOM     20  C   UNL     1      -0.475  -0.931   8.471  0.00  0.00    -0.049 C 
BRANCH  20  21
ATOM     21  N   UNL     1      -1.855  -1.376   8.234  0.00  0.00    +0.383 N 
ATOM     22  C   UNL     1      -1.898  -2.216   7.032  0.00  0.00    -0.078 C 
ATOM     23  C   UNL     1      -3.345  -2.615   6.735  0.00  0.00    -0.016 C 
ATOM     24  C   UNL     1      -3.908  -3.396   7.926  0.00  0.00    -0.018 C 
ATOM     25  C   UNL     1      -3.790  -2.538   9.188  0.00  0.00    -0.016 C 
ATOM     26  C   UNL     1      -2.327  -2.142   9.394  0.00  0.00    -0.078 C 
ATOM     27  C   UNL     1      -5.379  -3.730   7.669  0.00  0.00    +0.007 C 
ATOM     28  H   UNL     1      -2.449  -0.571   8.101  0.00  0.00    -0.081 HD
ENDBRANCH  20  21
BRANCH  20  29
ATOM     29  C   UNL     1      -0.439  -0.003   9.686  0.00  0.00    -0.029 C 
ATOM     30  C   UNL     1      -1.762   0.760   9.784  0.00  0.00    +0.005 C 
ATOM     31  C   UNL     1      -0.235  -0.833  10.956  0.00  0.00    +0.005 C 
ENDBRANCH  20  29
ENDBRANCH  19  20
ENDBRANCH   3  19
TORSDOF 7
