REMARK  Name = ZINC39599101
REMARK  10 active torsions:
REMARK  status: ('A' for Active; 'I' for Inactive)
REMARK    1  A    between atoms: C_1  and  C_2
REMARK    2  A    between atoms: C_2  and  C_4
REMARK    3  A    between atoms: C_2  and  O_33
REMARK    4  A    between atoms: C_8  and  C_17
REMARK    5  A    between atoms: N_19  and  C_20
REMARK    6  A    between atoms: C_20  and  C_21
REMARK    7  A    between atoms: C_21  and  C_22
REMARK    8  A    between atoms: C_25  and  O_31
REMARK    9  A    between atoms: O_31  and  C_32
REMARK   10  A    between atoms: O_33  and  C_34
REMARK                            x       y       z     vdW  Elec       q    Type
REMARK                         _______ _______ _______ _____ _____    ______ ____
ROOT
ATOM      1  C   UNL     1      -1.884  -0.349   0.102  0.00  0.00    +0.256 C 
ATOM      2  O   UNL     1      -2.428  -0.814   1.081  0.00  0.00    -0.272 OA
ATOM      3  N   UNL     1      -2.607  -0.061  -0.998  0.00  0.00    -0.297 N 
ATOM      4  C   UNL     1      -2.124   0.501  -2.281  0.00  0.00    +0.121 C 
ATOM      5  C   UNL     1      -2.926  -0.255  -3.365  0.00  0.00    +0.100 C 
ATOM      6  C   UNL     1      -4.200  -0.733  -2.648  0.00  0.00    -0.004 C 
ATOM      7  C   UNL     1      -4.065  -0.240  -1.200  0.00  0.00    +0.115 C 
ATOM      8  C   UNL     1      -4.281  -2.256  -2.675  0.00  0.00    -0.010 C 
ATOM      9  C   UNL     1      -5.584  -2.705  -2.007  0.00  0.00    -0.082 C 
ATOM     10  N   UNL     1      -6.727  -2.121  -2.718  0.00  0.00    +0.379 N 
ATOM     11  C   UNL     1      -6.692  -0.658  -2.608  0.00  0.00    -0.082 C 
ATOM     12  C   UNL     1      -5.436  -0.122  -3.302  0.00  0.00    -0.010 C 
ATOM     13  H   UNL     1      -6.687  -2.385  -3.691  0.00  0.00    -0.086 HD
ATOM     14  H   UNL     1      -7.585  -2.466  -2.314  0.00  0.00    -0.086 HD
ENDROOT
BRANCH   5  15
ATOM     15  C   UNL     1      -2.136  -1.431  -3.877  0.00  0.00    +0.218 C 
ATOM     16  O   UNL     1      -1.354  -2.001  -3.147  0.00  0.00    -0.275 OA
ATOM     17  N   UNL     1      -2.300  -1.851  -5.148  0.00  0.00    -0.315 N 
ATOM     18  H   UNL     1      -2.926  -1.395  -5.732  0.00  0.00    +0.149 HD
BRANCH  17  19
ATOM     19  C   UNL     1      -1.532  -2.994  -5.646  0.00  0.00    +0.109 C 
BRANCH  19  20
ATOM     20  C   UNL     1      -1.904  -3.261  -7.106  0.00  0.00    +0.056 C 
BRANCH  20  21
ATOM     21  C   UNL     1      -1.114  -4.437  -7.619  0.00  0.00    -0.021 A 
ATOM     22  C   UNL     1      -1.466  -5.852  -7.474  0.00  0.00    +0.006 A 
ATOM     23  C   UNL     1      -2.533  -6.530  -6.880  0.00  0.00    +0.056 A 
ATOM     24  C   UNL     1      -2.570  -7.909  -6.919  0.00  0.00    +0.121 A 
ATOM     25  C   UNL     1      -1.552  -8.622  -7.545  0.00  0.00    +0.047 A 
ATOM     26  C   UNL     1      -0.494  -7.964  -8.134  0.00  0.00    +0.030 A 
ATOM     27  C   UNL     1      -0.438  -6.575  -8.107  0.00  0.00    +0.047 A 
ATOM     28  N   UNL     1       0.465  -5.654  -8.595  0.00  0.00    -0.360 N 
ATOM     29  C   UNL     1       0.042  -4.387  -8.300  0.00  0.00    +0.087 A 
ATOM     30  H   UNL     1       1.277  -5.872  -9.079  0.00  0.00    +0.165 HD
BRANCH  24  31
ATOM     31  O   UNL     1      -3.606  -8.575  -6.341  0.00  0.00    -0.495 OA
ATOM     32  C   UNL     1      -3.584 -10.001  -6.417  0.00  0.00    +0.277 C 
ENDBRANCH  24  31
ENDBRANCH  20  21
ENDBRANCH  19  20
ENDBRANCH  17  19
ENDBRANCH   5  15
BRANCH   1  34
ATOM     33  C   UNL     1      -0.139   1.410   0.004  0.00  0.00    +0.062 C 
ATOM     34  C   UNL     1      -0.399  -0.094   0.116  0.00  0.00    +0.256 C 
BRANCH  34  35
ATOM     35  O   UNL     1       0.158  -0.584   1.337  0.00  0.00    -0.480 OA
BRANCH  35  36
ATOM     36  C   UNL     1       1.474  -0.925   1.323  0.00  0.00    +0.122 A 
ATOM     37  C   UNL     1       2.051  -1.514   2.438  0.00  0.00    +0.045 A 
ATOM     38  C   UNL     1       3.388  -1.859   2.421  0.00  0.00    +0.004 A 
ATOM     39  C   UNL     1       4.151  -1.619   1.293  0.00  0.00    +0.000 A 
ATOM     40  C   UNL     1       3.578  -1.031   0.180  0.00  0.00    +0.004 A 
ATOM     41  C   UNL     1       2.240  -0.689   0.190  0.00  0.00    +0.045 A 
ENDBRANCH  35  36
ENDBRANCH  34  35
ENDBRANCH   1  34
TORSDOF 8
