REMARK  Name = ZINC67507488
REMARK  9 active torsions:
REMARK  status: ('A' for Active; 'I' for Inactive)
REMARK    1  A    between atoms: C_1  and  C_2
REMARK    2  A    between atoms: C_5  and  C_8
REMARK    3  A    between atoms: C_8  and  C_10
REMARK    4  A    between atoms: C_8  and  N_25
REMARK    5  A    between atoms: C_10  and  N_11
REMARK    6  A    between atoms: N_14  and  C_15
REMARK    7  A    between atoms: C_15  and  C_16
REMARK    8  A    between atoms: N_25  and  C_26
REMARK    9  A    between atoms: N_25  and  C_27
REMARK                            x       y       z     vdW  Elec       q    Type
REMARK                         _______ _______ _______ _____ _____    ______ ____
ROOT
ATOM      1  N   UNL     1       0.774  -6.390   0.509  0.00  0.00    -0.301 N 
ATOM      2  C   UNL     1       1.768  -7.243   0.827  0.00  0.00    +0.300 C 
ATOM      3  O   UNL     1       2.916  -6.844   0.883  0.00  0.00    -0.253 OA
ATOM      4  N   UNL     1       1.491  -8.537   1.083  0.00  0.00    -0.295 N 
ATOM      5  H   UNL     1      -0.142  -6.708   0.465  0.00  0.00    +0.150 HD
ATOM      6  H   UNL     1       0.576  -8.854   1.038  0.00  0.00    +0.151 HD
ENDROOT
BRANCH   1   7
ATOM      7  C   UNL     1       1.075  -4.984   0.231  0.00  0.00    +0.095 C 
BRANCH   7   8
ATOM      8  C   UNL     1      -0.229  -4.220  -0.007  0.00  0.00    -0.021 C 
BRANCH   8  13
ATOM      9  C   UNL     1      -2.812  -6.249  -4.761  0.00  0.00    +0.044 C 
ATOM     10  C   UNL     1      -2.139  -5.720  -3.521  0.00  0.00    -0.050 A 
ATOM     11  C   UNL     1      -2.566  -6.132  -2.273  0.00  0.00    +0.003 A 
ATOM     12  C   UNL     1      -1.948  -5.647  -1.136  0.00  0.00    +0.002 A 
ATOM     13  C   UNL     1      -0.902  -4.750  -1.247  0.00  0.00    -0.059 A 
ATOM     14  C   UNL     1      -0.474  -4.338  -2.495  0.00  0.00    +0.002 A 
ATOM     15  C   UNL     1      -1.089  -4.827  -3.632  0.00  0.00    +0.003 A 
ENDBRANCH   8  13
BRANCH   8  16
ATOM     16  N   UNL     1       0.065  -2.792  -0.182  0.00  0.00    +0.382 N 
ATOM     17  C   UNL     1      -1.182  -2.065  -0.455  0.00  0.00    -0.096 C 
ATOM     18  C   UNL     1       0.680  -2.265   1.044  0.00  0.00    -0.096 C 
ATOM     19  H   UNL     1       0.701  -2.671  -0.956  0.00  0.00    -0.082 HD
ENDBRANCH   8  16
ENDBRANCH   7   8
ENDBRANCH   1   7
BRANCH   4  20
ATOM     20  C   UNL     1       2.572  -9.463   1.429  0.00  0.00    +0.141 C 
BRANCH  20  21
ATOM     21  C   UNL     1       2.000 -10.837   1.665  0.00  0.00    -0.027 A 
ATOM     22  C   UNL     1       1.585 -11.203   2.932  0.00  0.00    +0.009 A 
ATOM     23  C   UNL     1       1.059 -12.462   3.154  0.00  0.00    +0.050 A 
ATOM     24  C   UNL     1       0.946 -13.361   2.106  0.00  0.00    +0.166 A 
ATOM     25  C   UNL     1       1.364 -12.992   0.829  0.00  0.00    +0.167 A 
ATOM     26  C   UNL     1       1.885 -11.727   0.613  0.00  0.00    +0.054 A 
ATOM     27  O   UNL     1       1.151 -14.040  -0.019  0.00  0.00    -0.453 OA
ATOM     28  C   UNL     1       0.980 -15.192   0.828  0.00  0.00    +0.466 C 
ATOM     29  O   UNL     1       0.472 -14.640   2.057  0.00  0.00    -0.453 OA
ENDBRANCH  20  21
ENDBRANCH   4  20
TORSDOF 6
