REMARK  Name = ZINC64696964
REMARK  6 active torsions:
REMARK  status: ('A' for Active; 'I' for Inactive)
REMARK    1  A    between atoms: C_1  and  C_2
REMARK    2  A    between atoms: C_2  and  C_3
REMARK    3  A    between atoms: C_2  and  C_4
REMARK    4  A    between atoms: C_8  and  C_9
REMARK    5  A    between atoms: N_11  and  C_12
REMARK    6  A    between atoms: C_14  and  N_19
REMARK                            x       y       z     vdW  Elec       q    Type
REMARK                         _______ _______ _______ _____ _____    ______ ____
ROOT
ATOM      1  C   UNL     1      -1.236  -1.813  -2.212  0.00  0.00    +0.255 C 
ATOM      2  O   UNL     1      -0.078  -1.507  -2.428  0.00  0.00    -0.269 OA
ATOM      3  N   UNL     1      -1.904  -2.586  -3.091  0.00  0.00    -0.279 N 
ATOM      4  H   UNL     1      -2.805  -2.883  -2.888  0.00  0.00    +0.155 HD
ENDROOT
BRANCH   3   5
ATOM      5  C   UNL     1      -1.299  -2.958  -4.296  0.00  0.00    +0.071 A 
ATOM      6  C   UNL     1       0.067  -3.201  -4.343  0.00  0.00    +0.059 A 
ATOM      7  C   UNL     1       0.662  -3.570  -5.534  0.00  0.00    +0.128 A 
ATOM      8  C   UNL     1      -0.101  -3.696  -6.680  0.00  0.00    +0.035 A 
ATOM      9  C   UNL     1      -1.462  -3.456  -6.639  0.00  0.00    +0.042 A 
ATOM     10  C   UNL     1      -2.065  -3.092  -5.449  0.00  0.00    +0.145 A 
ATOM     11  F   UNL     1      -3.396  -2.862  -5.407  0.00  0.00    -0.204 F 
BRANCH   7  12
ATOM     12  N   UNL     1       2.118  -3.828  -5.584  0.00  0.00    +0.056 N 
ATOM     13  O   UNL     1       2.786  -3.717  -4.582  0.00  0.00    -0.126 OA
ATOM     14  O   UNL     1       2.640  -4.151  -6.626  0.00  0.00    -0.126 OA
ENDBRANCH   7  12
ENDBRANCH   3   5
BRANCH   1  19
ATOM     15  C   UNL     1      -1.402  -0.547   0.025  0.00  0.00    -0.026 A 
ATOM     16  C   UNL     1      -2.278  -0.263   1.046  0.00  0.00    +0.012 A 
ATOM     17  C   UNL     1      -3.536  -0.767   0.994  0.00  0.00    +0.046 A 
ATOM     18  S   UNL     1      -3.571  -1.641  -0.440  0.00  0.00    -0.092 S 
ATOM     19  C   UNL     1      -1.903  -1.341  -0.995  0.00  0.00    +0.078 A 
BRANCH  15  21
ATOM     20  C   UNL     1      -0.011   1.505   0.033  0.00  0.00    +0.012 C 
ATOM     21  C   UNL     1       0.011  -0.024   0.013  0.00  0.00    +0.014 C 
ATOM     22  C   UNL     1       0.756  -0.539   1.246  0.00  0.00    +0.012 C 
ENDBRANCH  15  21
ENDBRANCH   1  19
TORSDOF 4
