REMARK  Name = ZINC13453473
REMARK  10 active torsions:
REMARK  status: ('A' for Active; 'I' for Inactive)
REMARK    1  A    between atoms: C_1  and  O_2
REMARK    2  A    between atoms: O_2  and  C_3
REMARK    3  A    between atoms: C_3  and  C_4
REMARK    4  A    between atoms: C_4  and  O_5
REMARK    5  A    between atoms: O_5  and  C_6
REMARK    6  A    between atoms: C_8  and  N_16
REMARK    7  A    between atoms: C_9  and  C_14
REMARK    8  A    between atoms: C_11  and  O_12
REMARK    9  A    between atoms: O_12  and  C_13
REMARK   10  A    between atoms: C_17  and  C_19
REMARK                            x       y       z     vdW  Elec       q    Type
REMARK                         _______ _______ _______ _____ _____    ______ ____
ROOT
ATOM      1  C   UNL     1      -1.492  -1.758   0.262  0.00  0.00    +0.164 A 
ATOM      2  C   UNL     1      -1.334  -0.383   0.200  0.00  0.00    +0.073 A 
ATOM      3  C   UNL     1      -0.072   0.165   0.036  0.00  0.00    +0.051 A 
ATOM      4  C   UNL     1       1.048  -0.676  -0.057  0.00  0.00    +0.088 A 
ATOM      5  C   UNL     1       0.881  -2.064   0.011  0.00  0.00    +0.066 A 
ATOM      6  C   UNL     1      -0.381  -2.598   0.170  0.00  0.00    +0.162 A 
ENDROOT
BRANCH   3   7
ATOM      7  N   UNL     1       0.086   1.549  -0.031  0.00  0.00    -0.284 N 
ATOM      8  C   UNL     1      -0.823   2.360   0.546  0.00  0.00    +0.224 C 
ATOM      9  O   UNL     1      -1.722   1.888   1.210  0.00  0.00    -0.275 OA
ATOM     10  H   UNL     1       0.848   1.928  -0.496  0.00  0.00    +0.155 HD
BRANCH   8  11
ATOM     11  C   UNL     1      -0.722   3.853   0.368  0.00  0.00    +0.117 C 
ATOM     12  C   UNL     1      -1.849   4.542   1.141  0.00  0.00    +0.055 C 
ATOM     13  C   UNL     1      -1.583   6.025   1.212  0.00  0.00    -0.004 A 
ATOM     14  C   UNL     1      -2.629   6.875   1.531  0.00  0.00    +0.027 A 
ATOM     15  C   UNL     1      -2.419   8.238   1.613  0.00  0.00    +0.041 A 
ATOM     16  C   UNL     1      -1.160   8.759   1.375  0.00  0.00    +0.023 A 
ATOM     17  C   UNL     1      -0.115   7.917   1.054  0.00  0.00    +0.047 A 
ATOM     18  C   UNL     1      -0.323   6.544   0.970  0.00  0.00    +0.124 A 
ATOM     19  O   UNL     1       0.729   5.747   0.647  0.00  0.00    -0.491 OA
ATOM     20  C   UNL     1       0.619   4.351   0.923  0.00  0.00    +0.242 C 
ATOM     21 CL   UNL     1      -3.735   9.296   2.015  0.00  0.00    -0.084 Cl
ENDBRANCH   8  11
ENDBRANCH   3   7
BRANCH   4  22
ATOM     22  C   UNL     1       2.392  -0.102  -0.226  0.00  0.00    +0.388 C 
ATOM     23  O   UNL     1       2.547   1.103  -0.190  0.00  0.00    -0.241 OA
ATOM     24  O   UNL     1       3.451  -0.912  -0.422  0.00  0.00    -0.241 OA
ENDBRANCH   4  22
BRANCH   6  25
ATOM     25  O   UNL     1      -0.543  -3.947   0.236  0.00  0.00    -0.491 OA
ATOM     26  C   UNL     1       0.635  -4.748   0.134  0.00  0.00    +0.277 C 
ENDBRANCH   6  25
BRANCH   1  27
ATOM     27  O   UNL     1      -2.731  -2.291   0.417  0.00  0.00    -0.486 OA
BRANCH  27  28
ATOM     28  C   UNL     1      -3.825  -1.375   0.505  0.00  0.00    +0.257 C 
BRANCH  28  29
ATOM     29  C   UNL     1      -5.130  -2.154   0.676  0.00  0.00    +0.200 C 
BRANCH  29  31
ATOM     30  C   UNL     1      -6.293  -3.605   2.188  0.00  0.00    +0.194 C 
ATOM     31  O   UNL     1      -5.113  -2.842   1.928  0.00  0.00    -0.380 OA
ENDBRANCH  29  31
ENDBRANCH  28  29
ENDBRANCH  27  28
ENDBRANCH   1  27
TORSDOF 8
