REMARK  Name = ZINC58227136
REMARK  5 active torsions:
REMARK  status: ('A' for Active; 'I' for Inactive)
REMARK    1  A    between atoms: C_1  and  C_2
REMARK    2  A    between atoms: C_2  and  C_4
REMARK    3  A    between atoms: C_2  and  N_16
REMARK    4  A    between atoms: C_8  and  C_10
REMARK    5  A    between atoms: C_17  and  C_19
REMARK                            x       y       z     vdW  Elec       q    Type
REMARK                         _______ _______ _______ _____ _____    ______ ____
ROOT
ATOM      1  C   UNL     1      -0.019   1.526   0.010  0.00  0.00    +0.036 C 
ATOM      2  C   UNL     1       0.002  -0.004   0.002  0.00  0.00    +0.134 C 
ENDROOT
BRANCH   2   3
ATOM      3  C   UNL     1      -1.412  -0.526   0.013  0.00  0.00    +0.105 A 
ATOM      4  N   UNL     1      -2.156  -0.797  -1.082  0.00  0.00    -0.348 N 
ATOM      5  H   UNL     1      -1.879  -0.692  -2.005  0.00  0.00    +0.167 HD
ATOM      6  C   UNL     1      -3.372  -1.247  -0.648  0.00  0.00    +0.110 A 
ATOM      7  C   UNL     1      -3.331  -1.236   0.710  0.00  0.00    +0.064 A 
ATOM      8  N   UNL     1      -2.112  -0.793   1.079  0.00  0.00    -0.342 N 
ATOM      9  H   UNL     1      -1.805  -0.689   1.994  0.00  0.00    +0.167 HD
BRANCH   7  10
ATOM     10  C   UNL     1      -4.428  -1.643   1.622  0.00  0.00    -0.000 A 
ATOM     11  C   UNL     1      -4.251  -1.576   3.002  0.00  0.00    +0.010 A 
ATOM     12  C   UNL     1      -5.274  -1.956   3.846  0.00  0.00    +0.001 A 
ATOM     13  C   UNL     1      -6.474  -2.405   3.324  0.00  0.00    +0.000 A 
ATOM     14  C   UNL     1      -6.655  -2.474   1.954  0.00  0.00    +0.001 A 
ATOM     15  C   UNL     1      -5.641  -2.090   1.101  0.00  0.00    +0.010 A 
ENDBRANCH   7  10
ENDBRANCH   2   3
BRANCH   2  16
ATOM     16  N   UNL     1       0.688  -0.476  -1.203  0.00  0.00    -0.299 N 
ATOM     17  C   UNL     1       2.031  -0.587  -1.215  0.00  0.00    +0.280 C 
ATOM     18  O   UNL     1       2.673  -0.295  -0.226  0.00  0.00    -0.267 OA
ATOM     19  H   UNL     1       0.175  -0.710  -1.993  0.00  0.00    +0.150 HD
BRANCH  17  20
ATOM     20  C   UNL     1       2.725  -1.065  -2.434  0.00  0.00    +0.193 A 
ATOM     21  C   UNL     1       4.076  -1.171  -2.413  0.00  0.00    +0.103 A 
ATOM     22  C   UNL     1       4.758  -1.630  -3.635  0.00  0.00    +0.193 A 
ATOM     23  O   UNL     1       5.930  -1.964  -3.634  0.00  0.00    -0.287 OA
ATOM     24  C   UNL     1       3.937  -1.662  -4.862  0.00  0.00    +0.064 A 
ATOM     25  C   UNL     1       4.512  -1.829  -6.120  0.00  0.00    +0.015 A 
ATOM     26  C   UNL     1       3.715  -1.846  -7.231  0.00  0.00    +0.001 A 
ATOM     27  C   UNL     1       2.340  -1.699  -7.110  0.00  0.00    +0.004 A 
ATOM     28  C   UNL     1       1.754  -1.537  -5.874  0.00  0.00    +0.047 A 
ATOM     29  C   UNL     1       2.545  -1.519  -4.729  0.00  0.00    +0.139 A 
ATOM     30  O   UNL     1       1.989  -1.380  -3.509  0.00  0.00    -0.450 OA
ENDBRANCH  17  20
ENDBRANCH   2  16
TORSDOF 4
