REMARK  Name = ZINC39688666
REMARK  8 active torsions:
REMARK  status: ('A' for Active; 'I' for Inactive)
REMARK    1  A    between atoms: C_1  and  C_2
REMARK    2  A    between atoms: C_2  and  C_4
REMARK    3  A    between atoms: C_2  and  N_12
REMARK    4  A    between atoms: C_4  and  C_5
REMARK    5  A    between atoms: C_13  and  C_15
REMARK    6  A    between atoms: C_26  and  C_28
REMARK    7  A    between atoms: C_33  and  O_34
REMARK    8  A    between atoms: O_34  and  C_35
REMARK                            x       y       z     vdW  Elec       q    Type
REMARK                         _______ _______ _______ _____ _____    ______ ____
ROOT
ATOM      1  C   UNL     1       1.175  -0.865   3.872  0.00  0.00    +0.100 C 
ATOM      2  C   UNL     1       1.420  -2.357   3.551  0.00  0.00    +0.121 C 
ATOM      3  N   UNL     1       1.132  -3.065   4.821  0.00  0.00    -0.296 N 
ATOM      4  C   UNL     1      -0.048  -2.361   5.376  0.00  0.00    +0.115 C 
ATOM      5  C   UNL     1       0.211  -0.872   5.070  0.00  0.00    -0.004 C 
ATOM      6  C   UNL     1      -1.095  -0.175   4.700  0.00  0.00    -0.010 C 
ATOM      7  C   UNL     1      -2.015  -0.142   5.924  0.00  0.00    -0.082 C 
ATOM      8  N   UNL     1      -1.349   0.571   7.021  0.00  0.00    +0.379 N 
ATOM      9  C   UNL     1      -0.143  -0.157   7.432  0.00  0.00    -0.082 C 
ATOM     10  C   UNL     1       0.856  -0.190   6.272  0.00  0.00    -0.010 C 
ATOM     11  C   UNL     1       1.794  -4.113   5.351  0.00  0.00    +0.252 C 
ATOM     12  O   UNL     1       1.377  -4.647   6.360  0.00  0.00    -0.270 OA
ATOM     13  H   UNL     1      -1.093   1.497   6.711  0.00  0.00    -0.086 HD
ATOM     14  H   UNL     1      -1.980   0.645   7.804  0.00  0.00    -0.086 HD
ENDROOT
BRANCH  11  15
ATOM     15  C   UNL     1       3.024  -4.611   4.706  0.00  0.00    +0.099 A 
ATOM     16  C   UNL     1       3.158  -4.587   3.313  0.00  0.00    +0.020 A 
ATOM     17  C   UNL     1       4.331  -5.066   2.757  0.00  0.00    +0.021 A 
ATOM     18  C   UNL     1       5.328  -5.549   3.586  0.00  0.00    +0.114 A 
ATOM     19  N   UNL     1       5.181  -5.562   4.896  0.00  0.00    -0.220 NA
ATOM     20  C   UNL     1       4.082  -5.112   5.479  0.00  0.00    +0.233 A 
BRANCH  20  21
ATOM     21  O   UNL     1       3.976  -5.139   6.828  0.00  0.00    -0.437 OA
BRANCH  21  22
ATOM     22  C   UNL     1       4.981  -5.719   7.536  0.00  0.00    +0.130 A 
ATOM     23  C   UNL     1       4.830  -7.007   8.030  0.00  0.00    +0.046 A 
ATOM     24  C   UNL     1       5.854  -7.595   8.748  0.00  0.00    +0.004 A 
ATOM     25  C   UNL     1       7.028  -6.901   8.974  0.00  0.00    +0.000 A 
ATOM     26  C   UNL     1       7.181  -5.617   8.483  0.00  0.00    +0.004 A 
ATOM     27  C   UNL     1       6.163  -5.027   7.760  0.00  0.00    +0.046 A 
ENDBRANCH  21  22
ENDBRANCH  20  21
ENDBRANCH  11  15
BRANCH   1  29
ATOM     28  N   UNL     1       0.726   1.151   2.512  0.00  0.00    -0.312 N 
ATOM     29  C   UNL     1       0.543  -0.172   2.693  0.00  0.00    +0.218 C 
ATOM     30  O   UNL     1      -0.130  -0.804   1.907  0.00  0.00    -0.275 OA
ATOM     31  H   UNL     1       1.264   1.657   3.141  0.00  0.00    +0.149 HD
BRANCH  28  33
ATOM     32  C   UNL     1      -1.325   2.220   1.716  0.00  0.00    +0.028 C 
ATOM     33  C   UNL     1       0.111   1.826   1.366  0.00  0.00    +0.074 C 
BRANCH  33  34
ATOM     34  C   UNL     1       0.915   3.081   1.021  0.00  0.00    +0.057 C 
BRANCH  34  35
ATOM     35  C   UNL     1       2.293   2.683   0.558  0.00  0.00    -0.045 A 
ATOM     36  C   UNL     1       3.319   2.552   1.476  0.00  0.00    +0.006 A 
ATOM     37  C   UNL     1       4.583   2.187   1.052  0.00  0.00    +0.038 A 
ATOM     38  C   UNL     1       4.822   1.952  -0.291  0.00  0.00    +0.123 A 
ATOM     39  C   UNL     1       3.793   2.084  -1.209  0.00  0.00    +0.038 A 
ATOM     40  C   UNL     1       2.529   2.444  -0.783  0.00  0.00    +0.006 A 
ATOM     41  F   UNL     1       6.057   1.596  -0.707  0.00  0.00    -0.205 F 
ENDBRANCH  34  35
ENDBRANCH  33  34
ENDBRANCH  28  33
ENDBRANCH   1  29
TORSDOF 7
