REMARK  Name = ZINC13461883
REMARK  11 active torsions:
REMARK  status: ('A' for Active; 'I' for Inactive)
REMARK    1  A    between atoms: C_1  and  C_2
REMARK    2  A    between atoms: C_2  and  O_3
REMARK    3  A    between atoms: O_3  and  C_4
REMARK    4  A    between atoms: C_7  and  C_10
REMARK    5  A    between atoms: C_10  and  C_12
REMARK    6  A    between atoms: C_10  and  N_13
REMARK    7  A    between atoms: N_13  and  C_14
REMARK    8  A    between atoms: C_17  and  S_23
REMARK    9  A    between atoms: C_19  and  N_20
REMARK   10  A    between atoms: S_23  and  N_26
REMARK   11  A    between atoms: C_29  and  C_32
REMARK                            x       y       z     vdW  Elec       q    Type
REMARK                         _______ _______ _______ _____ _____    ______ ____
ROOT
ATOM      1  C   UNL     1       4.384   0.971   1.662  0.00  0.00    +0.058 A 
ATOM      2  C   UNL     1       4.475  -0.403   1.478  0.00  0.00    +0.027 A 
ATOM      3  C   UNL     1       5.642  -1.065   1.805  0.00  0.00    +0.030 A 
ATOM      4  C   UNL     1       6.715  -0.364   2.325  0.00  0.00    +0.108 A 
ATOM      5  C   UNL     1       6.625   1.002   2.514  0.00  0.00    +0.063 A 
ATOM      6  C   UNL     1       5.463   1.672   2.184  0.00  0.00    +0.149 A 
ENDROOT
BRANCH   6   7
ATOM      7  N   UNL     1       5.368   3.135   2.387  0.00  0.00    +0.058 N 
ATOM      8  O   UNL     1       4.770   3.824   1.580  0.00  0.00    -0.126 OA
ATOM      9  O   UNL     1       5.888   3.650   3.361  0.00  0.00    -0.126 OA
ENDBRANCH   6   7
BRANCH   4  10
ATOM     10  S   UNL     1       8.199  -1.215   2.748  0.00  0.00    +0.061 S 
ATOM     11  O   UNL     1       8.223  -2.402   1.967  0.00  0.00    -0.153 OA
ATOM     12  O   UNL     1       9.244  -0.253   2.704  0.00  0.00    -0.153 OA
BRANCH  10  13
ATOM     13  N   UNL     1       8.058  -1.690   4.328  0.00  0.00    -0.177 NA
ATOM     14  C   UNL     1       8.518  -0.817   5.416  0.00  0.00    +0.110 C 
ATOM     15  C   UNL     1       9.483  -1.597   6.306  0.00  0.00    +0.032 C 
ATOM     16  C   UNL     1       8.808  -2.888   6.778  0.00  0.00    +0.105 C 
ATOM     17  C   UNL     1       8.458  -3.754   5.566  0.00  0.00    +0.032 C 
ATOM     18  C   UNL     1       7.476  -2.995   4.668  0.00  0.00    +0.110 C 
BRANCH  16  19
ATOM     19  C   UNL     1       9.748  -3.644   7.681  0.00  0.00    +0.359 C 
ATOM     20  O   UNL     1      10.100  -4.762   7.386  0.00  0.00    -0.246 OA
ATOM     21  O   UNL     1      10.193  -3.077   8.813  0.00  0.00    -0.246 OA
ENDBRANCH  16  19
ENDBRANCH  10  13
ENDBRANCH   4  10
BRANCH   1  22
ATOM     22  N   UNL     1       3.207   1.645   1.327  0.00  0.00    -0.336 N 
ATOM     23  H   UNL     1       3.114   2.589   1.532  0.00  0.00    +0.147 HD
BRANCH  22  24
ATOM     24  C   UNL     1       2.114   0.927   0.668  0.00  0.00    +0.098 C 
ATOM     25  C   UNL     1       2.357   0.904  -0.843  0.00  0.00    +0.033 C 
BRANCH  24  29
ATOM     26  C   UNL     1      -1.586   2.903   1.485  0.00  0.00    +0.121 A 
ATOM     27  C   UNL     1      -1.526   1.517   1.475  0.00  0.00    +0.046 A 
ATOM     28  C   UNL     1      -0.328   0.880   1.216  0.00  0.00    +0.009 A 
ATOM     29  C   UNL     1       0.809   1.624   0.956  0.00  0.00    -0.027 A 
ATOM     30  C   UNL     1       0.750   3.005   0.960  0.00  0.00    +0.009 A 
ATOM     31  C   UNL     1      -0.445   3.646   1.224  0.00  0.00    +0.046 A 
BRANCH  26  32
ATOM     32  O   UNL     1      -2.763   3.531   1.745  0.00  0.00    -0.492 OA
BRANCH  32  34
ATOM     33  C   UNL     1      -5.121   3.581   2.274  0.00  0.00    +0.048 C 
ATOM     34  C   UNL     1      -3.897   2.702   2.006  0.00  0.00    +0.225 C 
ENDBRANCH  32  34
ENDBRANCH  26  32
ENDBRANCH  24  29
ENDBRANCH  22  24
ENDBRANCH   1  22
TORSDOF 9
