REMARK  Name = ZINC58892518
REMARK  11 active torsions:
REMARK  status: ('A' for Active; 'I' for Inactive)
REMARK    1  A    between atoms: C_4  and  C_7
REMARK    2  A    between atoms: C_7  and  C_9
REMARK    3  A    between atoms: C_7  and  O_34
REMARK    4  A    between atoms: C_9  and  C_10
REMARK    5  A    between atoms: C_10  and  C_11
REMARK    6  A    between atoms: N_13  and  N_14
REMARK    7  A    between atoms: C_15  and  C_16
REMARK    8  A    between atoms: C_21  and  O_22
REMARK    9  A    between atoms: O_22  and  C_23
REMARK   10  A    between atoms: C_23  and  C_24
REMARK   11  A    between atoms: C_27  and  N_30
REMARK                            x       y       z     vdW  Elec       q    Type
REMARK                         _______ _______ _______ _____ _____    ______ ____
ROOT
ATOM      1  C   UNL     1       9.921  -2.372   4.085  0.00  0.00    +0.037 A 
ATOM      2  C   UNL     1       9.625  -1.833   2.831  0.00  0.00    +0.028 A 
ATOM      3  C   UNL     1      10.634  -1.638   1.911  0.00  0.00    +0.019 A 
ATOM      4  C   UNL     1      11.941  -1.976   2.225  0.00  0.00    +0.019 A 
ATOM      5  C   UNL     1      12.245  -2.511   3.462  0.00  0.00    +0.047 A 
ATOM      6  C   UNL     1      11.245  -2.707   4.400  0.00  0.00    +0.130 A 
ATOM      7 BR   UNL     1      10.233  -0.908   0.213  0.00  0.00    -0.050 Br
ENDROOT
BRANCH   1   9
ATOM      8  N   UNL     1       7.625  -2.759   4.676  0.00  0.00    -0.188 NA
ATOM      9  C   UNL     1       8.848  -2.582   5.073  0.00  0.00    +0.142 C 
BRANCH   8  12
ATOM     10  C   UNL     1       6.075  -3.019   2.888  0.00  0.00    +0.232 C 
ATOM     11  O   UNL     1       5.163  -2.828   3.666  0.00  0.00    -0.274 OA
ATOM     12  N   UNL     1       7.351  -2.946   3.315  0.00  0.00    -0.207 N 
ATOM     13  H   UNL     1       8.080  -3.022   2.679  0.00  0.00    +0.177 HD
BRANCH  10  14
ATOM     14  C   UNL     1       5.779  -3.340   1.446  0.00  0.00    +0.100 C 
BRANCH  14  15
ATOM     15  C   UNL     1       4.274  -3.232   1.197  0.00  0.00    +0.045 C 
BRANCH  15  16
ATOM     16  C   UNL     1       3.987  -3.437  -0.292  0.00  0.00    +0.145 C 
BRANCH  16  20
ATOM     17  C   UNL     1      -0.196  -2.958  -1.017  0.00  0.00    +0.000 A 
ATOM     18  C   UNL     1       0.670  -1.905  -1.244  0.00  0.00    +0.000 A 
ATOM     19  C   UNL     1       2.024  -2.060  -1.009  0.00  0.00    +0.006 A 
ATOM     20  C   UNL     1       2.511  -3.268  -0.547  0.00  0.00    -0.019 A 
ATOM     21  C   UNL     1       1.645  -4.321  -0.319  0.00  0.00    +0.006 A 
ATOM     22  C   UNL     1       0.292  -4.166  -0.555  0.00  0.00    +0.000 A 
ENDBRANCH  16  20
BRANCH  16  23
ATOM     23  O   UNL     1       4.388  -4.753  -0.677  0.00  0.00    -0.387 OA
ATOM     24  H   UNL     1       3.900  -5.460  -0.233  0.00  0.00    +0.210 HD
ENDBRANCH  16  23
ENDBRANCH  15  16
ENDBRANCH  14  15
ENDBRANCH  10  14
ENDBRANCH   8  12
ENDBRANCH   1   9
BRANCH   6  25
ATOM     25  O   UNL     1      11.545  -3.228   5.618  0.00  0.00    -0.487 OA
BRANCH  25  26
ATOM     26  C   UNL     1      12.927  -3.448   5.907  0.00  0.00    +0.264 C 
BRANCH  26  27
ATOM     27  C   UNL     1      13.060  -4.101   7.259  0.00  0.00    -0.010 A 
ATOM     28  C   UNL     1      13.280  -3.325   8.382  0.00  0.00    +0.009 A 
ATOM     29  C   UNL     1      13.402  -3.924   9.622  0.00  0.00    +0.033 A 
ATOM     30  C   UNL     1      13.303  -5.298   9.739  0.00  0.00    +0.126 A 
ATOM     31  C   UNL     1      13.081  -6.073   8.616  0.00  0.00    +0.033 A 
ATOM     32  C   UNL     1      12.955  -5.474   7.377  0.00  0.00    +0.009 A 
BRANCH  30  33
ATOM     33  N   UNL     1      13.434  -5.939  11.067  0.00  0.00    +0.056 N 
ATOM     34  O   UNL     1      13.535  -5.257  12.060  0.00  0.00    -0.126 OA
ATOM     35  O   UNL     1      13.440  -7.144  11.158  0.00  0.00    -0.126 OA
ENDBRANCH  30  33
ENDBRANCH  26  27
ENDBRANCH  25  26
ENDBRANCH   6  25
TORSDOF 11
