REMARK  Name = ZINC10429412
REMARK  11 active torsions:
REMARK  status: ('A' for Active; 'I' for Inactive)
REMARK    1  A    between atoms: C_1  and  C_2
REMARK    2  A    between atoms: C_4  and  C_30
REMARK    3  A    between atoms: C_6  and  O_8
REMARK    4  A    between atoms: O_8  and  C_9
REMARK    5  A    between atoms: C_9  and  C_10
REMARK    6  A    between atoms: C_10  and  N_11
REMARK    7  A    between atoms: N_11  and  C_12
REMARK    8  A    between atoms: N_11  and  C_13
REMARK    9  A    between atoms: C_14  and  N_29
REMARK   10  A    between atoms: N_15  and  C_22
REMARK   11  A    between atoms: C_22  and  C_23
REMARK                            x       y       z     vdW  Elec       q    Type
REMARK                         _______ _______ _______ _____ _____    ______ ____
ROOT
ATOM      1  C   UNL     1       1.444  -5.003   4.257  0.00  0.00    +0.133 A 
ATOM      2  C   UNL     1       0.476  -5.934   4.516  0.00  0.00    +0.127 A 
ATOM      3  N   UNL     1       0.517  -7.148   3.869  0.00  0.00    -0.276 N 
ATOM      4  C   UNL     1       1.500  -7.418   2.990  0.00  0.00    +0.331 A 
ATOM      5  O   UNL     1       1.520  -8.496   2.428  0.00  0.00    -0.246 OA
ATOM      6  N   UNL     1       2.459  -6.514   2.724  0.00  0.00    -0.273 N 
ATOM      7  H   UNL     1       3.158  -6.729   2.086  0.00  0.00    +0.173 HD
ATOM      8  C   UNL     1       2.455  -5.310   3.329  0.00  0.00    +0.277 A 
ATOM      9  O   UNL     1       3.326  -4.494   3.078  0.00  0.00    -0.266 OA
ENDROOT
BRANCH   2  10
ATOM     10  N   UNL     1      -0.530  -5.660   5.415  0.00  0.00    -0.343 N 
ATOM     11  H   UNL     1      -0.545  -4.809   5.880  0.00  0.00    +0.144 HD
ATOM     12  H   UNL     1      -1.223  -6.317   5.583  0.00  0.00    +0.144 HD
ENDBRANCH   2  10
BRANCH   1  13
ATOM     13  N   UNL     1       1.425  -3.747   4.908  0.00  0.00    -0.323 N 
ATOM     14  C   UNL     1       2.503  -3.384   5.830  0.00  0.00    +0.129 C 
BRANCH  13  15
ATOM     15  C   UNL     1       0.326  -2.810   4.660  0.00  0.00    +0.146 C 
BRANCH  15  16
ATOM     16  C   UNL     1       0.734  -1.825   3.563  0.00  0.00    +0.248 C 
BRANCH  16  17
ATOM     17  O   UNL     1       0.915  -2.529   2.333  0.00  0.00    -0.490 OA
BRANCH  17  23
ATOM     18  C   UNL     1       2.032   1.809   0.394  0.00  0.00    +0.044 C 
ATOM     19  C   UNL     1       1.835   0.320   0.266  0.00  0.00    -0.047 A 
ATOM     20  C   UNL     1       2.027  -0.299  -0.956  0.00  0.00    +0.007 A 
ATOM     21  C   UNL     1       1.847  -1.665  -1.076  0.00  0.00    -0.047 A 
ATOM     22  C   UNL     1       1.474  -2.414   0.023  0.00  0.00    +0.049 A 
ATOM     23  C   UNL     1       1.281  -1.794   1.250  0.00  0.00    +0.121 A 
ATOM     24  C   UNL     1       1.468  -0.425   1.369  0.00  0.00    +0.049 A 
ATOM     25  C   UNL     1       2.057  -2.337  -2.409  0.00  0.00    +0.044 C 
ENDBRANCH  17  23
ENDBRANCH  16  17
ENDBRANCH  15  16
ENDBRANCH  13  15
ENDBRANCH   1  13
BRANCH   3  26
ATOM     26  C   UNL     1      -0.514  -8.153   4.139  0.00  0.00    +0.163 C 
BRANCH  26  27
ATOM     27  C   UNL     1      -1.662  -7.965   3.181  0.00  0.00    -0.028 A 
ATOM     28  C   UNL     1      -2.711  -7.128   3.514  0.00  0.00    +0.005 A 
ATOM     29  C   UNL     1      -3.764  -6.955   2.635  0.00  0.00    +0.000 A 
ATOM     30  C   UNL     1      -3.768  -7.620   1.423  0.00  0.00    +0.000 A 
ATOM     31  C   UNL     1      -2.720  -8.456   1.090  0.00  0.00    +0.000 A 
ATOM     32  C   UNL     1      -1.665  -8.626   1.967  0.00  0.00    +0.005 A 
ENDBRANCH  26  27
ENDBRANCH   3  26
TORSDOF 8
