REMARK  Name = ZINC39775174
REMARK  5 active torsions:
REMARK  status: ('A' for Active; 'I' for Inactive)
REMARK    1  A    between atoms: C_1  and  N_2
REMARK    2  A    between atoms: N_2  and  C_3
REMARK    3  A    between atoms: N_2  and  N_20
REMARK    4  A    between atoms: N_6  and  C_12
REMARK    5  A    between atoms: C_21  and  C_22
REMARK                            x       y       z     vdW  Elec       q    Type
REMARK                         _______ _______ _______ _____ _____    ______ ____
ROOT
ATOM      1  C   UNL     1      -0.019  -0.436   1.293  0.00  0.00    +0.070 C 
ATOM      2  C   UNL     1       0.128   0.298   2.388  0.00  0.00    +0.110 C 
ATOM      3  N   UNL     1       0.247  -0.301   3.635  0.00  0.00    -0.263 N 
ATOM      4  N   UNL     1      -0.143  -1.636   3.803  0.00  0.00    -0.189 N 
ATOM      5  C   UNL     1      -0.311  -2.431   2.732  0.00  0.00    +0.260 C 
ATOM      6  O   UNL     1      -0.676  -3.576   2.897  0.00  0.00    -0.272 OA
ATOM      7  C   UNL     1      -0.063  -1.935   1.339  0.00  0.00    +0.215 C 
ATOM      8 CL   UNL     1       1.512  -2.591   0.756  0.00  0.00    -0.105 Cl
ATOM      9  H   UNL     1       0.600   0.201   4.386  0.00  0.00    +0.170 HD
ENDROOT
BRANCH   4  10
ATOM     10  C   UNL     1      -0.359  -2.143   5.090  0.00  0.00    +0.058 A 
ATOM     11  C   UNL     1       0.205  -3.357   5.462  0.00  0.00    +0.028 A 
ATOM     12  C   UNL     1      -0.009  -3.856   6.732  0.00  0.00    +0.042 A 
ATOM     13  C   UNL     1      -0.785  -3.148   7.634  0.00  0.00    +0.142 A 
ATOM     14  C   UNL     1      -1.349  -1.937   7.265  0.00  0.00    +0.078 A 
ATOM     15  C   UNL     1      -1.132  -1.432   5.997  0.00  0.00    +0.048 A 
ATOM     16 CL   UNL     1      -2.322  -1.052   8.398  0.00  0.00    -0.081 Cl
ATOM     17  F   UNL     1      -0.993  -3.638   8.876  0.00  0.00    -0.204 F 
ENDBRANCH   4  10
BRANCH   1  19
ATOM     18  C   UNL     1      -0.100   1.665  -0.003  0.00  0.00    +0.158 C 
ATOM     19  N   UNL     1      -0.141   0.202   0.068  0.00  0.00    -0.228 N 
BRANCH  19  20
ATOM     20  N   UNL     1      -0.289  -0.492  -1.009  0.00  0.00    -0.188 NA
ATOM     21  C   UNL     1      -0.292   0.106  -2.182  0.00  0.00    +0.136 C 
BRANCH  21  22
ATOM     22  C   UNL     1      -0.570  -0.623  -3.334  0.00  0.00    +0.000 C 
ATOM     23  C   UNL     1      -0.607  -0.146  -4.651  0.00  0.00    +0.004 A 
ATOM     24  C   UNL     1      -0.395   1.130  -5.207  0.00  0.00    +0.010 A 
ATOM     25  C   UNL     1      -0.499   1.307  -6.550  0.00  0.00    +0.001 A 
ATOM     26  C   UNL     1      -0.814   0.249  -7.403  0.00  0.00    +0.002 A 
ATOM     27  C   UNL     1      -1.032  -1.006  -6.935  0.00  0.00    +0.026 A 
ATOM     28  C   UNL     1      -0.940  -1.266  -5.545  0.00  0.00    +0.043 A 
ATOM     29  N   UNL     1      -1.102  -2.378  -4.851  0.00  0.00    -0.380 N 
ATOM     30  C   UNL     1      -0.887  -2.100  -3.428  0.00  0.00    +0.150 C 
ATOM     31  H   UNL     1      -1.326  -3.244  -5.226  0.00  0.00    +0.160 HD
ENDBRANCH  21  22
ENDBRANCH  19  20
ENDBRANCH   1  19
TORSDOF 4
