REMARK  Name = ZINC22320916
REMARK  8 active torsions:
REMARK  status: ('A' for Active; 'I' for Inactive)
REMARK    1  A    between atoms: C_1  and  C_2
REMARK    2  A    between atoms: C_2  and  C_4
REMARK    3  A    between atoms: C_2  and  N_13
REMARK    4  A    between atoms: C_14  and  C_16
REMARK    5  A    between atoms: C_16  and  N_17
REMARK    6  A    between atoms: C_20  and  C_24
REMARK    7  A    between atoms: C_20  and  C_25
REMARK    8  A    between atoms: C_25  and  C_26
REMARK                            x       y       z     vdW  Elec       q    Type
REMARK                         _______ _______ _______ _____ _____    ______ ____
ROOT
ATOM      1  N   UNL     1       1.048   2.037   0.003  0.00  0.00    -0.215 N 
ATOM      2  C   UNL     1      -0.014   1.208   0.009  0.00  0.00    +0.247 C 
ATOM      3  O   UNL     1       0.002  -0.004   0.002  0.00  0.00    -0.273 OA
ATOM      4  C   UNL     1      -1.235   2.107   0.018  0.00  0.00    +0.114 C 
ATOM      5  N   UNL     1      -0.664   3.465   0.026  0.00  0.00    -0.285 N 
ATOM      6  C   UNL     1       0.673   3.321   0.013  0.00  0.00    +0.310 C 
ATOM      7  O   UNL     1       1.453   4.253   0.010  0.00  0.00    -0.252 OA
ATOM      8  C   UNL     1      -2.079   1.882  -1.237  0.00  0.00    +0.042 C 
ATOM      9  H   UNL     1      -1.329   4.341   0.039  0.00  0.00    +0.151 HD
ENDROOT
BRANCH   1  10
ATOM     10  C   UNL     1       2.443   1.587  -0.013  0.00  0.00    +0.213 C 
BRANCH  10  12
ATOM     11  N   UNL     1       4.166   1.034  -1.699  0.00  0.00    -0.304 N 
ATOM     12  C   UNL     1       2.907   1.440  -1.439  0.00  0.00    +0.232 C 
ATOM     13  O   UNL     1       2.148   1.687  -2.352  0.00  0.00    -0.274 OA
ATOM     14  H   UNL     1       4.854   0.810  -0.871  0.00  0.00    +0.149 HD
BRANCH  11  16
ATOM     15  C   UNL     1       4.220  -0.489  -3.612  0.00  0.00    +0.036 C 
ATOM     16  C   UNL     1       4.617   0.892  -3.086  0.00  0.00    +0.136 C 
BRANCH  16  17
ATOM     17  C   UNL     1       6.116   1.039  -3.144  0.00  0.00    +0.126 A 
ATOM     18  C   UNL     1       6.786   1.690  -4.104  0.00  0.00    +0.055 A 
ATOM     19  C   UNL     1       8.208   1.582  -3.756  0.00  0.00    +0.020 A 
ATOM     20  C   UNL     1       9.391   2.037  -4.337  0.00  0.00    +0.011 A 
ATOM     21  C   UNL     1      10.590   1.751  -3.745  0.00  0.00    +0.001 A 
ATOM     22  C   UNL     1      10.636   1.012  -2.572  0.00  0.00    +0.004 A 
ATOM     23  C   UNL     1       9.476   0.553  -1.983  0.00  0.00    +0.047 A 
ATOM     24  C   UNL     1       8.248   0.833  -2.568  0.00  0.00    +0.135 A 
ATOM     25  O   UNL     1       6.975   0.532  -2.242  0.00  0.00    -0.458 OA
ENDBRANCH  16  17
ENDBRANCH  11  16
ENDBRANCH  10  12
ENDBRANCH   1  10
BRANCH   4  26
ATOM     26  C   UNL     1      -2.068   1.870   1.279  0.00  0.00    +0.070 C 
BRANCH  26  27
ATOM     27  C   UNL     1      -3.273   2.775   1.263  0.00  0.00    -0.041 A 
ATOM     28  C   UNL     1      -3.199   4.032   1.834  0.00  0.00    +0.007 A 
ATOM     29  C   UNL     1      -4.300   4.867   1.818  0.00  0.00    +0.050 A 
ATOM     30  C   UNL     1      -5.484   4.443   1.237  0.00  0.00    +0.166 A 
ATOM     31  C   UNL     1      -5.560   3.175   0.666  0.00  0.00    +0.166 A 
ATOM     32  C   UNL     1      -4.451   2.344   0.682  0.00  0.00    +0.053 A 
ATOM     33  O   UNL     1      -6.818   2.995   0.167  0.00  0.00    -0.453 OA
ATOM     34  C   UNL     1      -7.386   4.315   0.074  0.00  0.00    +0.466 C 
ATOM     35  O   UNL     1      -6.694   5.058   1.095  0.00  0.00    -0.453 OA
ENDBRANCH  26  27
ENDBRANCH   4  26
TORSDOF 6
