REMARK  Name = ZINC22042924
REMARK  9 active torsions:
REMARK  status: ('A' for Active; 'I' for Inactive)
REMARK    1  A    between atoms: C_1  and  C_2
REMARK    2  A    between atoms: C_5  and  C_9
REMARK    3  A    between atoms: C_6  and  O_8
REMARK    4  A    between atoms: C_9  and  O_11
REMARK    5  A    between atoms: O_11  and  C_12
REMARK    6  A    between atoms: C_12  and  C_14
REMARK    7  A    between atoms: C_12  and  C_15
REMARK    8  A    between atoms: N_17  and  C_18
REMARK    9  A    between atoms: C_19  and  C_26
REMARK                            x       y       z     vdW  Elec       q    Type
REMARK                         _______ _______ _______ _____ _____    ______ ____
ROOT
ATOM      1  C   UNL     1       0.793  -6.887  -2.359  0.00  0.00    +0.258 C 
ATOM      2  O   UNL     1       1.240  -6.128  -3.193  0.00  0.00    -0.271 OA
ATOM      3  N   UNL     1       0.933  -8.219  -2.515  0.00  0.00    -0.276 N 
ATOM      4  H   UNL     1       0.576  -8.825  -1.849  0.00  0.00    +0.155 HD
ENDROOT
BRANCH   3   5
ATOM      5  C   UNL     1       1.588  -8.720  -3.630  0.00  0.00    +0.084 A 
ATOM      6  C   UNL     1       1.818 -10.044  -3.957  0.00  0.00    +0.068 A 
ATOM      7  C   UNL     1       2.539 -10.312  -5.200  0.00  0.00    -0.023 A 
ATOM      8  C   UNL     1       2.892  -9.205  -5.878  0.00  0.00    -0.004 A 
ATOM      9  S   UNL     1       2.277  -7.862  -4.895  0.00  0.00    -0.077 S 
ATOM     10  C   UNL     1       3.633  -9.537  -7.145  0.00  0.00    +0.043 C 
ATOM     11  C   UNL     1       4.078 -11.005  -6.965  0.00  0.00    +0.010 C 
ATOM     12  C   UNL     1       3.019 -11.536  -5.977  0.00  0.00    +0.037 C 
BRANCH   6  13
ATOM     13  C   UNL     1       1.359 -11.134  -3.091  0.00  0.00    +0.244 C 
ATOM     14  O   UNL     1       0.254 -11.617  -3.255  0.00  0.00    -0.270 OA
ATOM     15  N   UNL     1       2.160 -11.602  -2.113  0.00  0.00    -0.325 N 
ATOM     16  H   UNL     1       3.041 -11.217  -1.983  0.00  0.00    +0.145 HD
ATOM     17  H   UNL     1       1.857 -12.323  -1.540  0.00  0.00    +0.145 HD
ENDBRANCH   6  13
ENDBRANCH   3   5
BRANCH   1  18
ATOM     18  C   UNL     1       0.081  -6.342  -1.148  0.00  0.00    +0.259 C 
ATOM     19  C   UNL     1      -1.354  -6.870  -1.119  0.00  0.00    +0.062 C 
BRANCH  18  20
ATOM     20  O   UNL     1       0.062  -4.914  -1.209  0.00  0.00    -0.449 OA
BRANCH  20  21
ATOM     21  C   UNL     1       0.059  -4.251  -0.036  0.00  0.00    +0.343 C 
ATOM     22  O   UNL     1       0.072  -4.868   1.010  0.00  0.00    -0.245 OA
BRANCH  21  27
ATOM     23  C   UNL     1      -0.018   1.503   0.010  0.00  0.00    +0.044 C 
ATOM     24  C   UNL     1       0.002  -0.004   0.002  0.00  0.00    -0.047 A 
ATOM     25  C   UNL     1       0.006  -0.686  -1.204  0.00  0.00    +0.004 A 
ATOM     26  C   UNL     1       0.024  -2.063  -1.224  0.00  0.00    +0.019 A 
ATOM     27  C   UNL     1       0.040  -2.777  -0.023  0.00  0.00    +0.100 A 
ATOM     28  C   UNL     1       0.036  -2.083   1.196  0.00  0.00    +0.131 A 
ATOM     29  C   UNL     1       0.023  -0.697   1.196  0.00  0.00    +0.049 A 
BRANCH  28  30
ATOM     30  O   UNL     1       0.051  -2.765   2.368  0.00  0.00    -0.506 OA
ATOM     31  H   UNL     1       0.938  -2.951   2.704  0.00  0.00    +0.292 HD
ENDBRANCH  28  30
ENDBRANCH  21  27
ENDBRANCH  20  21
ENDBRANCH  18  20
ENDBRANCH   1  18
TORSDOF 7
