REMARK  Name = ZINC33171262
REMARK  9 active torsions:
REMARK  status: ('A' for Active; 'I' for Inactive)
REMARK    1  A    between atoms: C_1  and  C_2
REMARK    2  A    between atoms: C_2  and  O_3
REMARK    3  A    between atoms: O_3  and  C_4
REMARK    4  A    between atoms: C_7  and  O_27
REMARK    5  A    between atoms: C_8  and  N_10
REMARK    6  A    between atoms: N_10  and  S_11
REMARK    7  A    between atoms: S_11  and  C_14
REMARK    8  A    between atoms: O_27  and  C_28
REMARK    9  A    between atoms: C_28  and  C_29
REMARK                            x       y       z     vdW  Elec       q    Type
REMARK                         _______ _______ _______ _____ _____    ______ ____
ROOT
ATOM      1  S   UNL     1      -2.554  -0.076  -0.690  0.00  0.00    +0.072 S 
ATOM      2  O   UNL     1      -3.614  -0.989  -0.441  0.00  0.00    -0.150 OA
ATOM      3  O   UNL     1      -2.610   1.286  -0.286  0.00  0.00    -0.150 OA
ENDROOT
BRANCH   1   4
ATOM      4  C   UNL     1      -2.290  -0.074  -2.432  0.00  0.00    +0.109 A 
ATOM      5  C   UNL     1      -1.708   1.024  -3.042  0.00  0.00    +0.032 A 
ATOM      6  C   UNL     1      -1.495   1.044  -4.407  0.00  0.00    +0.048 A 
ATOM      7  C   UNL     1      -1.874  -0.036  -5.187  0.00  0.00    +0.132 A 
ATOM      8  C   UNL     1      -2.457  -1.155  -4.559  0.00  0.00    +0.064 A 
ATOM      9  C   UNL     1      -2.668  -1.166  -3.189  0.00  0.00    +0.044 A 
ATOM     10  C   UNL     1      -2.791  -2.293  -5.431  0.00  0.00    +0.177 A 
ATOM     11  C   UNL     1      -2.292  -2.316  -6.720  0.00  0.00    +0.056 A 
ATOM     12  C   UNL     1      -2.790  -3.494  -7.258  0.00  0.00    +0.164 A 
ATOM     13  N   UNL     1      -3.502  -4.058  -6.312  0.00  0.00    -0.086 NA
ATOM     14  O   UNL     1      -3.507  -3.396  -5.288  0.00  0.00    -0.354 OA
ATOM     15  C   UNL     1      -1.420  -1.218  -7.248  0.00  0.00    +0.270 C 
ATOM     16  O   UNL     1      -1.698  -0.011  -6.530  0.00  0.00    -0.486 OA
ENDBRANCH   1   4
BRANCH   1  17
ATOM     17  N   UNL     1      -1.200  -0.722   0.010  0.00  0.00    -0.213 N 
ATOM     18  H   UNL     1      -1.276  -1.637   0.616  0.00  0.00    +0.174 HD
BRANCH  17  23
ATOM     19  C   UNL     1       1.360   1.890  -0.413  0.00  0.00    +0.123 A 
ATOM     20  C   UNL     1       2.507   1.118  -0.522  0.00  0.00    +0.049 A 
ATOM     21  C   UNL     1       2.426  -0.260  -0.454  0.00  0.00    +0.051 A 
ATOM     22  C   UNL     1       1.198  -0.875  -0.278  0.00  0.00    +0.143 A 
ATOM     23  C   UNL     1       0.043  -0.103  -0.169  0.00  0.00    +0.093 A 
ATOM     24  C   UNL     1       0.128   1.280  -0.236  0.00  0.00    +0.073 A 
BRANCH  19  25
ATOM     25  O   UNL     1       1.444   3.245  -0.480  0.00  0.00    -0.492 OA
BRANCH  25  27
ATOM     26  C   UNL     1       2.640   5.332  -0.714  0.00  0.00    +0.048 C 
ATOM     27  C   UNL     1       2.745   3.807  -0.663  0.00  0.00    +0.225 C 
ENDBRANCH  25  27
ENDBRANCH  19  25
BRANCH  22  28
ATOM     28  O   UNL     1       1.118  -2.232  -0.211  0.00  0.00    -0.490 OA
BRANCH  28  29
ATOM     29  C   UNL     1       2.342  -2.960  -0.331  0.00  0.00    +0.226 C 
ATOM     30  C   UNL     1       2.055  -4.460  -0.233  0.00  0.00    +0.048 C 
ENDBRANCH  28  29
ENDBRANCH  22  28
ENDBRANCH  17  23
ENDBRANCH   1  17
TORSDOF 7
