REMARK  Name = ZINC35316494
REMARK  10 active torsions:
REMARK  status: ('A' for Active; 'I' for Inactive)
REMARK    1  A    between atoms: C_1  and  C_2
REMARK    2  A    between atoms: C_2  and  N_3
REMARK    3  A    between atoms: C_6  and  C_8
REMARK    4  A    between atoms: C_10  and  S_21
REMARK    5  A    between atoms: N_11  and  C_14
REMARK    6  A    between atoms: C_14  and  C_15
REMARK    7  A    between atoms: S_21  and  C_22
REMARK    8  A    between atoms: C_22  and  C_23
REMARK    9  A    between atoms: N_25  and  C_26
REMARK   10  A    between atoms: C_29  and  C_32
REMARK                            x       y       z     vdW  Elec       q    Type
REMARK                         _______ _______ _______ _____ _____    ______ ____
ROOT
ATOM      1  N   UNL     1       0.695  -0.440  -1.214  0.00  0.00    -0.257 N 
ATOM      2  C   UNL     1       0.107  -0.714  -2.421  0.00  0.00    +0.152 A 
ATOM      3  C   UNL     1       1.126  -1.138  -3.283  0.00  0.00    +0.119 A 
ATOM      4  C   UNL     1       2.327  -1.105  -2.548  0.00  0.00    +0.086 A 
ATOM      5  N   UNL     1       2.068  -0.689  -1.338  0.00  0.00    -0.174 NA
ATOM      6  C   UNL     1       3.688  -1.481  -3.074  0.00  0.00    +0.070 C 
ATOM      7  N   UNL     1       0.818  -1.476  -4.558  0.00  0.00    -0.220 NA
ATOM      8  C   UNL     1      -0.417  -1.412  -4.994  0.00  0.00    +0.173 A 
ATOM      9  N   UNL     1      -1.446  -1.005  -4.193  0.00  0.00    -0.284 N 
ATOM     10  C   UNL     1      -1.216  -0.652  -2.909  0.00  0.00    +0.281 A 
ATOM     11  O   UNL     1      -2.130  -0.288  -2.189  0.00  0.00    -0.265 OA
ENDROOT
BRANCH   1  13
ATOM     12  C   UNL     1      -0.019   1.565  -0.009  0.00  0.00    +0.029 C 
ATOM     13  C   UNL     1       0.010   0.036  -0.010  0.00  0.00    +0.141 C 
ENDBRANCH   1  13
BRANCH   9  14
ATOM     14  C   UNL     1      -2.808  -0.951  -4.729  0.00  0.00    +0.159 C 
BRANCH  14  15
ATOM     15  C   UNL     1      -3.500  -2.297  -4.502  0.00  0.00    +0.138 C 
ATOM     16  C   UNL     1      -4.931  -2.273  -5.094  0.00  0.00    +0.035 C 
ATOM     17  C   UNL     1      -5.172  -3.787  -5.346  0.00  0.00    +0.031 C 
ATOM     18  C   UNL     1      -3.761  -4.282  -5.731  0.00  0.00    +0.160 C 
ATOM     19  O   UNL     1      -2.814  -3.337  -5.216  0.00  0.00    -0.375 OA
ENDBRANCH  14  15
ENDBRANCH   9  14
BRANCH   8  20
ATOM     20  S   UNL     1      -0.760  -1.864  -6.662  0.00  0.00    -0.078 S 
BRANCH  20  21
ATOM     21  C   UNL     1       0.861  -2.326  -7.333  0.00  0.00    +0.173 C 
BRANCH  21  22
ATOM     22  C   UNL     1       0.708  -2.739  -8.774  0.00  0.00    +0.227 C 
ATOM     23  O   UNL     1      -0.386  -2.724  -9.297  0.00  0.00    -0.275 OA
ATOM     24  N   UNL     1       1.788  -3.126  -9.483  0.00  0.00    -0.285 N 
ATOM     25  H   UNL     1       2.672  -3.074  -9.086  0.00  0.00    +0.155 HD
BRANCH  24  26
ATOM     26  C   UNL     1       1.634  -3.601 -10.790  0.00  0.00    +0.033 A 
ATOM     27  C   UNL     1       2.455  -4.617 -11.261  0.00  0.00    +0.023 A 
ATOM     28  C   UNL     1       2.300  -5.084 -12.552  0.00  0.00    +0.005 A 
ATOM     29  C   UNL     1       1.330  -4.541 -13.374  0.00  0.00    -0.050 A 
ATOM     30  C   UNL     1       0.511  -3.529 -12.907  0.00  0.00    +0.005 A 
ATOM     31  C   UNL     1       0.656  -3.062 -11.616  0.00  0.00    +0.023 A 
ATOM     32  C   UNL     1       1.164  -5.054 -14.781  0.00  0.00    +0.044 C 
ENDBRANCH  24  26
ENDBRANCH  21  22
ENDBRANCH  20  21
ENDBRANCH   8  20
TORSDOF 7
