REMARK  Name = ZINC27032816
REMARK  6 active torsions:
REMARK  status: ('A' for Active; 'I' for Inactive)
REMARK    1  A    between atoms: C_1  and  C_2
REMARK    2  A    between atoms: C_8  and  C_10
REMARK    3  A    between atoms: C_10  and  C_12
REMARK    4  A    between atoms: C_10  and  N_18
REMARK    5  A    between atoms: N_18  and  C_19
REMARK    6  A    between atoms: C_19  and  C_20
REMARK                            x       y       z     vdW  Elec       q    Type
REMARK                         _______ _______ _______ _____ _____    ______ ____
ROOT
ATOM      1  C   UNL     1      -0.070   5.347   0.031  0.00  0.00    +0.047 C 
ENDROOT
BRANCH   1   9
ATOM      2  C   UNL     1      -1.351   7.716   6.468  0.00  0.00    +0.089 C 
ATOM      3  C   UNL     1      -0.509   6.940   5.488  0.00  0.00    +0.136 A 
ATOM      4  C   UNL     1      -0.747   6.781   4.166  0.00  0.00    +0.091 A 
ATOM      5  C   UNL     1       0.332   5.974   3.718  0.00  0.00    +0.168 A 
ATOM      6  N   UNL     1       1.079   5.747   4.767  0.00  0.00    -0.063 NA
ATOM      7  O   UNL     1       0.625   6.276   5.756  0.00  0.00    -0.358 OA
ATOM      8  N   UNL     1       0.554   5.519   2.418  0.00  0.00    -0.269 N 
ATOM      9  C   UNL     1      -0.311   5.838   1.435  0.00  0.00    +0.209 C 
ATOM     10  O   UNL     1      -1.282   6.521   1.681  0.00  0.00    -0.277 OA
ATOM     11  H   UNL     1       1.436   4.900   2.195  0.00  0.00    +0.156 HD
ENDBRANCH   1   9
BRANCH   1  12
ATOM     12  C   UNL     1      -0.050   3.840   0.023  0.00  0.00    -0.053 A 
ATOM     13  C   UNL     1       1.156   3.165   0.008  0.00  0.00    +0.002 A 
ATOM     14  C   UNL     1       1.175   1.783   0.000  0.00  0.00    +0.000 A 
ATOM     15  C   UNL     1      -0.013   1.076   0.008  0.00  0.00    +0.000 A 
ATOM     16  C   UNL     1      -1.219   1.751   0.017  0.00  0.00    +0.000 A 
ATOM     17  C   UNL     1      -1.238   3.133   0.030  0.00  0.00    +0.002 A 
ENDBRANCH   1  12
BRANCH   1  18
ATOM     18  N   UNL     1      -1.147   5.827  -0.846  0.00  0.00    +0.392 N 
ATOM     19  H   UNL     1      -2.001   5.136  -0.790  0.00  0.00    -0.084 HD
ATOM     20  H   UNL     1      -1.464   6.829  -0.523  0.00  0.00    -0.084 HD
BRANCH  18  21
ATOM     21  C   UNL     1      -0.693   5.904  -2.241  0.00  0.00    -0.036 C 
BRANCH  21  22
ATOM     22  C   UNL     1      -1.839   6.406  -3.123  0.00  0.00    +0.161 C 
ATOM     23  C   UNL     1      -1.435   6.376  -4.616  0.00  0.00    +0.081 C 
ATOM     24  C   UNL     1      -2.737   5.978  -5.284  0.00  0.00    -0.002 A 
ATOM     25  C   UNL     1      -3.161   6.039  -6.593  0.00  0.00    +0.007 A 
ATOM     26  C   UNL     1      -4.432   5.607  -6.929  0.00  0.00    +0.000 A 
ATOM     27  C   UNL     1      -5.272   5.116  -5.947  0.00  0.00    +0.004 A 
ATOM     28  C   UNL     1      -4.848   5.051  -4.636  0.00  0.00    +0.046 A 
ATOM     29  C   UNL     1      -3.569   5.481  -4.290  0.00  0.00    +0.124 A 
ATOM     30  O   UNL     1      -2.953   5.500  -3.076  0.00  0.00    -0.490 OA
ENDBRANCH  21  22
ENDBRANCH  18  21
ENDBRANCH   1  18
TORSDOF 5
