REMARK  Name = ZINC33288237
REMARK  9 active torsions:
REMARK  status: ('A' for Active; 'I' for Inactive)
REMARK    1  A    between atoms: C_1  and  C_2
REMARK    2  A    between atoms: C_2  and  N_3
REMARK    3  A    between atoms: N_6  and  C_9
REMARK    4  A    between atoms: C_9  and  C_10
REMARK    5  A    between atoms: C_10  and  N_11
REMARK    6  A    between atoms: C_12  and  C_14
REMARK    7  A    between atoms: C_21  and  O_26
REMARK    8  A    between atoms: O_26  and  C_27
REMARK    9  A    between atoms: C_30  and  C_33
REMARK                            x       y       z     vdW  Elec       q    Type
REMARK                         _______ _______ _______ _____ _____    ______ ____
ROOT
ATOM      1  C   UNL     1      -1.315   1.866   0.082  0.00  0.00    +0.078 C 
ATOM      2  C   UNL     1      -1.409   2.736   1.338  0.00  0.00    +0.031 C 
ATOM      3  C   UNL     1      -2.752   3.470   1.346  0.00  0.00    +0.107 C 
ATOM      4  N   UNL     1      -3.847   2.492   1.322  0.00  0.00    -0.311 N 
ATOM      5  C   UNL     1      -3.805   1.678   0.101  0.00  0.00    +0.107 C 
ATOM      6  C   UNL     1      -2.494   0.889   0.057  0.00  0.00    +0.031 C 
ATOM      7  C   UNL     1      -5.080   3.122   1.460  0.00  0.00    +0.184 A 
ATOM      8  C   UNL     1      -5.330   3.944   2.565  0.00  0.00    +0.261 A 
ATOM      9  N   UNL     1      -6.503   4.543   2.686  0.00  0.00    -0.217 NA
ATOM     10  C   UNL     1      -7.440   4.355   1.769  0.00  0.00    +0.134 A 
ATOM     11  C   UNL     1      -7.197   3.541   0.683  0.00  0.00    +0.133 A 
ATOM     12  N   UNL     1      -6.024   2.941   0.549  0.00  0.00    -0.234 NA
ENDROOT
BRANCH   1  14
ATOM     13  N   UNL     1       1.155   1.750   0.119  0.00  0.00    -0.314 N 
ATOM     14  C   UNL     1      -0.021   1.093   0.099  0.00  0.00    +0.216 C 
ATOM     15  O   UNL     1      -0.039  -0.119   0.090  0.00  0.00    -0.276 OA
ATOM     16  H   UNL     1       1.171   2.850   0.128  0.00  0.00    +0.149 HD
BRANCH  13  17
ATOM     17  C   UNL     1       2.413   0.999   0.130  0.00  0.00    +0.119 C 
BRANCH  17  18
ATOM     18  C   UNL     1       3.590   1.976   0.152  0.00  0.00    +0.103 C 
BRANCH  18  22
ATOM     19  N   UNL     1       7.435   0.530   1.136  0.00  0.00    +0.381 N 
ATOM     20  C   UNL     1       7.283   1.285  -0.115  0.00  0.00    -0.063 C 
ATOM     21  C   UNL     1       5.999   2.116  -0.054  0.00  0.00    +0.066 C 
ATOM     22  N   UNL     1       4.851   1.224   0.163  0.00  0.00    -0.304 NA
ATOM     23  C   UNL     1       5.004   0.469   1.415  0.00  0.00    +0.066 C 
ATOM     24  C   UNL     1       6.288  -0.362   1.353  0.00  0.00    -0.063 C 
ATOM     25  H   UNL     1       7.467   1.251   1.966  0.00  0.00    -0.082 HD
BRANCH  19  27
ATOM     26  C   UNL     1       8.940  -0.790   2.547  0.00  0.00    -0.017 C 
ATOM     27  C   UNL     1       8.697  -0.223   1.147  0.00  0.00    -0.082 C 
ENDBRANCH  19  27
ENDBRANCH  18  22
ENDBRANCH  17  18
ENDBRANCH  13  17
ENDBRANCH   1  14
BRANCH   8  28
ATOM     28  O   UNL     1      -4.370   4.130   3.507  0.00  0.00    -0.435 OA
BRANCH  28  29
ATOM     29  C   UNL     1      -4.622   5.012   4.509  0.00  0.00    +0.130 A 
ATOM     30  C   UNL     1      -4.040   6.271   4.490  0.00  0.00    +0.046 A 
ATOM     31  C   UNL     1      -4.302   7.168   5.508  0.00  0.00    +0.007 A 
ATOM     32  C   UNL     1      -5.135   6.807   6.551  0.00  0.00    -0.050 A 
ATOM     33  C   UNL     1      -5.712   5.551   6.575  0.00  0.00    +0.007 A 
ATOM     34  C   UNL     1      -5.458   4.653   5.557  0.00  0.00    +0.046 A 
ATOM     35  C   UNL     1      -5.414   7.784   7.664  0.00  0.00    +0.044 C 
ENDBRANCH  28  29
ENDBRANCH   8  28
TORSDOF 7
