REMARK  Name = ZINC43746972
REMARK  13 active torsions:
REMARK  status: ('A' for Active; 'I' for Inactive)
REMARK    1  A    between atoms: C_1  and  C_2
REMARK    2  A    between atoms: C_2  and  C_3
REMARK    3  A    between atoms: C_3  and  C_5
REMARK    4  A    between atoms: C_3  and  C_6
REMARK    5  A    between atoms: C_6  and  C_8
REMARK    6  A    between atoms: C_6  and  N_12
REMARK    7  A    between atoms: C_8  and  O_10
REMARK    8  A    between atoms: O_10  and  C_11
REMARK    9  A    between atoms: C_24  and  C_26
REMARK   10  A    between atoms: C_28  and  O_34
REMARK   11  A    between atoms: C_30  and  O_32
REMARK   12  A    between atoms: O_32  and  C_33
REMARK   13  A    between atoms: O_34  and  C_35
REMARK                            x       y       z     vdW  Elec       q    Type
REMARK                         _______ _______ _______ _____ _____    ______ ____
ROOT
ATOM      1  N   UNL     1       2.294  -4.764  -1.003  0.00  0.00    -0.286 N 
ATOM      2  C   UNL     1       2.292  -3.863  -2.005  0.00  0.00    +0.304 C 
ATOM      3  O   UNL     1       1.582  -2.878  -1.936  0.00  0.00    -0.253 OA
ATOM      4  N   UNL     1       3.076  -4.054  -3.084  0.00  0.00    -0.273 N 
ATOM      5  C   UNL     1       3.180  -3.027  -4.132  0.00  0.00    +0.116 C 
ATOM      6  C   UNL     1       2.613  -3.586  -5.443  0.00  0.00    +0.076 C 
ATOM      7  C   UNL     1       3.151  -4.980  -5.651  0.00  0.00    +0.066 A 
ATOM      8  C   UNL     1       3.696  -5.740  -4.678  0.00  0.00    +0.064 A 
ATOM      9  N   UNL     1       4.057  -6.923  -5.244  0.00  0.00    -0.346 N 
ATOM     10  H   UNL     1       4.474  -7.675  -4.795  0.00  0.00    +0.167 HD
ATOM     11  C   UNL     1       3.724  -6.851  -6.554  0.00  0.00    +0.197 A 
ATOM     12  N   UNL     1       3.183  -5.684  -6.787  0.00  0.00    -0.240 NA
ATOM     13  C   UNL     1       3.858  -5.294  -3.242  0.00  0.00    +0.156 C 
ATOM     14  H   UNL     1       2.804  -5.584  -1.089  0.00  0.00    +0.151 HD
ENDROOT
BRANCH  13  15
ATOM     15  C   UNL     1       5.310  -5.027  -2.943  0.00  0.00    -0.014 A 
ATOM     16  C   UNL     1       6.030  -4.158  -3.741  0.00  0.00    +0.051 A 
ATOM     17  C   UNL     1       7.368  -3.910  -3.468  0.00  0.00    +0.124 A 
ATOM     18  C   UNL     1       7.982  -4.535  -2.394  0.00  0.00    +0.091 A 
ATOM     19  C   UNL     1       7.258  -5.407  -1.596  0.00  0.00    +0.124 A 
ATOM     20  C   UNL     1       5.919  -5.647  -1.869  0.00  0.00    +0.051 A 
BRANCH  19  21
ATOM     21  O   UNL     1       7.859  -6.022  -0.543  0.00  0.00    -0.495 OA
ATOM     22  C   UNL     1       9.238  -5.724  -0.317  0.00  0.00    +0.277 C 
ENDBRANCH  19  21
BRANCH  17  23
ATOM     23  O   UNL     1       8.075  -3.055  -4.253  0.00  0.00    -0.495 OA
ATOM     24  C   UNL     1       9.447  -2.848  -3.914  0.00  0.00    +0.277 C 
ENDBRANCH  17  23
ENDBRANCH  13  15
BRANCH   1  25
ATOM     25  C   UNL     1       1.526  -4.504   0.217  0.00  0.00    +0.186 C 
BRANCH  25  26
ATOM     26  C   UNL     1       1.171  -5.832   0.889  0.00  0.00    +0.017 C 
ATOM     27  C   UNL     1       2.453  -6.524   1.358  0.00  0.00    +0.010 C 
BRANCH  26  29
ATOM     28  C   UNL     1      -0.190  -6.902   2.691  0.00  0.00    +0.004 C 
ATOM     29  C   UNL     1       0.265  -5.569   2.093  0.00  0.00    +0.002 C 
ENDBRANCH  26  29
ENDBRANCH  25  26
BRANCH  25  30
ATOM     30  C   UNL     1       2.350  -3.667   1.161  0.00  0.00    +0.328 C 
ATOM     31  O   UNL     1       3.465  -3.323   0.847  0.00  0.00    -0.249 OA
BRANCH  30  32
ATOM     32  O   UNL     1       1.845  -3.304   2.351  0.00  0.00    -0.467 OA
ATOM     33  C   UNL     1       2.682  -2.511   3.196  0.00  0.00    +0.280 C 
ENDBRANCH  30  32
ENDBRANCH  25  30
ENDBRANCH   1  25
TORSDOF 8
