REMARK  Name = ZINC57386690
REMARK  10 active torsions:
REMARK  status: ('A' for Active; 'I' for Inactive)
REMARK    1  A    between atoms: C_1  and  C_2
REMARK    2  A    between atoms: C_7  and  C_8
REMARK    3  A    between atoms: N_10  and  N_11
REMARK    4  A    between atoms: C_12  and  C_14
REMARK    5  A    between atoms: C_17  and  S_20
REMARK    6  A    between atoms: S_20  and  N_23
REMARK    7  A    between atoms: N_23  and  C_24
REMARK    8  A    between atoms: C_24  and  C_25
REMARK    9  A    between atoms: C_24  and  C_26
REMARK   10  A    between atoms: C_24  and  C_27
REMARK                            x       y       z     vdW  Elec       q    Type
REMARK                         _______ _______ _______ _____ _____    ______ ____
ROOT
ATOM      1  N   UNL     1       0.635  -1.644   5.789  0.00  0.00    -0.230 N 
ATOM      2  C   UNL     1       1.472  -1.550   6.841  0.00  0.00    +0.260 C 
ATOM      3  O   UNL     1       2.393  -2.335   6.957  0.00  0.00    -0.269 OA
ATOM      4  H   UNL     1      -0.100  -1.017   5.697  0.00  0.00    +0.173 HD
ENDROOT
BRANCH   2   5
ATOM      5  C   UNL     1       1.271  -0.493   7.855  0.00  0.00    +0.038 A 
ATOM      6  C   UNL     1       0.211   0.406   7.728  0.00  0.00    +0.015 A 
ATOM      7  C   UNL     1       0.028   1.390   8.678  0.00  0.00    +0.029 A 
ATOM      8  C   UNL     1       0.892   1.487   9.754  0.00  0.00    +0.105 A 
ATOM      9  C   UNL     1       1.945   0.599   9.885  0.00  0.00    +0.029 A 
ATOM     10  C   UNL     1       2.136  -0.393   8.946  0.00  0.00    +0.015 A 
BRANCH   8  11
ATOM     11  S   UNL     1       0.651   2.747  10.961  0.00  0.00    +0.059 S 
ATOM     12  O   UNL     1       1.764   2.682  11.844  0.00  0.00    -0.153 OA
ATOM     13  O   UNL     1       0.310   3.930  10.252  0.00  0.00    -0.153 OA
BRANCH  11  14
ATOM     14  N   UNL     1      -0.682   2.326  11.849  0.00  0.00    -0.185 NA
ATOM     15  H   UNL     1      -1.490   2.860  11.793  0.00  0.00    +0.149 HD
BRANCH  14  16
ATOM     16  C   UNL     1      -0.641   1.149  12.719  0.00  0.00    +0.032 C 
ATOM     17  C   UNL     1       0.352   1.390  13.858  0.00  0.00    +0.029 C 
ATOM     18  C   UNL     1      -2.033   0.895  13.301  0.00  0.00    +0.029 C 
ATOM     19  C   UNL     1      -0.198  -0.070  11.907  0.00  0.00    +0.029 C 
ENDBRANCH  14  16
ENDBRANCH  11  14
ENDBRANCH   8  11
ENDBRANCH   2   5
BRANCH   1  22
ATOM     20  C   UNL     1      -0.010  -2.739   3.776  0.00  0.00    +0.260 C 
ATOM     21  O   UNL     1      -0.931  -1.954   3.661  0.00  0.00    -0.269 OA
ATOM     22  N   UNL     1       0.827  -2.646   4.829  0.00  0.00    -0.230 N 
ATOM     23  H   UNL     1       1.562  -3.272   4.921  0.00  0.00    +0.173 HD
BRANCH  20  30
ATOM     24  C   UNL     1      -1.968  -3.101   1.677  0.00  0.00    +0.044 C 
ATOM     25  C   UNL     1      -0.746  -3.980   1.746  0.00  0.00    -0.038 A 
ATOM     26  C   UNL     1      -0.549  -4.965   0.800  0.00  0.00    +0.004 A 
ATOM     27  C   UNL     1       0.572  -5.773   0.862  0.00  0.00    +0.000 A 
ATOM     28  C   UNL     1       1.503  -5.600   1.871  0.00  0.00    +0.001 A 
ATOM     29  C   UNL     1       1.318  -4.619   2.822  0.00  0.00    +0.013 A 
ATOM     30  C   UNL     1       0.192  -3.796   2.763  0.00  0.00    +0.041 A 
ENDBRANCH  20  30
ENDBRANCH   1  22
TORSDOF 6
