REMARK  Name = ZINC62676568
REMARK  5 active torsions:
REMARK  status: ('A' for Active; 'I' for Inactive)
REMARK    1  A    between atoms: C_3  and  C_6
REMARK    2  A    between atoms: C_9  and  C_14
REMARK    3  A    between atoms: C_14  and  O_16
REMARK    4  A    between atoms: O_16  and  C_17
REMARK    5  A    between atoms: C_20  and  N_23
REMARK                            x       y       z     vdW  Elec       q    Type
REMARK                         _______ _______ _______ _____ _____    ______ ____
ROOT
ATOM      1  C   UNL     1       7.779   0.482  -0.111  0.00  0.00    +0.350 C 
ATOM      2  O   UNL     1       8.426   1.512  -0.144  0.00  0.00    -0.244 OA
ENDROOT
BRANCH   1   6
ATOM      3  C   UNL     1       3.556   0.605  -0.067  0.00  0.00    +0.085 A 
ATOM      4  C   UNL     1       4.269   1.797  -0.103  0.00  0.00    +0.030 A 
ATOM      5  C   UNL     1       5.653   1.773  -0.118  0.00  0.00    +0.022 A 
ATOM      6  C   UNL     1       6.314   0.538  -0.096  0.00  0.00    +0.124 A 
ATOM      7  C   UNL     1       5.552  -0.656  -0.059  0.00  0.00    +0.263 A 
ATOM      8  O   UNL     1       6.115  -1.737  -0.039  0.00  0.00    -0.267 OA
ATOM      9  N   UNL     1       4.207  -0.598  -0.039  0.00  0.00    -0.319 N 
ATOM     10  H   UNL     1       3.693  -1.420  -0.010  0.00  0.00    +0.169 HD
BRANCH   3  13
ATOM     11  C   UNL     1      -0.022   1.325  -0.048  0.00  0.00    +0.042 A 
ATOM     12  C   UNL     1       1.312   1.760  -0.074  0.00  0.00    +0.051 A 
ATOM     13  C   UNL     1       2.092   0.637  -0.051  0.00  0.00    +0.151 A 
ATOM     14  O   UNL     1       1.276  -0.436  -0.011  0.00  0.00    -0.461 OA
ATOM     15  C   UNL     1       0.000  -0.025  -0.009  0.00  0.00    +0.196 A 
ENDBRANCH   3  13
ENDBRANCH   1   6
BRANCH   1  16
ATOM     16  O   UNL     1       8.408  -0.710  -0.090  0.00  0.00    -0.422 OA
BRANCH  16  17
ATOM     17  C   UNL     1       9.763  -0.719  -0.208  0.00  0.00    +0.132 A 
ATOM     18  C   UNL     1      10.556  -0.383   0.879  0.00  0.00    +0.048 A 
ATOM     19  C   UNL     1      11.932  -0.392   0.760  0.00  0.00    +0.027 A 
ATOM     20  C   UNL     1      12.521  -0.738  -0.449  0.00  0.00    +0.040 A 
ATOM     21  C   UNL     1      11.726  -1.075  -1.537  0.00  0.00    +0.027 A 
ATOM     22  C   UNL     1      10.351  -1.070  -1.415  0.00  0.00    +0.048 A 
BRANCH  20  23
ATOM     23  N   UNL     1      13.917  -0.748  -0.571  0.00  0.00    -0.234 N 
ATOM     24  C   UNL     1      14.682  -1.086  -1.787  0.00  0.00    +0.158 C 
ATOM     25  C   UNL     1      16.095  -0.561  -1.441  0.00  0.00    +0.253 C 
ATOM     26  O   UNL     1      16.077  -0.575  -0.001  0.00  0.00    -0.448 OA
ATOM     27  C   UNL     1      14.800  -0.443   0.398  0.00  0.00    +0.407 C 
ATOM     28  O   UNL     1      14.478  -0.091   1.515  0.00  0.00    -0.226 OA
ENDBRANCH  20  23
ENDBRANCH  16  17
ENDBRANCH   1  16
TORSDOF 5
