REMARK  Name = ZINC13271784
REMARK  12 active torsions:
REMARK  status: ('A' for Active; 'I' for Inactive)
REMARK    1  A    between atoms: C_1  and  C_2
REMARK    2  A    between atoms: C_2  and  C_4
REMARK    3  A    between atoms: C_2  and  S_15
REMARK    4  A    between atoms: N_6  and  C_7
REMARK    5  A    between atoms: C_10  and  C_13
REMARK    6  A    between atoms: S_15  and  C_16
REMARK    7  A    between atoms: C_19  and  C_29
REMARK    8  A    between atoms: N_20  and  C_21
REMARK    9  A    between atoms: C_21  and  C_23
REMARK   10  A    between atoms: C_21  and  C_26
REMARK   11  A    between atoms: C_23  and  C_24
REMARK   12  A    between atoms: C_23  and  C_25
REMARK                            x       y       z     vdW  Elec       q    Type
REMARK                         _______ _______ _______ _____ _____    ______ ____
ROOT
ATOM      1  C   UNL     1       2.533  -0.027   1.237  0.00  0.00    +0.193 A 
ATOM      2  N   UNL     1       2.977   0.680   0.223  0.00  0.00    -0.122 NA
ATOM      3  N   UNL     1       4.229   0.928   0.371  0.00  0.00    -0.128 NA
ATOM      4  C   UNL     1       4.663   0.393   1.492  0.00  0.00    +0.172 A 
ATOM      5  N   UNL     1       3.587  -0.230   2.083  0.00  0.00    -0.287 N 
ENDROOT
BRANCH   4   6
ATOM      6  C   UNL     1       6.037   0.455   2.016  0.00  0.00    +0.056 A 
ATOM      7  C   UNL     1       7.068   1.280   1.645  0.00  0.00    +0.019 A 
ATOM      8  C   UNL     1       8.280   1.154   2.286  0.00  0.00    +0.008 A 
ATOM      9  C   UNL     1       8.417   0.221   3.264  0.00  0.00    +0.046 A 
ATOM     10  S   UNL     1       6.793  -0.518   3.308  0.00  0.00    -0.094 S 
ENDBRANCH   4   6
BRANCH   1  11
ATOM     11  S   UNL     1       0.883  -0.601   1.468  0.00  0.00    -0.073 S 
BRANCH  11  13
ATOM     12  C   UNL     1      -0.030   1.532   0.019  0.00  0.00    +0.029 C 
ATOM     13  C   UNL     1      -0.000   0.002   0.002  0.00  0.00    +0.137 C 
BRANCH  13  14
ATOM     14  C   UNL     1      -1.411  -0.528   0.012  0.00  0.00    +0.230 C 
ATOM     15  O   UNL     1      -1.935  -0.838   1.061  0.00  0.00    -0.274 OA
ATOM     16  N   UNL     1      -2.090  -0.657  -1.144  0.00  0.00    -0.285 N 
ATOM     17  H   UNL     1      -1.697  -0.347  -1.975  0.00  0.00    +0.155 HD
BRANCH  16  18
ATOM     18  C   UNL     1      -3.360  -1.237  -1.147  0.00  0.00    +0.033 A 
ATOM     19  C   UNL     1      -4.222  -1.024  -0.076  0.00  0.00    +0.024 A 
ATOM     20  C   UNL     1      -5.475  -1.594  -0.075  0.00  0.00    +0.020 A 
ATOM     21  C   UNL     1      -5.880  -2.389  -1.151  0.00  0.00    +0.052 A 
ATOM     22  C   UNL     1      -5.011  -2.601  -2.225  0.00  0.00    +0.020 A 
ATOM     23  C   UNL     1      -3.761  -2.023  -2.222  0.00  0.00    +0.024 A 
BRANCH  21  24
ATOM     24  C   UNL     1      -7.182  -2.985  -1.154  0.00  0.00    +0.099 C 
ATOM     25  N   UNL     1      -8.215  -3.457  -1.155  0.00  0.00    -0.191 NA
ENDBRANCH  21  24
ENDBRANCH  16  18
ENDBRANCH  13  14
ENDBRANCH  11  13
ENDBRANCH   1  11
BRANCH   5  26
ATOM     26  C   UNL     1       3.576  -0.961   3.353  0.00  0.00    +0.206 C 
BRANCH  26  27
ATOM     27  C   UNL     1       2.587  -0.297   4.314  0.00  0.00    +0.017 C 
ATOM     28  C   UNL     1       2.575  -1.060   5.640  0.00  0.00    +0.010 C 
ATOM     29  C   UNL     1       3.010   1.151   4.563  0.00  0.00    +0.010 C 
ENDBRANCH  26  27
BRANCH  26  30
ATOM     30  C   UNL     1       3.159  -2.388   3.109  0.00  0.00    +0.379 C 
ATOM     31  O   UNL     1       3.711  -3.296   3.706  0.00  0.00    -0.244 OA
ATOM     32  O   UNL     1       2.268  -2.634   2.313  0.00  0.00    -0.244 OA
ENDBRANCH  26  30
ENDBRANCH   5  26
TORSDOF 9
