REMARK  Name = ZINC56750484
REMARK  6 active torsions:
REMARK  status: ('A' for Active; 'I' for Inactive)
REMARK    1  A    between atoms: C_1  and  C_2
REMARK    2  A    between atoms: C_2  and  C_3
REMARK    3  A    between atoms: C_3  and  C_4
REMARK    4  A    between atoms: C_4  and  O_5
REMARK    5  A    between atoms: O_5  and  C_6
REMARK    6  A    between atoms: C_11  and  N_12
REMARK                            x       y       z     vdW  Elec       q    Type
REMARK                         _______ _______ _______ _____ _____    ______ ____
ROOT
ATOM      1  N   UNL     1       2.688  -3.490  -4.693  0.00  0.00    -0.266 N 
ATOM      2  C   UNL     1       3.395  -3.990  -5.725  0.00  0.00    +0.307 C 
ATOM      3  O   UNL     1       3.492  -5.194  -5.870  0.00  0.00    -0.252 OA
ATOM      4  N   UNL     1       3.996  -3.156  -6.598  0.00  0.00    -0.285 N 
ATOM      5  C   UNL     1       3.988  -1.705  -6.372  0.00  0.00    +0.114 C 
ATOM      6  C   UNL     1       3.431  -1.015  -7.621  0.00  0.00    +0.084 C 
ATOM      7  C   UNL     1       4.233  -1.460  -8.846  0.00  0.00    +0.173 C 
ATOM      8  C   UNL     1       4.108  -2.974  -9.028  0.00  0.00    +0.084 C 
ATOM      9  C   UNL     1       4.676  -3.682  -7.789  0.00  0.00    +0.114 C 
ATOM     10  O   UNL     1       3.738  -0.792 -10.013  0.00  0.00    -0.346 OA
ATOM     11  C   UNL     1       4.831  -0.033 -10.569  0.00  0.00    +0.191 C 
ATOM     12  C   UNL     1       6.080  -0.739  -9.983  0.00  0.00    +0.191 C 
ATOM     13  O   UNL     1       5.615  -1.113  -8.664  0.00  0.00    -0.346 OA
ATOM     14  H   UNL     1       2.561  -2.532  -4.611  0.00  0.00    +0.156 HD
ENDROOT
BRANCH   1  20
ATOM     15  C   UNL     1       1.919  -3.911  -2.436  0.00  0.00    +0.142 A 
ATOM     16  C   UNL     1       1.366  -4.768  -1.498  0.00  0.00    +0.047 A 
ATOM     17  C   UNL     1       1.035  -6.062  -1.855  0.00  0.00    +0.004 A 
ATOM     18  C   UNL     1       1.255  -6.505  -3.146  0.00  0.00    +0.002 A 
ATOM     19  C   UNL     1       1.805  -5.656  -4.087  0.00  0.00    +0.027 A 
ATOM     20  C   UNL     1       2.134  -4.355  -3.739  0.00  0.00    +0.077 A 
BRANCH  15  21
ATOM     21  O   UNL     1       2.245  -2.638  -2.087  0.00  0.00    -0.490 OA
BRANCH  21  22
ATOM     22  C   UNL     1       1.996  -2.252  -0.734  0.00  0.00    +0.229 C 
BRANCH  22  23
ATOM     23  C   UNL     1       2.424  -0.797  -0.531  0.00  0.00    +0.041 C 
BRANCH  23  25
ATOM     24  C   UNL     1       2.585   1.071   1.120  0.00  0.00    +0.004 C 
ATOM     25  C   UNL     1       2.158  -0.384   0.918  0.00  0.00    -0.000 C 
ENDBRANCH  23  25
ENDBRANCH  22  23
ENDBRANCH  21  22
ENDBRANCH  15  21
ENDBRANCH   1  20
TORSDOF 5
