REMARK  Name = ZINC04305105
REMARK  6 active torsions:
REMARK  status: ('A' for Active; 'I' for Inactive)
REMARK    1  A    between atoms: N_9  and  C_10
REMARK    2  A    between atoms: C_10  and  C_12
REMARK    3  A    between atoms: C_10  and  C_26
REMARK    4  A    between atoms: C_12  and  N_13
REMARK    5  A    between atoms: C_14  and  C_16
REMARK    6  A    between atoms: C_20  and  N_22
REMARK                            x       y       z     vdW  Elec       q    Type
REMARK                         _______ _______ _______ _____ _____    ______ ____
ROOT
ATOM      1  C   UNL     1      -2.533   1.387   0.021  0.00  0.00    +0.156 C 
ENDROOT
BRANCH   1  10
ATOM      2  C   UNL     1      -6.746   0.239  -2.385  0.00  0.00    +0.000 A 
ATOM      3  C   UNL     1      -5.527  -0.412  -2.453  0.00  0.00    +0.002 A 
ATOM      4  C   UNL     1      -4.394   0.178  -1.934  0.00  0.00    +0.023 A 
ATOM      5  C   UNL     1      -4.469   1.436  -1.337  0.00  0.00    +0.034 A 
ATOM      6  C   UNL     1      -5.699   2.079  -1.269  0.00  0.00    -0.025 A 
ATOM      7  C   UNL     1      -6.829   1.485  -1.791  0.00  0.00    +0.005 A 
ATOM      8  C   UNL     1      -5.494   3.408  -0.569  0.00  0.00    +0.056 C 
ATOM      9  C   UNL     1      -4.112   3.232   0.101  0.00  0.00    +0.110 C 
ATOM     10  N   UNL     1      -3.462   2.217  -0.757  0.00  0.00    -0.318 N 
ENDBRANCH   1  10
BRANCH   1  11
ATOM     11  C   UNL     1      -1.263   2.157   0.275  0.00  0.00    +0.127 A 
ATOM     12  C   UNL     1      -0.016   1.654   0.232  0.00  0.00    +0.046 A 
ATOM     13  C   UNL     1       0.865   2.719   0.526  0.00  0.00    +0.041 A 
ATOM     14  C   UNL     1       0.104   3.808   0.737  0.00  0.00    +0.195 A 
ATOM     15  O   UNL     1      -1.184   3.461   0.586  0.00  0.00    -0.466 OA
ENDBRANCH   1  11
BRANCH   1  16
ATOM     16  C   UNL     1      -3.179   1.013   1.356  0.00  0.00    +0.134 C 
BRANCH  16  17
ATOM     17  N   UNL     1      -4.434   0.298   1.109  0.00  0.00    -0.309 N 
ATOM     18  C   UNL     1      -5.180  -0.132   2.146  0.00  0.00    +0.244 C 
ATOM     19  O   UNL     1      -4.812   0.073   3.286  0.00  0.00    -0.270 OA
ATOM     20  H   UNL     1      -4.727   0.134   0.199  0.00  0.00    +0.149 HD
BRANCH  18  21
ATOM     21  C   UNL     1      -6.445  -0.854   1.896  0.00  0.00    +0.039 A 
ATOM     22  C   UNL     1      -6.873  -1.086   0.588  0.00  0.00    +0.014 A 
ATOM     23  C   UNL     1      -8.052  -1.764   0.361  0.00  0.00    +0.023 A 
ATOM     24  C   UNL     1      -8.817  -2.205   1.429  0.00  0.00    +0.071 A 
ATOM     25  C   UNL     1      -8.401  -1.972   2.729  0.00  0.00    +0.145 A 
ATOM     26  C   UNL     1      -7.220  -1.300   2.968  0.00  0.00    +0.047 A 
ATOM     27 CL   UNL     1     -10.304  -3.052   1.135  0.00  0.00    -0.081 Cl
BRANCH  25  28
ATOM     28  N   UNL     1      -9.223  -2.447   3.864  0.00  0.00    +0.058 N 
ATOM     29  O   UNL     1      -8.858  -2.244   5.008  0.00  0.00    -0.126 OA
ATOM     30  O   UNL     1     -10.266  -3.041   3.654  0.00  0.00    -0.126 OA
ENDBRANCH  25  28
ENDBRANCH  18  21
ENDBRANCH  16  17
ENDBRANCH   1  16
TORSDOF 6
