REMARK  Name = ZINC66240675
REMARK  10 active torsions:
REMARK  status: ('A' for Active; 'I' for Inactive)
REMARK    1  A    between atoms: C_1  and  C_2
REMARK    2  A    between atoms: C_2  and  C_3
REMARK    3  A    between atoms: C_2  and  C_4
REMARK    4  A    between atoms: C_2  and  C_5
REMARK    5  A    between atoms: C_5  and  C_7
REMARK    6  A    between atoms: C_5  and  N_14
REMARK    7  A    between atoms: C_15  and  C_17
REMARK    8  A    between atoms: C_20  and  N_23
REMARK    9  A    between atoms: C_24  and  N_30
REMARK   10  A    between atoms: C_25  and  C_28
REMARK                            x       y       z     vdW  Elec       q    Type
REMARK                         _______ _______ _______ _____ _____    ______ ____
ROOT
ATOM      1  N   UNL     1       0.738  -1.962  -1.265  0.00  0.00    -0.304 N 
ATOM      2  C   UNL     1      -0.315  -2.648  -1.752  0.00  0.00    +0.245 C 
ATOM      3  O   UNL     1      -1.282  -2.051  -2.184  0.00  0.00    -0.270 OA
ATOM      4  H   UNL     1       1.509  -2.439  -0.920  0.00  0.00    +0.150 HD
ENDROOT
BRANCH   2   5
ATOM      5  C   UNL     1      -0.295  -4.124  -1.760  0.00  0.00    +0.037 A 
ATOM      6  C   UNL     1       0.812  -4.812  -1.258  0.00  0.00    +0.015 A 
ATOM      7  C   UNL     1       0.828  -6.189  -1.266  0.00  0.00    +0.028 A 
ATOM      8  C   UNL     1      -0.258  -6.895  -1.774  0.00  0.00    +0.067 A 
ATOM      9  C   UNL     1      -1.362  -6.213  -2.275  0.00  0.00    +0.028 A 
ATOM     10  C   UNL     1      -1.386  -4.837  -2.264  0.00  0.00    +0.015 A 
BRANCH   8  11
ATOM     11  N   UNL     1      -0.239  -8.292  -1.782  0.00  0.00    -0.218 N 
ATOM     12  C   UNL     1      -1.313  -9.103  -1.595  0.00  0.00    +0.137 A 
ATOM     13  C   UNL     1      -0.852 -10.414  -1.681  0.00  0.00    +0.111 A 
ATOM     14  C   UNL     1       0.539 -10.350  -1.927  0.00  0.00    +0.155 A 
ATOM     15  N   UNL     1       0.888  -9.095  -1.990  0.00  0.00    -0.172 NA
BRANCH  12  16
ATOM     16  N   UNL     1      -2.614  -8.703  -1.363  0.00  0.00    -0.342 N 
ATOM     17  H   UNL     1      -2.831  -7.759  -1.321  0.00  0.00    +0.144 HD
ATOM     18  H   UNL     1      -3.311  -9.367  -1.242  0.00  0.00    +0.144 HD
ENDBRANCH  12  16
BRANCH  13  19
ATOM     19  C   UNL     1      -1.638 -11.603  -1.546  0.00  0.00    +0.104 C 
ATOM     20  N   UNL     1      -2.262 -12.547  -1.439  0.00  0.00    -0.191 NA
ENDBRANCH  13  19
ENDBRANCH   8  11
ENDBRANCH   2   5
BRANCH   1  21
ATOM     21  C   UNL     1       0.718  -0.497  -1.257  0.00  0.00    +0.109 C 
BRANCH  21  22
ATOM     22  C   UNL     1       2.132   0.024  -1.268  0.00  0.00    -0.027 A 
ATOM     23  C   UNL     1       3.106  -0.605  -0.515  0.00  0.00    +0.008 A 
ATOM     24  C   UNL     1       4.403  -0.128  -0.524  0.00  0.00    +0.038 A 
ATOM     25  C   UNL     1       4.727   0.981  -1.288  0.00  0.00    +0.123 A 
ATOM     26  C   UNL     1       3.750   1.610  -2.041  0.00  0.00    +0.038 A 
ATOM     27  C   UNL     1       2.455   1.128  -2.034  0.00  0.00    +0.008 A 
ATOM     28  F   UNL     1       5.994   1.448  -1.297  0.00  0.00    -0.205 F 
ENDBRANCH  21  22
BRANCH  21  30
ATOM     29  C   UNL     1      -0.019   1.526   0.010  0.00  0.00    +0.013 C 
ATOM     30  C   UNL     1       0.002  -0.004   0.002  0.00  0.00    -0.015 C 
ATOM     31  C   UNL     1       0.742  -0.511   1.242  0.00  0.00    +0.013 C 
ATOM     32  C   UNL     1      -1.433  -0.534   0.013  0.00  0.00    +0.013 C 
ENDBRANCH  21  30
ENDBRANCH   1  21
TORSDOF 7
