REMARK  Name = ZINC20190818
REMARK  14 active torsions:
REMARK  status: ('A' for Active; 'I' for Inactive)
REMARK    1  A    between atoms: C_1  and  C_2
REMARK    2  A    between atoms: C_2  and  S_3
REMARK    3  A    between atoms: S_3  and  C_4
REMARK    4  A    between atoms: C_4  and  C_5
REMARK    5  A    between atoms: C_5  and  O_6
REMARK    6  A    between atoms: O_6  and  C_7
REMARK    7  A    between atoms: C_7  and  C_9
REMARK    8  A    between atoms: C_10  and  C_37
REMARK    9  A    between atoms: C_14  and  C_16
REMARK   10  A    between atoms: C_20  and  N_22
REMARK   11  A    between atoms: C_27  and  C_33
REMARK   12  A    between atoms: C_29  and  C_32
REMARK   13  A    between atoms: C_33  and  O_35
REMARK   14  A    between atoms: O_35  and  C_36
REMARK                            x       y       z     vdW  Elec       q    Type
REMARK                         _______ _______ _______ _____ _____    ______ ____
ROOT
ATOM      1  C   UNL     1      -0.749   1.562   1.226  0.00  0.00    +0.065 C 
ATOM      2  C   UNL     1      -0.300   2.600   1.951  0.00  0.00    +0.016 C 
ATOM      3  N   UNL     1       0.852   3.246   1.597  0.00  0.00    -0.321 N 
ATOM      4  C   UNL     1       1.767   2.640   0.778  0.00  0.00    +0.016 C 
ATOM      5  C   UNL     1       1.405   1.600  -0.003  0.00  0.00    +0.025 C 
ATOM      6  C   UNL     1      -0.013   1.086   0.008  0.00  0.00    +0.092 C 
ATOM      7  C   UNL     1       2.334   0.970  -0.848  0.00  0.00    +0.176 C 
ATOM      8  O   UNL     1       1.980   0.026  -1.527  0.00  0.00    -0.291 OA
ATOM      9  C   UNL     1       3.761   1.442  -0.927  0.00  0.00    +0.171 C 
ATOM     10  C   UNL     1       3.808   2.939  -0.605  0.00  0.00    +0.013 C 
ATOM     11  C   UNL     1       3.184   3.159   0.775  0.00  0.00    +0.055 C 
ATOM     12  C   UNL     1       3.015   3.717  -1.657  0.00  0.00    +0.009 C 
ATOM     13  C   UNL     1      -1.072   3.057   3.163  0.00  0.00    +0.061 C 
ATOM     14  H   UNL     1       1.050   4.261   1.970  0.00  0.00    +0.152 HD
ENDROOT
BRANCH   6  15
ATOM     15  C   UNL     1      -0.727   1.577  -1.225  0.00  0.00    -0.033 A 
ATOM     16  C   UNL     1      -0.875   2.935  -1.443  0.00  0.00    +0.005 A 
ATOM     17  C   UNL     1      -1.529   3.386  -2.574  0.00  0.00    +0.003 A 
ATOM     18  C   UNL     1      -2.036   2.480  -3.486  0.00  0.00    +0.033 A 
ATOM     19  C   UNL     1      -1.889   1.123  -3.268  0.00  0.00    +0.126 A 
ATOM     20  C   UNL     1      -1.229   0.672  -2.140  0.00  0.00    +0.037 A 
BRANCH  19  21
ATOM     21  N   UNL     1      -2.431   0.153  -4.246  0.00  0.00    +0.056 N 
ATOM     22  O   UNL     1      -3.008   0.550  -5.242  0.00  0.00    -0.126 OA
ATOM     23  O   UNL     1      -2.301  -1.043  -4.053  0.00  0.00    -0.126 OA
ENDBRANCH  19  21
ENDBRANCH   6  15
BRANCH   1  24
ATOM     24  C   UNL     1      -1.939   0.905   1.617  0.00  0.00    +0.338 C 
ATOM     25  O   UNL     1      -2.546   1.281   2.603  0.00  0.00    -0.245 OA
BRANCH  24  26
ATOM     26  O   UNL     1      -2.402  -0.139   0.898  0.00  0.00    -0.460 OA
BRANCH  26  27
ATOM     27  C   UNL     1      -3.609  -0.755   1.352  0.00  0.00    +0.243 C 
BRANCH  27  28
ATOM     28  C   UNL     1      -3.974  -1.911   0.418  0.00  0.00    +0.110 C 
BRANCH  28  29
ATOM     29  S   UNL     1      -5.506  -2.693   0.993  0.00  0.00    -0.158 S 
BRANCH  29  31
ATOM     30  C   UNL     1      -7.076  -4.775   0.168  0.00  0.00    +0.015 C 
ATOM     31  C   UNL     1      -5.796  -4.024  -0.204  0.00  0.00    +0.066 C 
ENDBRANCH  29  31
ENDBRANCH  28  29
ENDBRANCH  27  28
ENDBRANCH  26  27
ENDBRANCH  24  26
ENDBRANCH   1  24
BRANCH   9  32
ATOM     32  C   UNL     1       4.293   1.208  -2.317  0.00  0.00    +0.318 C 
ATOM     33  O   UNL     1       4.673   2.141  -2.984  0.00  0.00    -0.250 OA
BRANCH  32  34
ATOM     34  O   UNL     1       4.347  -0.038  -2.815  0.00  0.00    -0.467 OA
ATOM     35  C   UNL     1       4.871  -0.188  -4.160  0.00  0.00    +0.280 C 
ENDBRANCH  32  34
ENDBRANCH   9  32
TORSDOF 10
