REMARK  Name = ZINC13505633
REMARK  10 active torsions:
REMARK  status: ('A' for Active; 'I' for Inactive)
REMARK    1  A    between atoms: C_1  and  C_2
REMARK    2  A    between atoms: C_8  and  C_10
REMARK    3  A    between atoms: C_10  and  C_11
REMARK    4  A    between atoms: C_11  and  C_12
REMARK    5  A    between atoms: N_14  and  C_15
REMARK    6  A    between atoms: N_14  and  C_21
REMARK    7  A    between atoms: C_15  and  C_16
REMARK    8  A    between atoms: C_21  and  C_23
REMARK    9  A    between atoms: C_21  and  C_29
REMARK   10  A    between atoms: N_31  and  C_32
REMARK                            x       y       z     vdW  Elec       q    Type
REMARK                         _______ _______ _______ _____ _____    ______ ____
ROOT
ATOM      1  C   UNL     1      -6.919   6.197   5.229  0.00  0.00    +0.217 C 
ATOM      2  O   UNL     1      -7.016   6.253   4.021  0.00  0.00    -0.276 OA
ATOM      3  N   UNL     1      -7.963   5.776   5.970  0.00  0.00    -0.279 N 
ENDROOT
BRANCH   1   4
ATOM      4  C   UNL     1      -5.631   6.599   5.901  0.00  0.00    +0.105 C 
BRANCH   4   5
ATOM      5  C   UNL     1      -4.617   7.033   4.841  0.00  0.00    +0.105 C 
BRANCH   5  13
ATOM      6  C   UNL     1       2.343   9.463   4.952  0.00  0.00    +0.066 C 
ATOM      7  C   UNL     1       1.068   8.970   5.587  0.00  0.00    +0.047 A 
ATOM      8  C   UNL     1       0.970   8.836   6.932  0.00  0.00    +0.071 A 
ATOM      9  S   UNL     1      -0.707   8.237   7.084  0.00  0.00    -0.060 S 
ATOM     10  C   UNL     1      -1.097   8.226   5.392  0.00  0.00    +0.165 A 
ATOM     11  N   UNL     1       0.021   8.664   4.846  0.00  0.00    -0.230 NA
ATOM     12  N   UNL     1      -2.285   7.856   4.772  0.00  0.00    -0.265 N 
ATOM     13  C   UNL     1      -3.329   7.435   5.513  0.00  0.00    +0.219 C 
ATOM     14  O   UNL     1      -3.232   7.379   6.721  0.00  0.00    -0.275 OA
ATOM     15  H   UNL     1      -2.362   7.901   3.806  0.00  0.00    +0.157 HD
ENDBRANCH   5  13
ENDBRANCH   4   5
ENDBRANCH   1   4
BRANCH   3  16
ATOM     16  C   UNL     1      -7.846   5.709   7.428  0.00  0.00    +0.183 C 
BRANCH  16  17
ATOM     17  C   UNL     1      -8.088   7.075   8.016  0.00  0.00    +0.122 A 
ATOM     18  C   UNL     1      -8.880   7.351   9.067  0.00  0.00    +0.046 A 
ATOM     19  C   UNL     1      -8.815   8.748   9.275  0.00  0.00    +0.041 A 
ATOM     20  C   UNL     1      -7.986   9.243   8.338  0.00  0.00    +0.195 A 
ATOM     21  O   UNL     1      -7.544   8.224   7.582  0.00  0.00    -0.466 OA
ENDBRANCH  16  17
ENDBRANCH   3  16
BRANCH   3  22
ATOM     22  C   UNL     1      -9.215   5.386   5.316  0.00  0.00    +0.193 C 
BRANCH  22  23
ATOM     23  C   UNL     1      -9.274   3.885   5.200  0.00  0.00    -0.018 A 
ATOM     24  C   UNL     1      -8.726   3.093   6.191  0.00  0.00    +0.006 A 
ATOM     25  C   UNL     1      -8.784   1.715   6.086  0.00  0.00    +0.000 A 
ATOM     26  C   UNL     1      -9.382   1.131   4.986  0.00  0.00    +0.000 A 
ATOM     27  C   UNL     1      -9.926   1.923   3.992  0.00  0.00    +0.000 A 
ATOM     28  C   UNL     1      -9.872   3.300   4.099  0.00  0.00    +0.006 A 
ENDBRANCH  22  23
BRANCH  22  29
ATOM     29  C   UNL     1     -10.382   5.873   6.136  0.00  0.00    +0.238 C 
ATOM     30  O   UNL     1     -10.435   5.626   7.322  0.00  0.00    -0.273 OA
ATOM     31  N   UNL     1     -11.367   6.582   5.551  0.00  0.00    -0.311 N 
ATOM     32  H   UNL     1     -11.325   6.780   4.602  0.00  0.00    +0.149 HD
BRANCH  31  33
ATOM     33  C   UNL     1     -12.502   7.056   6.348  0.00  0.00    +0.073 C 
ATOM     34  C   UNL     1     -13.603   5.976   6.392  0.00  0.00    +0.022 C 
ATOM     35  C   UNL     1     -14.926   6.780   6.339  0.00  0.00    +0.002 C 
ATOM     36  C   UNL     1     -14.589   7.927   5.354  0.00  0.00    +0.002 C 
ATOM     37  C   UNL     1     -13.129   8.296   5.687  0.00  0.00    +0.022 C 
ENDBRANCH  31  33
ENDBRANCH  22  29
ENDBRANCH   3  22
TORSDOF 9
