REMARK  Name = ZINC23015236
REMARK  11 active torsions:
REMARK  status: ('A' for Active; 'I' for Inactive)
REMARK    1  A    between atoms: C_1  and  C_2
REMARK    2  A    between atoms: C_2  and  O_3
REMARK    3  A    between atoms: O_3  and  C_4
REMARK    4  A    between atoms: C_4  and  C_6
REMARK    5  A    between atoms: C_7  and  C_20
REMARK    6  A    between atoms: C_12  and  C_14
REMARK    7  A    between atoms: C_17  and  C_19
REMARK    8  A    between atoms: C_20  and  O_21
REMARK    9  A    between atoms: O_21  and  C_22
REMARK   10  A    between atoms: C_22  and  C_24
REMARK   11  A    between atoms: C_25  and  N_29
REMARK                            x       y       z     vdW  Elec       q    Type
REMARK                         _______ _______ _______ _____ _____    ______ ____
ROOT
ATOM      1  C   UNL     1       2.958   1.472   1.484  0.00  0.00    +0.084 C 
ATOM      2  C   UNL     1       4.004   2.274   1.780  0.00  0.00    +0.061 C 
ATOM      3  N   UNL     1       4.645   2.985   0.806  0.00  0.00    -0.269 N 
ATOM      4  C   UNL     1       4.301   2.949  -0.487  0.00  0.00    +0.305 C 
ATOM      5  O   UNL     1       4.933   3.618  -1.282  0.00  0.00    -0.252 OA
ATOM      6  N   UNL     1       3.278   2.196  -0.937  0.00  0.00    -0.285 N 
ATOM      7  C   UNL     1       2.521   1.390   0.036  0.00  0.00    +0.179 C 
ATOM      8  H   UNL     1       5.495   3.633   1.067  0.00  0.00    +0.156 HD
ATOM      9  H   UNL     1       3.004   2.174  -2.002  0.00  0.00    +0.151 HD
ENDROOT
BRANCH   7  10
ATOM     10  C   UNL     1       1.076   1.810  -0.038  0.00  0.00    +0.130 A 
ATOM     11  C   UNL     1       0.013   0.988   0.024  0.00  0.00    +0.047 A 
ATOM     12  C   UNL     1      -1.140   1.799  -0.088  0.00  0.00    +0.045 A 
ATOM     13  C   UNL     1      -0.713   3.069  -0.203  0.00  0.00    +0.102 A 
ATOM     14  O   UNL     1       0.630   3.070  -0.176  0.00  0.00    -0.463 OA
ATOM     15  C   UNL     1      -1.592   4.285  -0.347  0.00  0.00    +0.086 C 
ENDBRANCH   7  10
BRANCH   1  16
ATOM     16  C   UNL     1       2.293   0.736   2.492  0.00  0.00    +0.339 C 
ATOM     17  O   UNL     1       2.528  -0.450   2.634  0.00  0.00    -0.245 OA
BRANCH  16  18
ATOM     18  O   UNL     1       1.398   1.347   3.295  0.00  0.00    -0.462 OA
BRANCH  18  20
ATOM     19  C   UNL     1      -0.210   1.403   5.098  0.00  0.00    +0.048 C 
ATOM     20  C   UNL     1       0.764   0.542   4.291  0.00  0.00    +0.229 C 
ENDBRANCH  18  20
ENDBRANCH  16  18
ENDBRANCH   1  16
BRANCH   2  21
ATOM     21  C   UNL     1       4.472   2.385   3.208  0.00  0.00    +0.284 C 
BRANCH  21  22
ATOM     22  O   UNL     1       5.792   1.848   3.321  0.00  0.00    -0.455 OA
BRANCH  22  23
ATOM     23  C   UNL     1       6.361   1.871   4.544  0.00  0.00    +0.348 C 
ATOM     24  O   UNL     1       5.751   2.336   5.490  0.00  0.00    -0.244 OA
BRANCH  23  25
ATOM     25  C   UNL     1       7.667   1.356   4.728  0.00  0.00    +0.120 A 
ATOM     26  C   UNL     1       8.430   1.290   5.893  0.00  0.00    +0.067 A 
ATOM     27  C   UNL     1       9.683   0.727   5.783  0.00  0.00    +0.034 A 
ATOM     28  C   UNL     1      10.107   0.284   4.572  0.00  0.00    +0.048 A 
ATOM     29  S   UNL     1       8.767   0.628   3.527  0.00  0.00    -0.088 S 
BRANCH  26  30
ATOM     30  N   UNL     1       7.946   1.769   7.114  0.00  0.00    -0.322 N 
ATOM     31  C   UNL     1       7.391   3.000   7.324  0.00  0.00    +0.091 A 
ATOM     32  C   UNL     1       7.046   3.090   8.624  0.00  0.00    +0.019 A 
ATOM     33  C   UNL     1       7.406   1.876   9.243  0.00  0.00    +0.019 A 
ATOM     34  C   UNL     1       7.954   1.086   8.297  0.00  0.00    +0.091 A 
ENDBRANCH  26  30
ENDBRANCH  23  25
ENDBRANCH  22  23
ENDBRANCH  21  22
ENDBRANCH   2  21
TORSDOF 9
