REMARK  Name = ZINC36500516
REMARK  17 active torsions:
REMARK  status: ('A' for Active; 'I' for Inactive)
REMARK    1  A    between atoms: C_1  and  C_2
REMARK    2  A    between atoms: C_7  and  C_8
REMARK    3  A    between atoms: C_8  and  C_10
REMARK    4  A    between atoms: C_8  and  N_21
REMARK    5  A    between atoms: N_12  and  C_13
REMARK    6  A    between atoms: C_13  and  C_14
REMARK    7  A    between atoms: C_13  and  C_15
REMARK    8  A    between atoms: C_13  and  C_16
REMARK    9  A    between atoms: C_16  and  C_17
REMARK   10  A    between atoms: C_17  and  C_18
REMARK   11  A    between atoms: C_17  and  C_19
REMARK   12  A    between atoms: C_17  and  C_20
REMARK   13  A    between atoms: N_21  and  C_22
REMARK   14  A    between atoms: C_22  and  C_23
REMARK   15  A    between atoms: C_28  and  C_30
REMARK   16  A    between atoms: C_31  and  O_37
REMARK   17  A    between atoms: C_35  and  O_36
REMARK                            x       y       z     vdW  Elec       q    Type
REMARK                         _______ _______ _______ _____ _____    ______ ____
ROOT
ATOM      1  C   UNL     1      -0.989   0.871   3.037  0.00  0.00    +0.193 C 
ENDROOT
BRANCH   1   8
ATOM      2  C   UNL     1       1.339   2.546   2.693  0.00  0.00    +0.044 C 
ATOM      3  C   UNL     1       0.631   1.983   1.488  0.00  0.00    -0.045 A 
ATOM      4  C   UNL     1       1.099   2.264   0.217  0.00  0.00    +0.004 A 
ATOM      5  C   UNL     1       0.450   1.748  -0.888  0.00  0.00    +0.000 A 
ATOM      6  C   UNL     1      -0.668   0.951  -0.723  0.00  0.00    +0.000 A 
ATOM      7  C   UNL     1      -1.135   0.669   0.546  0.00  0.00    +0.006 A 
ATOM      8  C   UNL     1      -0.483   1.182   1.653  0.00  0.00    -0.015 A 
ENDBRANCH   1   8
BRANCH   1   9
ATOM      9  C   UNL     1      -2.403   0.356   2.951  0.00  0.00    +0.239 C 
ATOM     10  O   UNL     1      -2.673  -0.748   3.375  0.00  0.00    -0.273 OA
ATOM     11  N   UNL     1      -3.367   1.123   2.404  0.00  0.00    -0.308 N 
ATOM     12  H   UNL     1      -3.138   1.974   1.999  0.00  0.00    +0.149 HD
BRANCH  11  13
ATOM     13  C   UNL     1      -4.760   0.671   2.422  0.00  0.00    +0.030 C 
ATOM     14  C   UNL     1      -4.909  -0.559   1.524  0.00  0.00    +0.031 C 
ATOM     15  C   UNL     1      -5.161   0.309   3.853  0.00  0.00    +0.031 C 
BRANCH  13  16
ATOM     16  C   UNL     1      -5.666   1.791   1.906  0.00  0.00    +0.031 C 
BRANCH  16  17
ATOM     17  C   UNL     1      -5.054   3.147   2.264  0.00  0.00    -0.036 C 
ATOM     18  C   UNL     1      -3.981   3.509   1.236  0.00  0.00    +0.010 C 
ATOM     19  C   UNL     1      -6.147   4.218   2.258  0.00  0.00    +0.010 C 
ATOM     20  C   UNL     1      -4.423   3.071   3.655  0.00  0.00    +0.010 C 
ENDBRANCH  16  17
ENDBRANCH  13  16
ENDBRANCH  11  13
ENDBRANCH   1   9
BRANCH   1  21
ATOM     21  N   UNL     1      -0.135  -0.149   3.652  0.00  0.00    -0.274 N 
ATOM     22  C   UNL     1      -0.004  -1.357   3.071  0.00  0.00    +0.255 C 
ATOM     23  O   UNL     1      -0.594  -1.602   2.036  0.00  0.00    -0.270 OA
BRANCH  22  24
ATOM     24  C   UNL     1       0.855  -2.382   3.688  0.00  0.00    +0.119 A 
ATOM     25  C   UNL     1       0.319  -3.286   4.617  0.00  0.00    +0.133 A 
ATOM     26  C   UNL     1       1.135  -4.247   5.192  0.00  0.00    +0.046 A 
ATOM     27  C   UNL     1       2.474  -4.315   4.853  0.00  0.00    +0.007 A 
ATOM     28  C   UNL     1       3.013  -3.429   3.939  0.00  0.00    +0.046 A 
ATOM     29  C   UNL     1       2.213  -2.464   3.348  0.00  0.00    +0.133 A 
BRANCH  29  30
ATOM     30  O   UNL     1       2.743  -1.599   2.447  0.00  0.00    -0.506 OA
ATOM     31  H   UNL     1       3.094  -0.789   2.840  0.00  0.00    +0.292 HD
ENDBRANCH  29  30
BRANCH  25  32
ATOM     32  O   UNL     1      -0.994  -3.220   4.951  0.00  0.00    -0.506 OA
ATOM     33  H   UNL     1      -1.570  -3.760   4.392  0.00  0.00    +0.292 HD
ENDBRANCH  25  32
ENDBRANCH  22  24
BRANCH  21  34
ATOM     34  C   UNL     1       0.576   0.146   4.898  0.00  0.00    +0.183 C 
BRANCH  34  35
ATOM     35  C   UNL     1      -0.366  -0.013   6.064  0.00  0.00    +0.122 A 
ATOM     36  C   UNL     1      -0.450  -1.090   6.866  0.00  0.00    +0.046 A 
ATOM     37  C   UNL     1      -1.457  -0.813   7.819  0.00  0.00    +0.041 A 
ATOM     38  C   UNL     1      -1.929   0.416   7.542  0.00  0.00    +0.195 A 
ATOM     39  O   UNL     1      -1.260   0.898   6.481  0.00  0.00    -0.466 OA
ENDBRANCH  34  35
ENDBRANCH  21  34
ENDBRANCH   1  21
TORSDOF 11
