REMARK  Name = ZINC09833749
REMARK  6 active torsions:
REMARK  status: ('A' for Active; 'I' for Inactive)
REMARK    1  A    between atoms: C_9  and  O_12
REMARK    2  A    between atoms: O_12  and  C_13
REMARK    3  A    between atoms: C_13  and  C_14
REMARK    4  A    between atoms: N_16  and  N_17
REMARK    5  A    between atoms: C_18  and  C_19
REMARK    6  A    between atoms: C_22  and  N_24
REMARK                            x       y       z     vdW  Elec       q    Type
REMARK                         _______ _______ _______ _____ _____    ______ ____
ROOT
ATOM      1  C   UNL     1      -0.742   1.585  -1.213  0.00  0.00    +0.270 C 
ATOM      2  O   UNL     1      -1.732   2.266  -1.089  0.00  0.00    -0.270 OA
ATOM      3  N   UNL     1      -0.288   1.272  -2.443  0.00  0.00    -0.204 N 
ATOM      4  H   UNL     1       0.507   0.726  -2.543  0.00  0.00    +0.177 HD
ENDROOT
BRANCH   3   5
ATOM      5  N   UNL     1      -0.912   1.700  -3.488  0.00  0.00    -0.187 NA
ATOM      6  C   UNL     1      -0.462   1.389  -4.710  0.00  0.00    +0.145 C 
BRANCH   6   7
ATOM      7  C   UNL     1      -1.130   1.847  -5.828  0.00  0.00    +0.034 A 
ATOM      8  C   UNL     1      -0.815   1.628  -7.261  0.00  0.00    +0.019 A 
ATOM      9  C   UNL     1      -1.649   2.199  -8.129  0.00  0.00    +0.041 A 
ATOM     10  C   UNL     1      -2.740   2.948  -7.654  0.00  0.00    +0.164 A 
ATOM     11  S   UNL     1      -2.603   2.849  -5.929  0.00  0.00    -0.064 S 
BRANCH  10  12
ATOM     12  N   UNL     1      -3.783   3.662  -8.454  0.00  0.00    +0.063 N 
ATOM     13  O   UNL     1      -3.740   3.629  -9.770  0.00  0.00    -0.126 OA
ATOM     14  O   UNL     1      -4.744   4.322  -7.843  0.00  0.00    -0.126 OA
ENDBRANCH  10  12
ENDBRANCH   6   7
ENDBRANCH   3   5
BRANCH   1  15
ATOM     15  C   UNL     1      -0.013   1.086   0.008  0.00  0.00    +0.326 C 
BRANCH  15  16
ATOM     16  O   UNL     1      -0.682   1.547   1.184  0.00  0.00    -0.482 OA
BRANCH  16  25
ATOM     17  C   UNL     1       0.933   0.448   7.196  0.00  0.00    +0.001 A 
ATOM     18  C   UNL     1      -0.215   1.238   7.174  0.00  0.00    +0.001 A 
ATOM     19  C   UNL     1      -0.778   1.622   5.996  0.00  0.00    +0.010 A 
ATOM     20  C   UNL     1      -0.195   1.218   4.782  0.00  0.00    -0.000 A 
ATOM     21  C   UNL     1       0.973   0.416   4.804  0.00  0.00    -0.017 A 
ATOM     22  C   UNL     1       1.525   0.039   6.041  0.00  0.00    +0.008 A 
ATOM     23  C   UNL     1       1.559   0.011   3.593  0.00  0.00    +0.012 A 
ATOM     24  C   UNL     1       1.003   0.391   2.411  0.00  0.00    +0.047 A 
ATOM     25  C   UNL     1      -0.149   1.182   2.380  0.00  0.00    +0.136 A 
ATOM     26  C   UNL     1      -0.746   1.601   3.547  0.00  0.00    +0.067 A 
ATOM     27 BR   UNL     1      -2.300   2.677   3.490  0.00  0.00    -0.046 Br
ENDBRANCH  16  25
ENDBRANCH  15  16
ENDBRANCH   1  15
TORSDOF 6
