REMARK  Name = ZINC10071278
REMARK  7 active torsions:
REMARK  status: ('A' for Active; 'I' for Inactive)
REMARK    1  A    between atoms: C_1  and  C_2
REMARK    2  A    between atoms: C_5  and  N_11
REMARK    3  A    between atoms: C_6  and  N_8
REMARK    4  A    between atoms: C_12  and  C_14
REMARK    5  A    between atoms: C_14  and  O_15
REMARK    6  A    between atoms: O_15  and  C_16
REMARK    7  A    between atoms: C_23  and  C_28
REMARK                            x       y       z     vdW  Elec       q    Type
REMARK                         _______ _______ _______ _____ _____    ______ ____
ROOT
ATOM      1  C   UNL     1      -3.533   1.923  -0.260  0.00  0.00    +0.325 C 
ENDROOT
BRANCH   1   3
ATOM      2  N   UNL     1      -1.073   1.974  -0.001  0.00  0.00    -0.281 N 
ATOM      3  C   UNL     1      -2.195   1.240  -0.144  0.00  0.00    +0.255 C 
ATOM      4  O   UNL     1      -2.127   0.029  -0.179  0.00  0.00    -0.272 OA
ATOM      5  H   UNL     1      -1.134   2.936   0.109  0.00  0.00    +0.155 HD
BRANCH   2  10
ATOM      6  C   UNL     1       4.006  -0.553  -0.059  0.00  0.00    +0.044 C 
ATOM      7  C   UNL     1       2.656   0.117  -0.042  0.00  0.00    -0.048 A 
ATOM      8  C   UNL     1       1.582  -0.479  -0.676  0.00  0.00    +0.005 A 
ATOM      9  C   UNL     1       0.344   0.133  -0.662  0.00  0.00    +0.026 A 
ATOM     10  C   UNL     1       0.178   1.349  -0.011  0.00  0.00    +0.064 A 
ATOM     11  C   UNL     1       1.259   1.944   0.625  0.00  0.00    +0.148 A 
ATOM     12  C   UNL     1       2.495   1.327   0.608  0.00  0.00    +0.038 A 
BRANCH  11  13
ATOM     13  N   UNL     1       1.088   3.240   1.319  0.00  0.00    +0.058 N 
ATOM     14  O   UNL     1       2.054   3.810   1.793  0.00  0.00    -0.126 OA
ATOM     15  O   UNL     1      -0.020   3.737   1.417  0.00  0.00    -0.126 OA
ENDBRANCH  11  13
ENDBRANCH   2  10
ENDBRANCH   1   3
BRANCH   1  16
ATOM     16  O   UNL     1      -4.559   0.939  -0.402  0.00  0.00    -0.481 OA
BRANCH  16  17
ATOM     17  C   UNL     1      -5.834   1.391  -0.519  0.00  0.00    +0.143 A 
ATOM     18  C   UNL     1      -6.085   2.753  -0.492  0.00  0.00    +0.094 A 
ATOM     19  C   UNL     1      -7.386   3.216  -0.617  0.00  0.00    +0.143 A 
ATOM     20  C   UNL     1      -8.439   2.292  -0.759  0.00  0.00    +0.022 A 
ATOM     21  C   UNL     1      -8.168   0.919  -0.779  0.00  0.00    +0.035 A 
ATOM     22  C   UNL     1      -6.880   0.480  -0.660  0.00  0.00    +0.083 A 
ATOM     23 CL   UNL     1      -6.544  -1.223  -0.684  0.00  0.00    -0.080 Cl
ATOM     24  C   UNL     1      -9.809   2.792  -0.885  0.00  0.00    -0.033 A 
ATOM     25  C   UNL     1     -10.008   4.136  -0.859  0.00  0.00    +0.096 A 
ATOM     26  C   UNL     1      -8.906   5.004  -0.713  0.00  0.00    +0.337 A 
ATOM     27  O   UNL     1      -9.098   6.207  -0.692  0.00  0.00    -0.245 OA
ATOM     28  O   UNL     1      -7.652   4.540  -0.599  0.00  0.00    -0.422 OA
ATOM     29  C   UNL     1     -10.969   1.842  -1.040  0.00  0.00    +0.045 C 
ENDBRANCH  16  17
ENDBRANCH   1  16
TORSDOF 5
