REMARK  Name = ZINC19194244
REMARK  10 active torsions:
REMARK  status: ('A' for Active; 'I' for Inactive)
REMARK    1  A    between atoms: C_1  and  C_2
REMARK    2  A    between atoms: C_2  and  O_3
REMARK    3  A    between atoms: O_3  and  C_4
REMARK    4  A    between atoms: C_4  and  C_6
REMARK    5  A    between atoms: C_7  and  C_19
REMARK    6  A    between atoms: C_12  and  C_14
REMARK    7  A    between atoms: C_19  and  O_20
REMARK    8  A    between atoms: O_20  and  C_21
REMARK    9  A    between atoms: C_21  and  C_23
REMARK   10  A    between atoms: C_24  and  C_33
REMARK                            x       y       z     vdW  Elec       q    Type
REMARK                         _______ _______ _______ _____ _____    ______ ____
ROOT
ATOM      1  C   UNL     1      -0.025   0.048  -0.097  0.00  0.00    +0.084 C 
ATOM      2  C   UNL     1       0.019   1.398  -0.118  0.00  0.00    +0.061 C 
ATOM      3  N   UNL     1       1.206   2.066  -0.025  0.00  0.00    -0.269 N 
ATOM      4  C   UNL     1       2.393   1.458   0.092  0.00  0.00    +0.305 C 
ATOM      5  O   UNL     1       3.398   2.138   0.168  0.00  0.00    -0.252 OA
ATOM      6  N   UNL     1       2.511   0.116   0.127  0.00  0.00    -0.285 N 
ATOM      7  C   UNL     1       1.288  -0.698   0.034  0.00  0.00    +0.179 C 
ATOM      8  H   UNL     1       1.222   3.166  -0.044  0.00  0.00    +0.156 HD
ATOM      9  H   UNL     1       3.491  -0.374   0.224  0.00  0.00    +0.151 HD
ENDROOT
BRANCH   7  10
ATOM     10  C   UNL     1       1.425  -1.608  -1.159  0.00  0.00    +0.130 A 
ATOM     11  C   UNL     1       1.164  -2.928  -1.176  0.00  0.00    +0.047 A 
ATOM     12  C   UNL     1       1.426  -3.380  -2.490  0.00  0.00    +0.041 A 
ATOM     13  C   UNL     1       1.831  -2.310  -3.197  0.00  0.00    +0.195 A 
ATOM     14  O   UNL     1       1.823  -1.239  -2.388  0.00  0.00    -0.466 OA
ENDBRANCH   7  10
BRANCH   1  15
ATOM     15  C   UNL     1      -1.254  -0.645  -0.193  0.00  0.00    +0.339 C 
ATOM     16  O   UNL     1      -1.775  -1.101   0.808  0.00  0.00    -0.245 OA
BRANCH  15  17
ATOM     17  O   UNL     1      -1.849  -0.801  -1.394  0.00  0.00    -0.462 OA
BRANCH  17  19
ATOM     18  C   UNL     1      -3.607  -1.586  -2.854  0.00  0.00    +0.048 C 
ATOM     19  C   UNL     1      -3.089  -1.512  -1.416  0.00  0.00    +0.229 C 
ENDBRANCH  17  19
ENDBRANCH  15  17
ENDBRANCH   1  15
BRANCH   2  20
ATOM     20  C   UNL     1      -1.263   2.179  -0.253  0.00  0.00    +0.283 C 
BRANCH  20  21
ATOM     21  O   UNL     1      -1.491   2.946   0.958  0.00  0.00    -0.455 OA
BRANCH  21  22
ATOM     22  C   UNL     1      -2.605   3.706   1.001  0.00  0.00    +0.347 C 
ATOM     23  O   UNL     1      -3.363   3.726   0.051  0.00  0.00    -0.244 OA
BRANCH  22  24
ATOM     24  C   UNL     1      -2.901   4.508   2.193  0.00  0.00    +0.100 A 
ATOM     25  C   UNL     1      -3.962   5.328   2.422  0.00  0.00    -0.019 A 
ATOM     26  C   UNL     1      -4.066   6.017   3.643  0.00  0.00    +0.028 A 
ATOM     27  C   UNL     1      -5.090   6.909   4.064  0.00  0.00    +0.132 A 
ATOM     28  C   UNL     1      -5.035   7.499   5.300  0.00  0.00    +0.039 A 
ATOM     29  C   UNL     1      -3.987   7.248   6.177  0.00  0.00    +0.004 A 
ATOM     30  C   UNL     1      -2.975   6.388   5.801  0.00  0.00    +0.016 A 
ATOM     31  C   UNL     1      -3.015   5.786   4.562  0.00  0.00    +0.023 A 
ATOM     32  S   UNL     1      -1.961   4.643   3.705  0.00  0.00    -0.081 S 
ATOM     33  F   UNL     1      -6.125   7.177   3.240  0.00  0.00    -0.205 F 
ATOM     34  C   UNL     1      -5.025   5.498   1.367  0.00  0.00    +0.046 C 
ENDBRANCH  22  24
ENDBRANCH  21  22
ENDBRANCH  20  21
ENDBRANCH   2  20
TORSDOF 8
