REMARK  Name = ZINC40178576
REMARK  13 active torsions:
REMARK  status: ('A' for Active; 'I' for Inactive)
REMARK    1  A    between atoms: C_1  and  C_2
REMARK    2  A    between atoms: C_2  and  N_3
REMARK    3  A    between atoms: N_3  and  C_4
REMARK    4  A    between atoms: N_3  and  C_6
REMARK    5  A    between atoms: C_4  and  C_5
REMARK    6  A    between atoms: C_6  and  C_7
REMARK    7  A    between atoms: C_7  and  C_8
REMARK    8  A    between atoms: C_8  and  N_9
REMARK    9  A    between atoms: N_9  and  C_10
REMARK   10  A    between atoms: C_11  and  S_24
REMARK   11  A    between atoms: C_13  and  C_15
REMARK   12  A    between atoms: C_20  and  N_21
REMARK   13  A    between atoms: S_24  and  C_27
REMARK                            x       y       z     vdW  Elec       q    Type
REMARK                         _______ _______ _______ _____ _____    ______ ____
ROOT
ATOM      1  C   UNL     1       0.488  -5.049   3.381  0.00  0.00    +0.233 A 
ATOM      2  C   UNL     1       0.618  -5.148   4.866  0.00  0.00    +0.243 A 
ATOM      3  N   UNL     1       0.243  -6.354   5.186  0.00  0.00    -0.188 NA
ATOM      4  C   UNL     1      -0.110  -7.029   4.067  0.00  0.00    +0.234 A 
ATOM      5  O   UNL     1       0.030  -6.250   2.977  0.00  0.00    -0.420 OA
ENDROOT
BRANCH   4   6
ATOM      6  C   UNL     1      -0.566  -8.365   4.045  0.00  0.00    +0.067 A 
ATOM      7  C   UNL     1       0.254  -9.405   4.534  0.00  0.00    +0.015 A 
ATOM      8  C   UNL     1      -0.198 -10.693   4.508  0.00  0.00    +0.001 A 
ATOM      9  C   UNL     1      -1.460 -10.982   4.003  0.00  0.00    +0.002 A 
ATOM     10  C   UNL     1      -2.275  -9.968   3.519  0.00  0.00    +0.033 A 
ATOM     11  C   UNL     1      -1.848  -8.671   3.540  0.00  0.00    +0.138 A 
BRANCH  11  12
ATOM     12  N   UNL     1      -2.724  -7.591   3.030  0.00  0.00    +0.057 N 
ATOM     13  O   UNL     1      -3.864  -7.890   2.441  0.00  0.00    -0.126 OA
ATOM     14  O   UNL     1      -2.363  -6.331   3.164  0.00  0.00    -0.126 OA
ENDBRANCH  11  12
ENDBRANCH   4   6
BRANCH   2  15
ATOM     15  S   UNL     1       1.168  -3.886   5.966  0.00  0.00    +0.047 S 
ATOM     16  O   UNL     1       1.657  -4.544   7.127  0.00  0.00    -0.163 OA
ATOM     17  O   UNL     1       1.971  -3.000   5.198  0.00  0.00    -0.163 OA
BRANCH  15  18
ATOM     18  C   UNL     1      -0.254  -2.974   6.466  0.00  0.00    +0.099 A 
ATOM     19  C   UNL     1      -0.663  -1.877   5.730  0.00  0.00    +0.031 A 
ATOM     20  C   UNL     1      -1.777  -1.157   6.120  0.00  0.00    +0.051 A 
ATOM     21  C   UNL     1      -2.489  -1.535   7.249  0.00  0.00    +0.162 A 
ATOM     22  C   UNL     1      -2.079  -2.639   7.987  0.00  0.00    +0.164 A 
ATOM     23  C   UNL     1      -0.962  -3.359   7.588  0.00  0.00    +0.076 A 
ATOM     24  O   UNL     1      -2.767  -3.032   9.093  0.00  0.00    -0.485 OA
ATOM     25  C   UNL     1      -3.661  -2.074   9.669  0.00  0.00    +0.270 C 
ATOM     26  C   UNL     1      -4.485  -1.444   8.537  0.00  0.00    +0.270 C 
ATOM     27  O   UNL     1      -3.582  -0.815   7.622  0.00  0.00    -0.485 OA
ENDBRANCH  15  18
ENDBRANCH   2  15
BRANCH   1  28
ATOM     28  N   UNL     1       0.761  -3.996   2.620  0.00  0.00    -0.312 N 
ATOM     29  H   UNL     1       1.088  -3.177   3.024  0.00  0.00    +0.149 HD
BRANCH  28  30
ATOM     30  C   UNL     1       0.570  -4.072   1.170  0.00  0.00    +0.102 C 
BRANCH  30  31
ATOM     31  C   UNL     1       0.955  -2.735   0.534  0.00  0.00    +0.000 C 
BRANCH  31  32
ATOM     32  C   UNL     1       0.754  -2.813  -0.981  0.00  0.00    -0.077 C 
BRANCH  32  33
ATOM     33  N   UNL     1       1.124  -1.530  -1.591  0.00  0.00    +0.379 N 
ATOM     34  H   UNL     1       0.600  -0.786  -1.154  0.00  0.00    -0.082 HD
BRANCH  33  36
ATOM     35  C   UNL     1       2.918   0.109  -1.899  0.00  0.00    -0.017 C 
ATOM     36  C   UNL     1       2.562  -1.293  -1.401  0.00  0.00    -0.082 C 
ENDBRANCH  33  36
BRANCH  33  37
ATOM     37  C   UNL     1       0.820  -1.564  -3.028  0.00  0.00    -0.082 C 
ATOM     38  C   UNL     1      -0.695  -1.654  -3.226  0.00  0.00    -0.017 C 
ENDBRANCH  33  37
ENDBRANCH  32  33
ENDBRANCH  31  32
ENDBRANCH  30  31
ENDBRANCH  28  30
ENDBRANCH   1  28
TORSDOF 11
