REMARK  Name = ZINC08868741
REMARK  9 active torsions:
REMARK  status: ('A' for Active; 'I' for Inactive)
REMARK    1  A    between atoms: C_1  and  C_2
REMARK    2  A    between atoms: C_5  and  S_8
REMARK    3  A    between atoms: S_8  and  N_11
REMARK    4  A    between atoms: C_15  and  C_17
REMARK    5  A    between atoms: N_19  and  C_20
REMARK    6  A    between atoms: C_21  and  C_31
REMARK    7  A    between atoms: C_28  and  C_29
REMARK    8  A    between atoms: C_28  and  C_30
REMARK    9  A    between atoms: C_28  and  N_63
REMARK                            x       y       z     vdW  Elec       q    Type
REMARK                         _______ _______ _______ _____ _____    ______ ____
ROOT
ATOM      1  C   UNL     1      -1.159   0.300   2.281  0.00  0.00    +0.236 C 
ATOM      2  O   UNL     1      -2.290  -0.108   2.442  0.00  0.00    -0.274 OA
ATOM      3  N   UNL     1      -0.140  -0.249   2.971  0.00  0.00    -0.278 N 
ATOM      4  H   UNL     1       0.764   0.078   2.843  0.00  0.00    +0.155 HD
ENDROOT
BRANCH   3   5
ATOM      5  C   UNL     1      -0.384  -1.280   3.865  0.00  0.00    +0.084 A 
ATOM      6  C   UNL     1       0.526  -1.970   4.656  0.00  0.00    +0.068 A 
ATOM      7  C   UNL     1       0.006  -3.014   5.518  0.00  0.00    -0.027 A 
ATOM      8  C   UNL     1      -1.331  -3.211   5.446  0.00  0.00    -0.021 A 
ATOM      9  S   UNL     1      -1.898  -2.026   4.261  0.00  0.00    -0.079 S 
ATOM     10  C   UNL     1      -2.123  -4.222   6.214  0.00  0.00    -0.035 C 
ATOM     11  C   UNL     1      -0.077  -4.524   7.477  0.00  0.00    -0.073 C 
ATOM     12  C   UNL     1       0.854  -3.866   6.455  0.00  0.00    +0.018 C 
ATOM     13  N   UNL     1      -1.172  -5.217   6.768  0.00  0.00    +0.384 N 
ATOM     14  H   UNL     1      -0.776  -5.766   5.997  0.00  0.00    -0.081 HD
BRANCH   6  15
ATOM     15  C   UNL     1       1.957  -1.653   4.623  0.00  0.00    +0.244 C 
ATOM     16  O   UNL     1       2.412  -0.818   5.383  0.00  0.00    -0.270 OA
ATOM     17  N   UNL     1       2.768  -2.284   3.752  0.00  0.00    -0.325 N 
ATOM     18  H   UNL     1       2.405  -2.949   3.146  0.00  0.00    +0.145 HD
ATOM     19  H   UNL     1       3.715  -2.074   3.730  0.00  0.00    +0.145 HD
ENDBRANCH   6  15
BRANCH  13  20
ATOM     20  C   UNL     1      -1.877  -6.129   7.695  0.00  0.00    -0.074 C 
ATOM     21  C   UNL     1      -3.020  -6.816   6.944  0.00  0.00    -0.014 C 
ATOM     22  C   UNL     1      -0.891  -7.184   8.200  0.00  0.00    -0.014 C 
ENDBRANCH  13  20
ENDBRANCH   3   5
BRANCH   1  27
ATOM     23  N   UNL     1      -2.114   2.230   1.127  0.00  0.00    -0.165 NA
ATOM     24  C   UNL     1      -2.523   2.156  -0.288  0.00  0.00    +0.110 C 
ATOM     25  C   UNL     1      -1.225   1.812  -1.059  0.00  0.00    +0.019 C 
ATOM     26  C   UNL     1      -0.524   0.842  -0.072  0.00  0.00    +0.031 C 
ATOM     27  C   UNL     1      -0.894   1.421   1.310  0.00  0.00    +0.166 C 
BRANCH  23  28
ATOM     28  S   UNL     1      -2.894   3.080   2.314  0.00  0.00    +0.062 S 
ATOM     29  O   UNL     1      -4.269   3.108   1.957  0.00  0.00    -0.153 OA
ATOM     30  O   UNL     1      -2.439   2.555   3.554  0.00  0.00    -0.153 OA
BRANCH  28  35
ATOM     31  C   UNL     1      -0.921   8.775   2.025  0.00  0.00    +0.044 C 
ATOM     32  C   UNL     1      -1.414   7.352   2.096  0.00  0.00    -0.050 A 
ATOM     33  C   UNL     1      -2.583   6.992   1.454  0.00  0.00    +0.005 A 
ATOM     34  C   UNL     1      -3.035   5.688   1.520  0.00  0.00    +0.029 A 
ATOM     35  C   UNL     1      -2.318   4.743   2.229  0.00  0.00    +0.106 A 
ATOM     36  C   UNL     1      -1.151   5.104   2.877  0.00  0.00    +0.029 A 
ATOM     37  C   UNL     1      -0.696   6.407   2.806  0.00  0.00    +0.005 A 
ENDBRANCH  28  35
ENDBRANCH  23  28
ENDBRANCH   1  27
TORSDOF 6
