REMARK  Name = ZINC22874078
REMARK  9 active torsions:
REMARK  status: ('A' for Active; 'I' for Inactive)
REMARK    1  A    between atoms: C_4  and  C_7
REMARK    2  A    between atoms: N_10  and  C_12
REMARK    3  A    between atoms: C_12  and  C_13
REMARK    4  A    between atoms: C_16  and  C_19
REMARK    5  A    between atoms: N_21  and  N_22
REMARK    6  A    between atoms: C_23  and  C_25
REMARK    7  A    between atoms: C_30  and  O_31
REMARK    8  A    between atoms: O_31  and  C_32
REMARK    9  A    between atoms: C_32  and  C_33
REMARK                            x       y       z     vdW  Elec       q    Type
REMARK                         _______ _______ _______ _____ _____    ______ ____
ROOT
ATOM      1  C   UNL     1       6.354   6.869  -5.452  0.00  0.00    +0.260 C 
ATOM      2  O   UNL     1       5.464   7.479  -6.013  0.00  0.00    -0.269 OA
ATOM      3  N   UNL     1       7.507   6.612  -6.101  0.00  0.00    -0.230 N 
ATOM      4  H   UNL     1       8.312   6.061  -5.594  0.00  0.00    +0.173 HD
ENDROOT
BRANCH   1   8
ATOM      5  C   UNL     1       5.830   5.550  -1.449  0.00  0.00    -0.024 A 
ATOM      6  C   UNL     1       7.018   5.290  -2.110  0.00  0.00    +0.006 A 
ATOM      7  C   UNL     1       7.192   5.710  -3.413  0.00  0.00    +0.013 A 
ATOM      8  C   UNL     1       6.172   6.410  -4.059  0.00  0.00    +0.038 A 
ATOM      9  C   UNL     1       4.979   6.674  -3.384  0.00  0.00    +0.013 A 
ATOM     10  C   UNL     1       4.815   6.243  -2.084  0.00  0.00    +0.006 A 
BRANCH   5  11
ATOM     11  C   UNL     1       5.645   5.082  -0.028  0.00  0.00    +0.203 C 
BRANCH  11  15
ATOM     12  C   UNL     1       3.660   2.165  -0.022  0.00  0.00    +0.205 A 
ATOM     13  N   UNL     1       4.897   1.648  -0.037  0.00  0.00    -0.108 NA
ATOM     14  N   UNL     1       5.725   2.637  -0.041  0.00  0.00    -0.045 NA
ATOM     15  N   UNL     1       5.060   3.739  -0.029  0.00  0.00    -0.158 N 
ATOM     16  N   UNL     1       3.799   3.476  -0.022  0.00  0.00    -0.130 NA
BRANCH  12  20
ATOM     17  C   UNL     1       0.002  -0.004   0.002  0.00  0.00    +0.000 A 
ATOM     18  C   UNL     1      -0.017   1.379   0.010  0.00  0.00    +0.001 A 
ATOM     19  C   UNL     1       1.168   2.088   0.002  0.00  0.00    +0.012 A 
ATOM     20  C   UNL     1       2.383   1.408  -0.014  0.00  0.00    +0.023 A 
ATOM     21  C   UNL     1       2.397   0.015  -0.021  0.00  0.00    +0.012 A 
ATOM     22  C   UNL     1       1.206  -0.684  -0.013  0.00  0.00    +0.001 A 
ENDBRANCH  12  20
ENDBRANCH  11  15
ENDBRANCH   5  11
ENDBRANCH   1   8
BRANCH   3  23
ATOM     23  N   UNL     1       7.680   7.048  -7.421  0.00  0.00    -0.230 N 
ATOM     24  C   UNL     1       8.833   6.791  -8.070  0.00  0.00    +0.264 C 
ATOM     25  O   UNL     1       9.723   6.181  -7.510  0.00  0.00    -0.269 OA
ATOM     26  H   UNL     1       6.875   7.599  -7.929  0.00  0.00    +0.173 HD
BRANCH  24  27
ATOM     27  C   UNL     1       9.015   7.250  -9.461  0.00  0.00    +0.080 A 
ATOM     28  C   UNL     1       7.995   7.951 -10.108  0.00  0.00    +0.017 A 
ATOM     29  C   UNL     1       8.171   8.376 -11.407  0.00  0.00    +0.001 A 
ATOM     30  C   UNL     1       9.356   8.112 -12.075  0.00  0.00    +0.004 A 
ATOM     31  C   UNL     1      10.373   7.420 -11.446  0.00  0.00    +0.046 A 
ATOM     32  C   UNL     1      10.214   6.990 -10.137  0.00  0.00    +0.133 A 
BRANCH  32  33
ATOM     33  O   UNL     1      11.214   6.315  -9.517  0.00  0.00    -0.489 OA
BRANCH  33  34
ATOM     34  C   UNL     1      12.408   6.087 -10.269  0.00  0.00    +0.260 C 
BRANCH  34  35
ATOM     35  C   UNL     1      13.413   5.318  -9.410  0.00  0.00    +0.156 C 
ATOM     36  C   UNL     1      14.749   5.173 -10.170  0.00  0.00    +0.037 C 
ATOM     37  C   UNL     1      15.181   3.726  -9.800  0.00  0.00    +0.031 C 
ATOM     38  C   UNL     1      13.805   3.021  -9.708  0.00  0.00    +0.160 C 
ATOM     39  O   UNL     1      12.918   4.000  -9.144  0.00  0.00    -0.373 OA
ENDBRANCH  34  35
ENDBRANCH  33  34
ENDBRANCH  32  33
ENDBRANCH  24  27
ENDBRANCH   3  23
TORSDOF 9
