REMARK  Name = ZINC09608202
REMARK  12 active torsions:
REMARK  status: ('A' for Active; 'I' for Inactive)
REMARK    1  A    between atoms: C_1  and  C_2
REMARK    2  A    between atoms: C_2  and  N_3
REMARK    3  A    between atoms: N_3  and  C_4
REMARK    4  A    between atoms: N_3  and  C_6
REMARK    5  A    between atoms: C_4  and  C_5
REMARK    6  A    between atoms: C_9  and  N_13
REMARK    7  A    between atoms: C_10  and  C_12
REMARK    8  A    between atoms: C_14  and  C_16
REMARK    9  A    between atoms: C_19  and  C_22
REMARK   10  A    between atoms: C_22  and  N_23
REMARK   11  A    between atoms: N_23  and  S_24
REMARK   12  A    between atoms: S_24  and  C_27
REMARK                            x       y       z     vdW  Elec       q    Type
REMARK                         _______ _______ _______ _____ _____    ______ ____
ROOT
ATOM      1  C   UNL     1      -7.343   4.235  -0.158  0.00  0.00    +0.075 C 
ATOM      2  C   UNL     1      -7.536   5.106   1.085  0.00  0.00    +0.013 C 
ATOM      3  C   UNL     1      -8.865   5.858   0.979  0.00  0.00    +0.005 C 
ATOM      4  C   UNL     1     -10.013   4.853   0.877  0.00  0.00    +0.005 C 
ATOM      5  C   UNL     1      -9.820   3.982  -0.365  0.00  0.00    +0.005 C 
ATOM      6  C   UNL     1      -8.492   3.230  -0.260  0.00  0.00    +0.013 C 
ENDROOT
BRANCH   1   8
ATOM      7  N   UNL     1      -4.879   4.180   0.047  0.00  0.00    -0.285 N 
ATOM      8  C   UNL     1      -6.035   3.494  -0.054  0.00  0.00    +0.220 C 
ATOM      9  O   UNL     1      -6.022   2.282  -0.060  0.00  0.00    -0.275 OA
ATOM     10  H   UNL     1      -4.893   5.146   0.132  0.00  0.00    +0.155 HD
BRANCH   7  14
ATOM     11  C   UNL     1      -1.237   2.147  -0.013  0.00  0.00    +0.030 A 
ATOM     12  C   UNL     1      -2.357   1.585  -0.613  0.00  0.00    +0.025 A 
ATOM     13  C   UNL     1      -3.563   2.255  -0.588  0.00  0.00    +0.025 A 
ATOM     14  C   UNL     1      -3.655   3.497   0.027  0.00  0.00    +0.036 A 
ATOM     15  C   UNL     1      -2.535   4.061   0.623  0.00  0.00    -0.028 A 
ATOM     16  C   UNL     1      -1.329   3.389   0.603  0.00  0.00    +0.028 A 
ATOM     17  C   UNL     1      -2.635   5.408   1.290  0.00  0.00    +0.046 C 
BRANCH  11  18
ATOM     18  N   UNL     1      -0.016   1.466  -0.033  0.00  0.00    -0.330 N 
BRANCH  18  20
ATOM     19  C   UNL     1      -0.216  -0.943   0.340  0.00  0.00    +0.024 C 
ATOM     20  C   UNL     1       0.082   0.156  -0.682  0.00  0.00    +0.102 C 
ENDBRANCH  18  20
BRANCH  18  21
ATOM     21  C   UNL     1       1.168   2.064   0.590  0.00  0.00    +0.102 C 
ATOM     22  C   UNL     1       1.911   2.916  -0.441  0.00  0.00    +0.024 C 
ENDBRANCH  18  21
ENDBRANCH  11  18
ENDBRANCH   7  14
ENDBRANCH   1   8
BRANCH   4  23
ATOM     23  C   UNL     1     -11.342   5.605   0.771  0.00  0.00    +0.109 C 
BRANCH  23  24
ATOM     24  N   UNL     1     -11.584   6.345   2.012  0.00  0.00    -0.190 NA
ATOM     25  H   UNL     1     -11.068   6.140   2.808  0.00  0.00    +0.148 HD
BRANCH  24  26
ATOM     26  S   UNL     1     -12.738   7.532   2.056  0.00  0.00    +0.061 S 
ATOM     27  O   UNL     1     -12.751   8.037   3.385  0.00  0.00    -0.153 OA
ATOM     28  O   UNL     1     -12.507   8.365   0.928  0.00  0.00    -0.153 OA
BRANCH  26  29
ATOM     29  C   UNL     1     -14.296   6.753   1.797  0.00  0.00    +0.133 A 
ATOM     30  C   UNL     1     -15.226   6.754   2.783  0.00  0.00    +0.031 A 
ATOM     31  C   UNL     1     -16.470   6.147   2.613  0.00  0.00    +0.004 A 
ATOM     32  C   UNL     1     -16.805   5.530   1.454  0.00  0.00    +0.031 A 
ATOM     33  C   UNL     1     -15.881   5.491   0.378  0.00  0.00    +0.102 A 
ATOM     34  C   UNL     1     -14.581   6.131   0.554  0.00  0.00    +0.126 A 
ATOM     35  N   UNL     1     -13.816   6.014  -0.530  0.00  0.00    -0.189 NA
ATOM     36  S   UNL     1     -14.663   5.220  -1.581  0.00  0.00    +0.117 S 
ATOM     37  N   UNL     1     -16.010   4.944  -0.830  0.00  0.00    -0.191 NA
ENDBRANCH  26  29
ENDBRANCH  24  26
ENDBRANCH  23  24
ENDBRANCH   4  23
TORSDOF 9
