REMARK  Name = ZINC16218934
REMARK  7 active torsions:
REMARK  status: ('A' for Active; 'I' for Inactive)
REMARK    1  A    between atoms: C_5  and  N_26
REMARK    2  A    between atoms: C_6  and  C_7
REMARK    3  A    between atoms: C_7  and  O_9
REMARK    4  A    between atoms: O_9  and  C_10
REMARK    5  A    between atoms: C_10  and  C_11
REMARK    6  A    between atoms: C_11  and  C_13
REMARK    7  A    between atoms: C_15  and  C_19
REMARK                            x       y       z     vdW  Elec       q    Type
REMARK                         _______ _______ _______ _____ _____    ______ ____
ROOT
ATOM      1  C   UNL     1      -3.423  -1.412  -0.114  0.00  0.00    +0.311 C 
ENDROOT
BRANCH   1   2
ATOM      2  C   UNL     1      -4.719  -0.651  -0.225  0.00  0.00    +0.202 C 
ATOM      3  O   UNL     1      -4.707   0.560  -0.296  0.00  0.00    -0.288 OA
BRANCH   2   4
ATOM      4  C   UNL     1      -5.994  -1.374  -0.247  0.00  0.00    +0.039 A 
ATOM      5  C   UNL     1      -7.285  -0.803  -0.352  0.00  0.00    +0.043 A 
ATOM      6  C   UNL     1      -8.178  -1.831  -0.334  0.00  0.00    +0.103 A 
ATOM      7  N   UNL     1      -7.478  -3.014  -0.222  0.00  0.00    -0.356 N 
ATOM      8  H   UNL     1      -7.873  -3.899  -0.187  0.00  0.00    +0.165 HD
ATOM      9  C   UNL     1      -6.164  -2.748  -0.175  0.00  0.00    +0.094 A 
BRANCH   6  10
ATOM     10  C   UNL     1      -9.638  -1.703  -0.420  0.00  0.00    +0.263 C 
ATOM     11  O   UNL     1     -10.147  -0.602  -0.517  0.00  0.00    -0.268 OA
ATOM     12  N   UNL     1     -10.415  -2.804  -0.392  0.00  0.00    -0.296 N 
ATOM     13  C   UNL     1      -9.934  -4.188  -0.272  0.00  0.00    +0.108 C 
ATOM     14  C   UNL     1     -11.173  -5.108  -0.308  0.00  0.00    +0.020 C 
ATOM     15  C   UNL     1     -12.238  -4.229  -1.015  0.00  0.00    +0.020 C 
ATOM     16  C   UNL     1     -11.887  -2.820  -0.469  0.00  0.00    +0.108 C 
ENDBRANCH   6  10
ENDBRANCH   2   4
ENDBRANCH   1   2
BRANCH   1  17
ATOM     17  O   UNL     1      -2.329  -0.492  -0.113  0.00  0.00    -0.453 OA
BRANCH  17  18
ATOM     18  C   UNL     1      -1.090  -1.015  -0.020  0.00  0.00    +0.341 C 
ATOM     19  O   UNL     1      -0.943  -2.219   0.059  0.00  0.00    -0.245 OA
BRANCH  18  25
ATOM     20  C   UNL     1      -0.082   1.261   0.022  0.00  0.00    +0.037 A 
ATOM     21  C   UNL     1       1.022   2.086   0.029  0.00  0.00    +0.043 A 
ATOM     22  C   UNL     1       2.300   1.548   0.001  0.00  0.00    +0.042 A 
ATOM     23  C   UNL     1       2.481   0.179  -0.034  0.00  0.00    +0.064 A 
ATOM     24  C   UNL     1       1.380  -0.669  -0.040  0.00  0.00    +0.057 A 
ATOM     25  C   UNL     1       0.085  -0.127  -0.012  0.00  0.00    +0.082 A 
ATOM     26 CL   UNL     1       4.085  -0.482  -0.069  0.00  0.00    -0.082 Cl
ATOM     27 CL   UNL     1       0.811   3.809   0.071  0.00  0.00    -0.083 Cl
BRANCH  24  28
ATOM     28  N   UNL     1       1.560  -2.046  -0.075  0.00  0.00    -0.356 N 
ATOM     29  H   UNL     1       2.450  -2.417  -0.177  0.00  0.00    +0.142 HD
ATOM     30  H   UNL     1       0.794  -2.638   0.002  0.00  0.00    +0.142 HD
ENDBRANCH  24  28
ENDBRANCH  18  25
ENDBRANCH  17  18
ENDBRANCH   1  17
TORSDOF 7
