REMARK  Name = ZINC21899392
REMARK  12 active torsions:
REMARK  status: ('A' for Active; 'I' for Inactive)
REMARK    1  A    between atoms: C_1  and  C_2
REMARK    2  A    between atoms: C_7  and  O_8
REMARK    3  A    between atoms: O_8  and  C_9
REMARK    4  A    between atoms: C_9  and  C_10
REMARK    5  A    between atoms: C_10  and  C_11
REMARK    6  A    between atoms: C_11  and  C_12
REMARK    7  A    between atoms: N_14  and  N_15
REMARK    8  A    between atoms: C_16  and  C_18
REMARK    9  A    between atoms: C_18  and  N_19
REMARK   10  A    between atoms: C_24  and  C_31
REMARK   11  A    between atoms: C_27  and  C_29
REMARK   12  A    between atoms: C_27  and  C_30
REMARK                            x       y       z     vdW  Elec       q    Type
REMARK                         _______ _______ _______ _____ _____    ______ ____
ROOT
ATOM      1  N   UNL     1      -1.453  -6.407  -3.705  0.00  0.00    -0.233 N 
ATOM      2  C   UNL     1      -1.537  -5.500  -2.712  0.00  0.00    +0.247 C 
ATOM      3  O   UNL     1      -1.130  -5.776  -1.603  0.00  0.00    -0.273 OA
ATOM      4  H   UNL     1      -1.822  -6.157  -4.711  0.00  0.00    +0.173 HD
ENDROOT
BRANCH   1   7
ATOM      5  C   UNL     1      -0.810  -8.574  -4.452  0.00  0.00    +0.229 C 
ATOM      6  O   UNL     1      -1.217  -8.299  -5.560  0.00  0.00    -0.274 OA
ATOM      7  N   UNL     1      -0.894  -7.668  -3.458  0.00  0.00    -0.234 N 
ATOM      8  H   UNL     1      -0.524  -7.918  -2.453  0.00  0.00    +0.173 HD
BRANCH   5   9
ATOM      9  C   UNL     1      -0.209  -9.930  -4.185  0.00  0.00    +0.100 C 
BRANCH   9  10
ATOM     10  C   UNL     1      -0.233 -10.760  -5.470  0.00  0.00    +0.050 C 
BRANCH  10  11
ATOM     11  C   UNL     1       0.377 -12.137  -5.200  0.00  0.00    +0.229 C 
BRANCH  11  12
ATOM     12  O   UNL     1       0.354 -12.912  -6.400  0.00  0.00    -0.492 OA
BRANCH  12  19
ATOM     13  C   UNL     1       0.308 -14.465  -8.759  0.00  0.00    +0.047 C 
ATOM     14  C   UNL     1       0.868 -14.980  -7.458  0.00  0.00    -0.007 A 
ATOM     15  C   UNL     1       1.390 -16.257  -7.388  0.00  0.00    +0.027 A 
ATOM     16  C   UNL     1       1.899 -16.733  -6.193  0.00  0.00    +0.041 A 
ATOM     17  C   UNL     1       1.891 -15.928  -5.066  0.00  0.00    +0.023 A 
ATOM     18  C   UNL     1       1.374 -14.649  -5.134  0.00  0.00    +0.047 A 
ATOM     19  C   UNL     1       0.863 -14.171  -6.332  0.00  0.00    +0.123 A 
ATOM     20 CL   UNL     1       2.548 -18.340  -6.105  0.00  0.00    -0.084 Cl
ENDBRANCH  12  19
ENDBRANCH  11  12
ENDBRANCH  10  11
ENDBRANCH   9  10
ENDBRANCH   5   9
ENDBRANCH   1   7
BRANCH   2  21
ATOM     21  C   UNL     1      -2.138  -4.144  -2.978  0.00  0.00    +0.215 C 
BRANCH  21  22
ATOM     22  N   UNL     1      -2.115  -3.350  -1.748  0.00  0.00    -0.215 N 
ATOM     23  C   UNL     1      -1.093  -2.545  -1.384  0.00  0.00    +0.247 C 
ATOM     24  O   UNL     1      -0.123  -2.273  -2.059  0.00  0.00    -0.273 OA
ATOM     25  C   UNL     1      -1.433  -2.050   0.001  0.00  0.00    +0.113 C 
ATOM     26  C   UNL     1      -1.434  -0.529   0.045  0.00  0.00    +0.038 C 
ATOM     27  C   UNL     1       0.002  -0.004   0.002  0.00  0.00    -0.011 C 
ATOM     28  C   UNL     1       0.741  -0.507   1.240  0.00  0.00    +0.009 C 
ATOM     29  C   UNL     1       0.809  -2.030   1.253  0.00  0.00    -0.032 C 
ATOM     30  C   UNL     1      -0.550  -2.678   1.061  0.00  0.00    +0.041 C 
ATOM     31  C   UNL     1       1.799  -2.521   0.193  0.00  0.00    +0.011 C 
ATOM     32  C   UNL     1       1.355  -2.464   2.631  0.00  0.00    +0.011 C 
ATOM     33  C   UNL     1      -0.019   1.528   0.010  0.00  0.00    +0.007 C 
ATOM     34  N   UNL     1      -2.819  -2.530   0.200  0.00  0.00    -0.285 N 
ATOM     35  C   UNL     1      -3.100  -3.330  -0.844  0.00  0.00    +0.310 C 
ATOM     36  O   UNL     1      -4.132  -3.963  -0.954  0.00  0.00    -0.252 OA
ATOM     37  H   UNL     1      -3.392  -2.210   1.083  0.00  0.00    +0.151 HD
ENDBRANCH  21  22
ENDBRANCH   2  21
TORSDOF 8
