REMARK  Name = ZINC01238598
REMARK  6 active torsions:
REMARK  status: ('A' for Active; 'I' for Inactive)
REMARK    1  A    between atoms: C_1  and  C_2
REMARK    2  A    between atoms: C_7  and  C_8
REMARK    3  A    between atoms: C_7  and  N_56
REMARK    4  A    between atoms: C_9  and  C_19
REMARK    5  A    between atoms: C_19  and  N_58
REMARK    6  A    between atoms: C_22  and  C_25
REMARK                            x       y       z     vdW  Elec       q    Type
REMARK                         _______ _______ _______ _____ _____    ______ ____
ROOT
ATOM      1  C   UNL     1       0.756   5.914   0.054  0.00  0.00    +0.068 A 
ATOM      2  C   UNL     1      -0.493   5.401   0.047  0.00  0.00    +0.052 A 
ATOM      3  N   UNL     1      -0.360   4.045   0.039  0.00  0.00    -0.194 N 
ATOM      4  N   UNL     1       1.018   3.784   0.033  0.00  0.00    -0.059 NA
ATOM      5  N   UNL     1       1.637   4.913   0.042  0.00  0.00    -0.136 NA
ATOM      6  C   UNL     1      -1.393   3.100   0.031  0.00  0.00    +0.240 A 
ATOM      7  C   UNL     1      -1.224   1.645   0.017  0.00  0.00    +0.206 A 
ATOM      8  N   UNL     1      -2.408   1.094   0.020  0.00  0.00    -0.032 NA
ATOM      9  O   UNL     1      -3.369   2.134   0.030  0.00  0.00    -0.239 OA
ATOM     10  N   UNL     1      -2.669   3.366   0.033  0.00  0.00    -0.027 NA
ATOM     11  N   UNL     1      -0.011   0.966   0.007  0.00  0.00    -0.337 N 
ATOM     12  H   UNL     1       0.002  -0.004   0.002  0.00  0.00    +0.144 HD
ATOM     13  H   UNL     1       0.822   1.462   0.002  0.00  0.00    +0.144 HD
ENDROOT
BRANCH   1  14
ATOM     14  C   UNL     1       1.098   7.382   0.068  0.00  0.00    -0.019 C 
BRANCH  14  21
ATOM     15  C   UNL     1       0.693   9.736  -5.125  0.00  0.00    +0.007 C 
ATOM     16  C   UNL     1       0.412   9.328  -3.677  0.00  0.00    -0.018 C 
ATOM     17  C   UNL     1       1.559   9.801  -2.781  0.00  0.00    -0.016 C 
ATOM     18  C   UNL     1       1.303   9.337  -1.345  0.00  0.00    -0.078 C 
ATOM     19  C   UNL     1       0.082   7.397  -2.129  0.00  0.00    -0.078 C 
ATOM     20  C   UNL     1       0.301   7.803  -3.588  0.00  0.00    -0.016 C 
ATOM     21  N   UNL     1       1.231   7.861  -1.324  0.00  0.00    +0.383 N 
ATOM     22  H   UNL     1       2.095   7.479  -1.727  0.00  0.00    -0.081 HD
ENDBRANCH  14  21
ENDBRANCH   1  14
BRANCH   2  23
ATOM     23  C   UNL     1      -1.784   6.178   0.050  0.00  0.00    -0.020 C 
BRANCH  23  30
ATOM     24  C   UNL     1      -1.077   6.886   2.254  0.00  0.00    -0.078 C 
ATOM     25  C   UNL     1      -1.515   6.991   3.717  0.00  0.00    -0.016 C 
ATOM     26  C   UNL     1      -2.685   7.973   3.825  0.00  0.00    -0.018 C 
ATOM     27  C   UNL     1      -3.828   7.493   2.926  0.00  0.00    -0.016 C 
ATOM     28  C   UNL     1      -3.323   7.374   1.486  0.00  0.00    -0.078 C 
ATOM     29  C   UNL     1      -3.167   8.035   5.276  0.00  0.00    +0.007 C 
ATOM     30  N   UNL     1      -2.214   6.397   1.446  0.00  0.00    +0.383 N 
ATOM     31  H   UNL     1      -2.541   5.505   1.838  0.00  0.00    -0.081 HD
ENDBRANCH  23  30
ENDBRANCH   2  23
TORSDOF 4
