REMARK  Name = ZINC40913614
REMARK  7 active torsions:
REMARK  status: ('A' for Active; 'I' for Inactive)
REMARK    1  A    between atoms: C_1  and  C_2
REMARK    2  A    between atoms: C_11  and  O_13
REMARK    3  A    between atoms: O_13  and  C_14
REMARK    4  A    between atoms: C_14  and  C_16
REMARK    5  A    between atoms: C_14  and  C_17
REMARK    6  A    between atoms: N_19  and  C_20
REMARK    7  A    between atoms: C_23  and  N_26
REMARK                            x       y       z     vdW  Elec       q    Type
REMARK                         _______ _______ _______ _____ _____    ______ ____
ROOT
ATOM      1  C   UNL     1       0.067  -2.297   6.027  0.00  0.00    +0.256 C 
ATOM      2  C   UNL     1      -1.256  -1.877   6.671  0.00  0.00    +0.062 C 
ENDROOT
BRANCH   1   3
ATOM      3  C   UNL     1       0.890  -3.068   7.027  0.00  0.00    +0.258 C 
ATOM      4  O   UNL     1       1.218  -4.211   6.790  0.00  0.00    -0.271 OA
ATOM      5  N   UNL     1       1.263  -2.486   8.184  0.00  0.00    -0.282 N 
ATOM      6  H   UNL     1       0.941  -1.598   8.406  0.00  0.00    +0.155 HD
BRANCH   5   7
ATOM      7  C   UNL     1       2.114  -3.162   9.065  0.00  0.00    +0.034 A 
ATOM      8  C   UNL     1       1.979  -2.986  10.435  0.00  0.00    +0.025 A 
ATOM      9  C   UNL     1       2.821  -3.655  11.302  0.00  0.00    +0.034 A 
ATOM     10  C   UNL     1       3.797  -4.499  10.806  0.00  0.00    +0.126 A 
ATOM     11  C   UNL     1       3.935  -4.676   9.442  0.00  0.00    +0.034 A 
ATOM     12  C   UNL     1       3.092  -4.015   8.570  0.00  0.00    +0.025 A 
BRANCH  10  13
ATOM     13  N   UNL     1       4.698  -5.215  11.738  0.00  0.00    +0.056 N 
ATOM     14  O   UNL     1       4.579  -5.061  12.932  0.00  0.00    -0.126 OA
ATOM     15  O   UNL     1       5.552  -5.953  11.306  0.00  0.00    -0.126 OA
ENDBRANCH  10  13
ENDBRANCH   5   7
ENDBRANCH   1   3
BRANCH   1  16
ATOM     16  O   UNL     1      -0.199  -3.123   4.891  0.00  0.00    -0.480 OA
BRANCH  16  27
ATOM     17  C   UNL     1      -1.420  -1.304  -1.232  0.00  0.00    +0.045 C 
ATOM     18  C   UNL     1      -1.250  -0.534   0.053  0.00  0.00    -0.033 A 
ATOM     19  C   UNL     1      -1.355   0.821   0.073  0.00  0.00    +0.096 A 
ATOM     20  C   UNL     1      -1.192   1.518   1.288  0.00  0.00    +0.337 A 
ATOM     21  O   UNL     1      -1.289   2.732   1.292  0.00  0.00    -0.245 OA
ATOM     22  O   UNL     1      -0.935   0.879   2.439  0.00  0.00    -0.422 OA
ATOM     23  C   UNL     1      -0.820  -0.466   2.488  0.00  0.00    +0.143 A 
ATOM     24  C   UNL     1      -0.975  -1.226   1.314  0.00  0.00    +0.021 A 
ATOM     25  C   UNL     1      -0.861  -2.619   1.361  0.00  0.00    +0.015 A 
ATOM     26  C   UNL     1      -0.604  -3.239   2.550  0.00  0.00    +0.046 A 
ATOM     27  C   UNL     1      -0.454  -2.492   3.717  0.00  0.00    +0.125 A 
ATOM     28  C   UNL     1      -0.553  -1.111   3.686  0.00  0.00    +0.092 A 
ENDBRANCH  16  27
ENDBRANCH   1  16
TORSDOF 5
