REMARK  Name = ZINC22408292
REMARK  9 active torsions:
REMARK  status: ('A' for Active; 'I' for Inactive)
REMARK    1  A    between atoms: C_4  and  N_11
REMARK    2  A    between atoms: C_5  and  C_7
REMARK    3  A    between atoms: C_12  and  C_14
REMARK    4  A    between atoms: C_14  and  S_15
REMARK    5  A    between atoms: S_15  and  C_16
REMARK    6  A    between atoms: C_19  and  C_26
REMARK    7  A    between atoms: N_20  and  C_21
REMARK    8  A    between atoms: C_21  and  C_22
REMARK    9  A    between atoms: C_22  and  C_23
REMARK                            x       y       z     vdW  Elec       q    Type
REMARK                         _______ _______ _______ _____ _____    ______ ____
ROOT
ATOM      1  C   UNL     1      -0.219  -0.091   3.106  0.00  0.00    +0.192 A 
ATOM      2  N   UNL     1       0.638  -0.136   4.100  0.00  0.00    -0.122 NA
ATOM      3  N   UNL     1       1.374   0.918   4.097  0.00  0.00    -0.128 NA
ATOM      4  C   UNL     1       1.036   1.699   3.095  0.00  0.00    +0.172 A 
ATOM      5  N   UNL     1       0.006   1.074   2.427  0.00  0.00    -0.301 N 
ENDROOT
BRANCH   4   6
ATOM      6  C   UNL     1       1.642   2.995   2.752  0.00  0.00    +0.056 A 
ATOM      7  C   UNL     1       2.454   3.798   3.513  0.00  0.00    +0.019 A 
ATOM      8  C   UNL     1       2.910   4.979   2.972  0.00  0.00    +0.008 A 
ATOM      9  C   UNL     1       2.534   5.319   1.712  0.00  0.00    +0.046 A 
ATOM     10  S   UNL     1       1.506   3.937   1.242  0.00  0.00    -0.094 S 
ENDBRANCH   4   6
BRANCH   1  11
ATOM     11  S   UNL     1      -1.432  -1.309   2.717  0.00  0.00    -0.077 S 
BRANCH  11  12
ATOM     12  C   UNL     1      -1.110  -2.505   4.037  0.00  0.00    +0.173 C 
BRANCH  12  14
ATOM     13  N   UNL     1      -2.003  -4.689   4.781  0.00  0.00    -0.284 N 
ATOM     14  C   UNL     1      -2.059  -3.669   3.902  0.00  0.00    +0.227 C 
ATOM     15  O   UNL     1      -2.872  -3.688   3.002  0.00  0.00    -0.275 OA
ATOM     16  H   UNL     1      -1.218  -4.709   5.552  0.00  0.00    +0.155 HD
BRANCH  13  20
ATOM     17  C   UNL     1      -4.803  -7.767   4.580  0.00  0.00    +0.001 A 
ATOM     18  C   UNL     1      -4.356  -7.164   3.418  0.00  0.00    +0.002 A 
ATOM     19  C   UNL     1      -3.431  -6.140   3.482  0.00  0.00    +0.024 A 
ATOM     20  C   UNL     1      -2.943  -5.723   4.713  0.00  0.00    +0.045 A 
ATOM     21  C   UNL     1      -3.395  -6.330   5.878  0.00  0.00    +0.076 A 
ATOM     22  C   UNL     1      -4.323  -7.350   5.808  0.00  0.00    +0.014 A 
BRANCH  21  23
ATOM     23  C   UNL     1      -2.873  -5.875   7.217  0.00  0.00    +0.419 C 
ATOM     24  F   UNL     1      -3.471  -6.631   8.231  0.00  0.00    -0.166 F 
ATOM     25  F   UNL     1      -1.486  -6.051   7.261  0.00  0.00    -0.166 F 
ATOM     26  F   UNL     1      -3.178  -4.523   7.401  0.00  0.00    -0.166 F 
ENDBRANCH  21  23
ENDBRANCH  13  20
ENDBRANCH  12  14
ENDBRANCH  11  12
ENDBRANCH   1  11
BRANCH   5  27
ATOM     27  C   UNL     1      -0.703   1.559   1.241  0.00  0.00    +0.135 C 
BRANCH  27  28
ATOM     28  C   UNL     1       0.006   1.057  -0.018  0.00  0.00    +0.117 C 
BRANCH  28  29
ATOM     29  C   UNL     1      -0.723   1.556  -1.239  0.00  0.00    +0.212 C 
ATOM     30  O   UNL     1      -1.713   2.246  -1.114  0.00  0.00    -0.276 OA
ATOM     31  N   UNL     1      -0.276   1.236  -2.469  0.00  0.00    -0.329 N 
ATOM     32  H   UNL     1      -0.808   1.601  -3.360  0.00  0.00    +0.145 HD
ATOM     33  H   UNL     1       0.622   0.611  -2.583  0.00  0.00    +0.145 HD
ENDBRANCH  28  29
ENDBRANCH  27  28
ENDBRANCH   5  27
TORSDOF 9
