REMARK  Name = ZINC08928323
REMARK  5 active torsions:
REMARK  status: ('A' for Active; 'I' for Inactive)
REMARK    1  A    between atoms: C_7  and  N_13
REMARK    2  A    between atoms: C_8  and  C_10
REMARK    3  A    between atoms: C_14  and  C_16
REMARK    4  A    between atoms: N_21  and  S_22
REMARK    5  A    between atoms: S_22  and  C_25
REMARK                            x       y       z     vdW  Elec       q    Type
REMARK                         _______ _______ _______ _____ _____    ______ ____
ROOT
ATOM      1  N   UNL     1       0.033  -0.003   0.025  0.00  0.00    -0.281 N 
ATOM      2  C   UNL     1      -1.040  -0.703   0.442  0.00  0.00    +0.236 C 
ATOM      3  O   UNL     1      -2.068  -0.125   0.727  0.00  0.00    -0.274 OA
ATOM      4  H   UNL     1       0.837  -0.468  -0.255  0.00  0.00    +0.155 HD
ENDROOT
BRANCH   1  11
ATOM      5  C   UNL     1      -2.414   3.099   2.422  0.00  0.00    +0.001 A 
ATOM      6  C   UNL     1      -2.112   4.398   2.035  0.00  0.00    +0.004 A 
ATOM      7  C   UNL     1      -1.183   4.639   1.047  0.00  0.00    +0.047 A 
ATOM      8  C   UNL     1      -0.538   3.575   0.427  0.00  0.00    +0.138 A 
ATOM      9  C   UNL     1      -0.848   2.262   0.824  0.00  0.00    +0.042 A 
ATOM     10  C   UNL     1      -1.792   2.038   1.827  0.00  0.00    +0.013 A 
ATOM     11  C   UNL     1      -0.012   1.386  -0.005  0.00  0.00    +0.092 A 
ATOM     12  C   UNL     1       0.719   2.217  -0.809  0.00  0.00    +0.211 A 
ATOM     13  O   UNL     1       0.393   3.502  -0.545  0.00  0.00    -0.448 OA
BRANCH  12  14
ATOM     14  C   UNL     1       1.698   1.783  -1.804  0.00  0.00    +0.279 C 
ATOM     15  O   UNL     1       1.839   0.597  -2.042  0.00  0.00    -0.267 OA
ATOM     16  N   UNL     1       2.445   2.695  -2.457  0.00  0.00    -0.323 N 
ATOM     17  H   UNL     1       2.333   3.639  -2.267  0.00  0.00    +0.145 HD
ATOM     18  H   UNL     1       3.095   2.406  -3.117  0.00  0.00    +0.145 HD
ENDBRANCH  12  14
ENDBRANCH   1  11
BRANCH   2  19
ATOM     19  C   UNL     1      -0.964  -2.204   0.554  0.00  0.00    +0.166 C 
ATOM     20  C   UNL     1       0.113  -2.599   1.586  0.00  0.00    +0.031 C 
ATOM     21  C   UNL     1      -0.721  -2.843   2.877  0.00  0.00    +0.019 C 
ATOM     22  C   UNL     1      -2.018  -3.459   2.297  0.00  0.00    +0.110 C 
ATOM     23  N   UNL     1      -2.248  -2.736   1.033  0.00  0.00    -0.165 NA
BRANCH  23  24
ATOM     24  S   UNL     1      -3.711  -2.551   0.279  0.00  0.00    +0.062 S 
ATOM     25  O   UNL     1      -4.706  -2.695   1.283  0.00  0.00    -0.153 OA
ATOM     26  O   UNL     1      -3.607  -1.387  -0.529  0.00  0.00    -0.153 OA
BRANCH  24  27
ATOM     27  C   UNL     1      -3.905  -3.913  -0.821  0.00  0.00    +0.106 A 
ATOM     28  C   UNL     1      -3.458  -3.817  -2.126  0.00  0.00    +0.030 A 
ATOM     29  C   UNL     1      -3.605  -4.887  -2.988  0.00  0.00    +0.022 A 
ATOM     30  C   UNL     1      -4.210  -6.051  -2.548  0.00  0.00    +0.041 A 
ATOM     31  C   UNL     1      -4.663  -6.145  -1.244  0.00  0.00    +0.022 A 
ATOM     32  C   UNL     1      -4.510  -5.076  -0.382  0.00  0.00    +0.030 A 
ATOM     33 CL   UNL     1      -4.401  -7.393  -3.633  0.00  0.00    -0.084 Cl
ENDBRANCH  24  27
ENDBRANCH  23  24
ENDBRANCH   2  19
TORSDOF 5
