REMARK  Name = ZINC13206360
REMARK  9 active torsions:
REMARK  status: ('A' for Active; 'I' for Inactive)
REMARK    1  A    between atoms: C_6  and  C_7
REMARK    2  A    between atoms: C_10  and  S_16
REMARK    3  A    between atoms: N_11  and  C_12
REMARK    4  A    between atoms: C_12  and  C_13
REMARK    5  A    between atoms: C_13  and  C_14
REMARK    6  A    between atoms: S_16  and  C_17
REMARK    7  A    between atoms: C_17  and  C_18
REMARK    8  A    between atoms: N_20  and  C_21
REMARK    9  A    between atoms: C_23  and  N_28
REMARK                            x       y       z     vdW  Elec       q    Type
REMARK                         _______ _______ _______ _____ _____    ______ ____
ROOT
ATOM      1  C   UNL     1       1.225   1.502   2.845  0.00  0.00    +0.165 A 
ATOM      2  N   UNL     1       1.552   0.742   3.864  0.00  0.00    -0.128 NA
ATOM      3  N   UNL     1       0.714  -0.226   3.977  0.00  0.00    -0.122 NA
ATOM      4  C   UNL     1      -0.204  -0.139   3.040  0.00  0.00    +0.192 A 
ATOM      5  N   UNL     1       0.092   0.959   2.283  0.00  0.00    -0.302 N 
ENDROOT
BRANCH   1  11
ATOM      6  C   UNL     1       1.707   3.220   1.108  0.00  0.00    +0.014 A 
ATOM      7  C   UNL     1       2.372   4.353   0.688  0.00  0.00    +0.039 A 
ATOM      8  C   UNL     1       3.276   4.982   1.529  0.00  0.00    +0.123 A 
ATOM      9  C   UNL     1       3.513   4.479   2.799  0.00  0.00    +0.039 A 
ATOM     10  C   UNL     1       2.850   3.350   3.231  0.00  0.00    +0.014 A 
ATOM     11  C   UNL     1       1.938   2.713   2.387  0.00  0.00    +0.019 A 
ATOM     12  F   UNL     1       3.929   6.088   1.111  0.00  0.00    -0.205 F 
ENDBRANCH   1  11
BRANCH   5  13
ATOM     13  C   UNL     1      -0.646   1.458   1.120  0.00  0.00    +0.137 C 
BRANCH  13  14
ATOM     14  C   UNL     1      -0.128   0.771  -0.145  0.00  0.00    +0.147 C 
BRANCH  14  15
ATOM     15  C   UNL     1      -0.887   1.284  -1.341  0.00  0.00    +0.358 C 
ATOM     16  O   UNL     1      -1.754   2.114  -1.197  0.00  0.00    -0.246 OA
ATOM     17  O   UNL     1      -0.601   0.819  -2.568  0.00  0.00    -0.246 OA
ENDBRANCH  14  15
ENDBRANCH  13  14
ENDBRANCH   5  13
BRANCH   4  18
ATOM     18  S   UNL     1      -1.561  -1.238   2.802  0.00  0.00    -0.077 S 
BRANCH  18  19
ATOM     19  C   UNL     1      -1.272  -2.395   4.163  0.00  0.00    +0.173 C 
BRANCH  19  20
ATOM     20  C   UNL     1      -2.343  -3.455   4.158  0.00  0.00    +0.228 C 
ATOM     21  O   UNL     1      -3.216  -3.430   3.316  0.00  0.00    -0.275 OA
ATOM     22  N   UNL     1      -2.330  -4.430   5.088  0.00  0.00    -0.282 N 
ATOM     23  H   UNL     1      -1.683  -4.404   5.810  0.00  0.00    +0.155 HD
BRANCH  22  24
ATOM     24  C   UNL     1      -3.252  -5.481   5.012  0.00  0.00    +0.071 A 
ATOM     25  C   UNL     1      -3.894  -5.759   3.813  0.00  0.00    +0.059 A 
ATOM     26  C   UNL     1      -4.800  -6.800   3.740  0.00  0.00    +0.128 A 
ATOM     27  C   UNL     1      -5.075  -7.560   4.863  0.00  0.00    +0.035 A 
ATOM     28  C   UNL     1      -4.443  -7.284   6.061  0.00  0.00    +0.042 A 
ATOM     29  C   UNL     1      -3.531  -6.246   6.140  0.00  0.00    +0.145 A 
ATOM     30  F   UNL     1      -2.913  -5.976   7.310  0.00  0.00    -0.204 F 
BRANCH  26  31
ATOM     31  N   UNL     1      -5.479  -7.100   2.460  0.00  0.00    +0.056 N 
ATOM     32  O   UNL     1      -6.281  -8.014   2.396  0.00  0.00    -0.126 OA
ATOM     33  O   UNL     1      -5.237  -6.431   1.471  0.00  0.00    -0.126 OA
ENDBRANCH  26  31
ENDBRANCH  22  24
ENDBRANCH  19  20
ENDBRANCH  18  19
ENDBRANCH   4  18
TORSDOF 9
