REMARK  Name = ZINC39710433
REMARK  10 active torsions:
REMARK  status: ('A' for Active; 'I' for Inactive)
REMARK    1  A    between atoms: C_1  and  C_2
REMARK    2  A    between atoms: C_2  and  C_3
REMARK    3  A    between atoms: C_10  and  C_15
REMARK    4  A    between atoms: C_15  and  C_17
REMARK    5  A    between atoms: C_15  and  N_27
REMARK    6  A    between atoms: N_22  and  C_23
REMARK    7  A    between atoms: C_23  and  C_24
REMARK    8  A    between atoms: C_23  and  C_25
REMARK    9  A    between atoms: C_23  and  C_26
REMARK   10  A    between atoms: C_30  and  C_33
REMARK                            x       y       z     vdW  Elec       q    Type
REMARK                         _______ _______ _______ _____ _____    ______ ____
ROOT
ATOM      1  C   UNL     1       1.178  -0.479   6.913  0.00  0.00    -0.010 C 
ENDROOT
BRANCH   1   9
ATOM      2  C   UNL     1       4.921  -4.909   6.268  0.00  0.00    -0.047 A 
ATOM      3  C   UNL     1       4.146  -5.744   7.074  0.00  0.00    +0.005 A 
ATOM      4  C   UNL     1       2.877  -5.432   7.447  0.00  0.00    +0.024 A 
ATOM      5  C   UNL     1       2.285  -4.227   7.026  0.00  0.00    +0.040 A 
ATOM      6  N   UNL     1       1.041  -3.930   7.399  0.00  0.00    -0.285 N 
ATOM      7  C   UNL     1       0.425  -2.816   7.039  0.00  0.00    +0.223 C 
ATOM      8  O   UNL     1      -0.713  -2.600   7.411  0.00  0.00    -0.275 OA
ATOM      9  C   UNL     1       1.141  -1.813   6.164  0.00  0.00    +0.088 C 
ATOM     10  C   UNL     1       2.558  -2.145   5.737  0.00  0.00    -0.006 C 
ATOM     11  C   UNL     1       3.081  -3.325   6.175  0.00  0.00    -0.007 A 
ATOM     12  C   UNL     1       4.443  -3.722   5.814  0.00  0.00    +0.013 A 
ATOM     13  H   UNL     1       0.564  -4.561   7.960  0.00  0.00    +0.155 HD
BRANCH   2  15
ATOM     14  C   UNL     1       7.302  -4.817   6.955  0.00  0.00    +0.009 C 
ATOM     15  C   UNL     1       6.320  -5.331   5.900  0.00  0.00    +0.032 C 
ENDBRANCH   2  15
ENDBRANCH   1   9
BRANCH   1  16
ATOM     16  N   UNL     1       1.986  -0.623   8.131  0.00  0.00    +0.385 N 
ATOM     17  C   UNL     1       3.388  -0.856   7.761  0.00  0.00    -0.078 C 
ATOM     18  C   UNL     1       4.220  -1.088   9.024  0.00  0.00    -0.016 C 
ATOM     19  C   UNL     1       4.126   0.147   9.925  0.00  0.00    -0.018 C 
ATOM     20  C   UNL     1       2.654   0.424  10.243  0.00  0.00    -0.016 C 
ATOM     21  C   UNL     1       1.880   0.600   8.935  0.00  0.00    -0.078 C 
ATOM     22  C   UNL     1       4.891  -0.108  11.225  0.00  0.00    +0.007 C 
ATOM     23  H   UNL     1       1.647  -1.408   8.667  0.00  0.00    -0.081 HD
ENDBRANCH   1  16
BRANCH   1  24
ATOM     24  C   UNL     1      -0.246  -0.067   7.292  0.00  0.00    +0.205 C 
ATOM     25  N   UNL     1      -0.908  -1.143   8.042  0.00  0.00    -0.152 NA
ATOM     26  N   UNL     1      -1.899  -1.517   7.411  0.00  0.00    -0.070 NA
ATOM     27  N   UNL     1      -2.076  -0.822   6.215  0.00  0.00    -0.179 N 
ATOM     28  N   UNL     1      -1.073   0.106   6.079  0.00  0.00    -0.183 NA
ATOM     29  H   UNL     1      -2.795  -0.969   5.581  0.00  0.00    +0.191 HD
BRANCH  28  30
ATOM     30  C   UNL     1      -0.285  -0.144   4.864  0.00  0.00    +0.035 C 
ATOM     31  C   UNL     1      -0.413  -1.617   4.468  0.00  0.00    +0.029 C 
ATOM     32  C   UNL     1      -0.806   0.737   3.728  0.00  0.00    +0.029 C 
ATOM     33  C   UNL     1       1.185   0.186   5.133  0.00  0.00    +0.029 C 
ENDBRANCH  28  30
ENDBRANCH   1  24
TORSDOF 5
