REMARK  Name = ZINC39795899
REMARK  7 active torsions:
REMARK  status: ('A' for Active; 'I' for Inactive)
REMARK    1  A    between atoms: C_1  and  C_2
REMARK    2  A    between atoms: C_2  and  C_3
REMARK    3  A    between atoms: C_3  and  N_4
REMARK    4  A    between atoms: C_14  and  S_15
REMARK    5  A    between atoms: S_15  and  C_16
REMARK    6  A    between atoms: C_16  and  C_17
REMARK    7  A    between atoms: C_17  and  C_19
REMARK                            x       y       z     vdW  Elec       q    Type
REMARK                         _______ _______ _______ _____ _____    ______ ____
ROOT
ATOM      1  S   UNL     1      -1.602  -1.736  -2.583  0.00  0.00    -0.080 S 
ENDROOT
BRANCH   1  12
ATOM      2  N   UNL     1       0.738  -1.962  -1.265  0.00  0.00    -0.287 N 
ATOM      3  C   UNL     1       1.768  -2.623  -0.686  0.00  0.00    +0.262 A 
ATOM      4  O   UNL     1       2.683  -2.022  -0.155  0.00  0.00    -0.267 OA
ATOM      5  C   UNL     1       1.739  -4.091  -0.721  0.00  0.00    +0.065 A 
ATOM      6  C   UNL     1       2.753  -4.859  -0.151  0.00  0.00    +0.017 A 
ATOM      7  C   UNL     1       2.683  -6.223  -0.209  0.00  0.00    +0.021 A 
ATOM      8  C   UNL     1       1.610  -6.853  -0.830  0.00  0.00    +0.043 A 
ATOM      9  C   UNL     1       0.594  -6.118  -1.401  0.00  0.00    +0.048 A 
ATOM     10  C   UNL     1       0.644  -4.722  -1.354  0.00  0.00    +0.080 A 
ATOM     11  N   UNL     1      -0.331  -3.959  -1.901  0.00  0.00    -0.223 NA
ATOM     12  C   UNL     1      -0.285  -2.650  -1.852  0.00  0.00    +0.173 A 
ATOM     13 CL   UNL     1       1.550  -8.587  -0.887  0.00  0.00    -0.083 Cl
BRANCH   2  14
ATOM     14  C   UNL     1       0.718  -0.497  -1.257  0.00  0.00    +0.127 C 
BRANCH  14  16
ATOM     15  C   UNL     1      -0.019   1.526   0.010  0.00  0.00    +0.005 C 
ATOM     16  C   UNL     1       0.002  -0.004   0.002  0.00  0.00    +0.018 C 
ENDBRANCH  14  16
ENDBRANCH   2  14
ENDBRANCH   1  12
BRANCH   1  17
ATOM     17  C   UNL     1      -2.717  -3.012  -3.229  0.00  0.00    +0.157 C 
BRANCH  17  18
ATOM     18  C   UNL     1      -3.902  -2.356  -3.890  0.00  0.00    +0.173 C 
ATOM     19  O   UNL     1      -3.986  -1.147  -3.922  0.00  0.00    -0.291 OA
BRANCH  18  20
ATOM     20  C   UNL     1      -4.957  -3.183  -4.496  0.00  0.00    +0.020 A 
ATOM     21  C   UNL     1      -4.848  -4.645  -4.447  0.00  0.00    +0.013 A 
ATOM     22  C   UNL     1      -5.787  -5.451  -4.988  0.00  0.00    +0.026 A 
ATOM     23  C   UNL     1      -6.920  -4.905  -5.626  0.00  0.00    +0.056 A 
ATOM     24  N   UNL     1      -7.973  -5.417  -6.229  0.00  0.00    -0.268 N 
ATOM     25  C   UNL     1      -8.760  -4.392  -6.667  0.00  0.00    +0.308 C 
ATOM     26  O   UNL     1      -9.809  -4.524  -7.263  0.00  0.00    -0.252 OA
ATOM     27  N   UNL     1      -8.185  -3.181  -6.329  0.00  0.00    -0.268 N 
ATOM     28  C   UNL     1      -7.068  -3.418  -5.697  0.00  0.00    +0.057 A 
ATOM     29  C   UNL     1      -6.028  -2.577  -5.093  0.00  0.00    +0.036 A 
ATOM     30  H   UNL     1      -8.549  -2.305  -6.529  0.00  0.00    +0.156 HD
ATOM     31  H   UNL     1      -8.157  -6.362  -6.342  0.00  0.00    +0.156 HD
ENDBRANCH  18  20
ENDBRANCH  17  18
ENDBRANCH   1  17
TORSDOF 6
