REMARK  Name = ZINC09433677
REMARK  8 active torsions:
REMARK  status: ('A' for Active; 'I' for Inactive)
REMARK    1  A    between atoms: C_7  and  C_24
REMARK    2  A    between atoms: C_9  and  C_19
REMARK    3  A    between atoms: N_11  and  C_14
REMARK    4  A    between atoms: N_26  and  C_27
REMARK    5  A    between atoms: C_27  and  C_28
REMARK    6  A    between atoms: C_28  and  C_29
REMARK    7  A    between atoms: C_32  and  S_35
REMARK    8  A    between atoms: S_35  and  N_38
REMARK                            x       y       z     vdW  Elec       q    Type
REMARK                         _______ _______ _______ _____ _____    ______ ____
ROOT
ATOM      1  C   UNL     1      -0.287  -2.951   3.580  0.00  0.00    +0.000 A 
ATOM      2  C   UNL     1      -1.157  -3.516   2.664  0.00  0.00    +0.001 A 
ATOM      3  C   UNL     1      -0.803  -3.600   1.332  0.00  0.00    +0.013 A 
ATOM      4  C   UNL     1       0.436  -3.116   0.917  0.00  0.00    +0.041 A 
ATOM      5  C   UNL     1       1.314  -2.557   1.848  0.00  0.00    -0.021 A 
ATOM      6  C   UNL     1       0.946  -2.473   3.173  0.00  0.00    +0.005 A 
ATOM      7  C   UNL     1       2.660  -2.061   1.391  0.00  0.00    +0.131 C 
ATOM      8  C   UNL     1       2.564  -1.514  -0.031  0.00  0.00    +0.130 C 
ATOM      9  N   UNL     1       1.909  -2.473  -0.917  0.00  0.00    -0.286 N 
ATOM     10  C   UNL     1       0.840  -3.181  -0.503  0.00  0.00    +0.248 C 
ATOM     11  O   UNL     1       0.216  -3.867  -1.289  0.00  0.00    -0.270 OA
ENDROOT
BRANCH   9  12
ATOM     12  C   UNL     1       2.420  -2.667  -2.276  0.00  0.00    +0.077 C 
ATOM     13  C   UNL     1       1.310  -2.374  -3.306  0.00  0.00    +0.022 C 
ATOM     14  C   UNL     1       1.541  -3.423  -4.422  0.00  0.00    +0.002 C 
ATOM     15  C   UNL     1       1.958  -4.684  -3.626  0.00  0.00    +0.002 C 
ATOM     16  C   UNL     1       2.833  -4.135  -2.479  0.00  0.00    +0.022 C 
ENDBRANCH   9  12
BRANCH   8  17
ATOM     17  C   UNL     1       1.773  -0.232  -0.016  0.00  0.00    +0.011 A 
ATOM     18  C   UNL     1       2.220   1.048  -0.013  0.00  0.00    +0.013 A 
ATOM     19  C   UNL     1       1.300   2.079   0.001  0.00  0.00    +0.008 A 
ATOM     20  C   UNL     1      -0.022   1.781   0.012  0.00  0.00    +0.045 A 
ATOM     21  S   UNL     1       0.002  -0.004   0.002  0.00  0.00    -0.100 S 
ENDBRANCH   8  17
BRANCH   7  22
ATOM     22  C   UNL     1       3.650  -3.197   1.424  0.00  0.00    +0.223 C 
ATOM     23  O   UNL     1       4.220  -3.534   0.408  0.00  0.00    -0.275 OA
ATOM     24  N   UNL     1       3.901  -3.839   2.582  0.00  0.00    -0.314 N 
ATOM     25  H   UNL     1       3.444  -3.570   3.394  0.00  0.00    +0.149 HD
BRANCH  24  26
ATOM     26  C   UNL     1       4.862  -4.944   2.614  0.00  0.00    +0.109 C 
BRANCH  26  27
ATOM     27  C   UNL     1       4.960  -5.494   4.038  0.00  0.00    +0.054 C 
BRANCH  27  28
ATOM     28  C   UNL     1       5.949  -6.630   4.071  0.00  0.00    -0.046 A 
ATOM     29  C   UNL     1       5.521  -7.926   3.853  0.00  0.00    +0.005 A 
ATOM     30  C   UNL     1       6.429  -8.968   3.878  0.00  0.00    +0.029 A 
ATOM     31  C   UNL     1       7.764  -8.715   4.131  0.00  0.00    +0.105 A 
ATOM     32  C   UNL     1       8.192  -7.420   4.354  0.00  0.00    +0.029 A 
ATOM     33  C   UNL     1       7.285  -6.377   4.324  0.00  0.00    +0.005 A 
BRANCH  31  34
ATOM     34  S   UNL     1       8.921 -10.044   4.171  0.00  0.00    +0.056 S 
ATOM     35  O   UNL     1       8.361 -11.093   3.392  0.00  0.00    -0.153 OA
ATOM     36  O   UNL     1      10.195  -9.482   3.888  0.00  0.00    -0.153 OA
BRANCH  34  37
ATOM     37  N   UNL     1       8.982 -10.594   5.731  0.00  0.00    -0.204 NA
ATOM     38  H   UNL     1       8.432 -10.178   6.414  0.00  0.00    +0.144 HD
ATOM     39  H   UNL     1       9.567 -11.332   5.963  0.00  0.00    +0.144 HD
ENDBRANCH  34  37
ENDBRANCH  31  34
ENDBRANCH  27  28
ENDBRANCH  26  27
ENDBRANCH  24  26
ENDBRANCH   7  22
TORSDOF 8
