REMARK  Name = ZINC14008201
REMARK  8 active torsions:
REMARK  status: ('A' for Active; 'I' for Inactive)
REMARK    1  A    between atoms: C_1  and  C_2
REMARK    2  A    between atoms: C_5  and  C_24
REMARK    3  A    between atoms: C_6  and  O_8
REMARK    4  A    between atoms: O_8  and  C_9
REMARK    5  A    between atoms: C_9  and  C_11
REMARK    6  A    between atoms: C_9  and  C_12
REMARK    7  A    between atoms: N_14  and  C_15
REMARK    8  A    between atoms: C_18  and  N_21
REMARK                            x       y       z     vdW  Elec       q    Type
REMARK                         _______ _______ _______ _____ _____    ______ ____
ROOT
ATOM      1  C   UNL     1       3.482   5.837  -0.783  0.00  0.00    +0.258 C 
ATOM      2  O   UNL     1       4.391   5.102  -1.109  0.00  0.00    -0.271 OA
ATOM      3  N   UNL     1       3.501   7.134  -1.147  0.00  0.00    -0.282 N 
ATOM      4  H   UNL     1       2.813   7.738  -0.826  0.00  0.00    +0.155 HD
ENDROOT
BRANCH   3   5
ATOM      5  C   UNL     1       4.513   7.610  -1.988  0.00  0.00    +0.034 A 
ATOM      6  C   UNL     1       4.979   8.911  -1.848  0.00  0.00    +0.025 A 
ATOM      7  C   UNL     1       5.982   9.376  -2.676  0.00  0.00    +0.034 A 
ATOM      8  C   UNL     1       6.513   8.552  -3.651  0.00  0.00    +0.126 A 
ATOM      9  C   UNL     1       6.047   7.258  -3.797  0.00  0.00    +0.034 A 
ATOM     10  C   UNL     1       5.049   6.785  -2.968  0.00  0.00    +0.025 A 
BRANCH   8  11
ATOM     11  N   UNL     1       7.584   9.056  -4.541  0.00  0.00    +0.056 N 
ATOM     12  O   UNL     1       8.053   8.331  -5.400  0.00  0.00    -0.126 OA
ATOM     13  O   UNL     1       7.995  10.195  -4.414  0.00  0.00    -0.126 OA
ENDBRANCH   8  11
ENDBRANCH   3   5
BRANCH   1  14
ATOM     14  C   UNL     1       2.332   5.298   0.028  0.00  0.00    +0.256 C 
ATOM     15  C   UNL     1       2.245   6.055   1.355  0.00  0.00    +0.062 C 
BRANCH  14  16
ATOM     16  O   UNL     1       2.540   3.908   0.286  0.00  0.00    -0.480 OA
BRANCH  16  22
ATOM     17  C   UNL     1      -2.285   3.637   0.970  0.00  0.00    +0.044 C 
ATOM     18  C   UNL     1      -0.931   2.984   0.862  0.00  0.00    -0.047 A 
ATOM     19  C   UNL     1      -0.814   1.613   0.996  0.00  0.00    +0.004 A 
ATOM     20  C   UNL     1       0.427   1.011   0.902  0.00  0.00    +0.007 A 
ATOM     21  C   UNL     1       1.552   1.777   0.662  0.00  0.00    -0.009 A 
ATOM     22  C   UNL     1       1.435   3.152   0.522  0.00  0.00    +0.125 A 
ATOM     23  C   UNL     1       0.190   3.755   0.622  0.00  0.00    +0.049 A 
ATOM     24  C   UNL     1       2.904   1.120   0.554  0.00  0.00    +0.047 C 
ENDBRANCH  16  22
ENDBRANCH  14  16
ENDBRANCH   1  14
TORSDOF 5
