REMARK  Name = ZINC20969321
REMARK  9 active torsions:
REMARK  status: ('A' for Active; 'I' for Inactive)
REMARK    1  A    between atoms: C_1  and  C_2
REMARK    2  A    between atoms: C_2  and  C_3
REMARK    3  A    between atoms: C_3  and  C_4
REMARK    4  A    between atoms: C_4  and  N_5
REMARK    5  A    between atoms: C_6  and  N_27
REMARK    6  A    between atoms: C_7  and  N_14
REMARK    7  A    between atoms: N_14  and  C_15
REMARK    8  A    between atoms: C_15  and  C_16
REMARK    9  A    between atoms: C_17  and  C_19
REMARK                            x       y       z     vdW  Elec       q    Type
REMARK                         _______ _______ _______ _____ _____    ______ ____
ROOT
ATOM      1  N   UNL     1      -1.508   3.988  -0.388  0.00  0.00    -0.280 N 
ATOM      2  C   UNL     1      -0.227   4.448  -0.187  0.00  0.00    +0.127 A 
ATOM      3  C   UNL     1       0.821   3.550  -0.199  0.00  0.00    +0.140 A 
ATOM      4  C   UNL     1       0.545   2.187  -0.418  0.00  0.00    +0.277 A 
ATOM      5  O   UNL     1       1.452   1.372  -0.434  0.00  0.00    -0.266 OA
ATOM      6  N   UNL     1      -0.728   1.789  -0.609  0.00  0.00    -0.273 N 
ATOM      7  H   UNL     1      -0.952   0.725  -0.776  0.00  0.00    +0.173 HD
ATOM      8  C   UNL     1      -1.736   2.679  -0.599  0.00  0.00    +0.331 A 
ATOM      9  O   UNL     1      -2.875   2.293  -0.779  0.00  0.00    -0.246 OA
ENDROOT
BRANCH   3  10
ATOM     10  N   UNL     1       2.145   3.991   0.004  0.00  0.00    -0.260 N 
ATOM     11  C   UNL     1       2.471   4.648   1.134  0.00  0.00    +0.252 C 
ATOM     12  O   UNL     1       3.608   5.046   1.300  0.00  0.00    -0.270 OA
BRANCH  11  13
ATOM     13  C   UNL     1       1.446   4.886   2.172  0.00  0.00    +0.057 A 
ATOM     14  C   UNL     1       0.332   4.049   2.262  0.00  0.00    +0.014 A 
ATOM     15  C   UNL     1      -0.621   4.276   3.233  0.00  0.00    +0.002 A 
ATOM     16  C   UNL     1      -0.476   5.330   4.118  0.00  0.00    +0.021 A 
ATOM     17  C   UNL     1       0.625   6.164   4.036  0.00  0.00    +0.060 A 
ATOM     18  C   UNL     1       1.591   5.945   3.071  0.00  0.00    +0.071 A 
ATOM     19 CL   UNL     1       2.976   6.987   2.973  0.00  0.00    -0.081 Cl
ATOM     20 CL   UNL     1       0.798   7.483   5.151  0.00  0.00    -0.082 Cl
ENDBRANCH  11  13
BRANCH  10  21
ATOM     21  C   UNL     1       3.167   3.733  -1.014  0.00  0.00    +0.111 C 
ATOM     22  C   UNL     1       3.150   4.859  -2.050  0.00  0.00    +0.025 C 
ENDBRANCH  10  21
ENDBRANCH   3  10
BRANCH   2  23
ATOM     23  N   UNL     1       0.006   5.786   0.024  0.00  0.00    -0.343 N 
ATOM     24  H   UNL     1       1.033   6.147   0.183  0.00  0.00    +0.144 HD
ATOM     25  H   UNL     1      -0.834   6.496   0.033  0.00  0.00    +0.144 HD
ENDBRANCH   2  23
BRANCH   1  26
ATOM     26  C   UNL     1      -2.629   4.930  -0.378  0.00  0.00    +0.128 C 
BRANCH  26  27
ATOM     27  C   UNL     1      -2.868   5.455  -1.795  0.00  0.00    +0.021 C 
BRANCH  27  29
ATOM     28  C   UNL     1      -4.278   6.963  -3.202  0.00  0.00    +0.004 C 
ATOM     29  C   UNL     1      -4.040   6.439  -1.784  0.00  0.00    -0.002 C 
ENDBRANCH  27  29
ENDBRANCH  26  27
ENDBRANCH   1  26
TORSDOF 7
