REMARK  Name = ZINC66756172
REMARK  7 active torsions:
REMARK  status: ('A' for Active; 'I' for Inactive)
REMARK    1  A    between atoms: C_1  and  C_2
REMARK    2  A    between atoms: C_5  and  N_8
REMARK    3  A    between atoms: C_10  and  C_15
REMARK    4  A    between atoms: N_17  and  C_18
REMARK    5  A    between atoms: C_20  and  N_26
REMARK    6  A    between atoms: C_23  and  O_24
REMARK    7  A    between atoms: O_24  and  C_25
REMARK                            x       y       z     vdW  Elec       q    Type
REMARK                         _______ _______ _______ _____ _____    ______ ____
ROOT
ATOM      1  C   UNL     1       5.435  -2.129  -1.913  0.00  0.00    +0.222 C 
ATOM      2  O   UNL     1       4.721  -2.868  -2.558  0.00  0.00    -0.275 OA
ATOM      3  N   UNL     1       6.438  -1.463  -2.519  0.00  0.00    -0.282 N 
ATOM      4  H   UNL     1       7.053  -0.929  -1.992  0.00  0.00    +0.155 HD
ENDROOT
BRANCH   1   7
ATOM      5  N   UNL     1       2.835  -1.929  -0.043  0.00  0.00    -0.298 N 
ATOM      6  C   UNL     1       4.004  -2.811   0.039  0.00  0.00    +0.121 C 
ATOM      7  C   UNL     1       5.200  -1.956  -0.434  0.00  0.00    +0.101 C 
ATOM      8  C   UNL     1       4.710  -0.524  -0.115  0.00  0.00    +0.110 C 
ATOM      9  C   UNL     1       3.202  -0.638  -0.131  0.00  0.00    +0.217 C 
ATOM     10  O   UNL     1       2.435   0.298  -0.208  0.00  0.00    -0.276 OA
BRANCH   5  15
ATOM     11  C   UNL     1       2.160  -4.473   3.691  0.00  0.00    +0.007 C 
ATOM     12  C   UNL     1       1.439  -3.942   2.451  0.00  0.00    -0.014 C 
ATOM     13  C   UNL     1       1.464  -2.413   2.462  0.00  0.00    +0.005 C 
ATOM     14  C   UNL     1       0.742  -1.881   1.222  0.00  0.00    +0.023 C 
ATOM     15  C   UNL     1       1.446  -2.394  -0.036  0.00  0.00    +0.076 C 
ATOM     16  C   UNL     1       1.420  -3.924  -0.047  0.00  0.00    +0.023 C 
ATOM     17  C   UNL     1       2.142  -4.455   1.193  0.00  0.00    +0.005 C 
ENDBRANCH   5  15
ENDBRANCH   1   7
BRANCH   3  18
ATOM     18  C   UNL     1       6.593  -1.542  -3.909  0.00  0.00    +0.078 A 
ATOM     19  C   UNL     1       5.479  -1.663  -4.727  0.00  0.00    +0.059 A 
ATOM     20  C   UNL     1       5.633  -1.742  -6.098  0.00  0.00    +0.128 A 
ATOM     21  C   UNL     1       6.897  -1.700  -6.658  0.00  0.00    +0.036 A 
ATOM     22  C   UNL     1       8.012  -1.580  -5.849  0.00  0.00    +0.050 A 
ATOM     23  C   UNL     1       7.865  -1.495  -4.474  0.00  0.00    +0.141 A 
BRANCH  20  24
ATOM     24  N   UNL     1       4.444  -1.871  -6.969  0.00  0.00    +0.056 N 
ATOM     25  O   UNL     1       3.338  -1.908  -6.481  0.00  0.00    -0.126 OA
ATOM     26  O   UNL     1       4.578  -1.939  -8.169  0.00  0.00    -0.126 OA
ENDBRANCH  20  24
BRANCH  23  27
ATOM     27  O   UNL     1       8.960  -1.371  -3.678  0.00  0.00    -0.493 OA
ATOM     28  C   UNL     1      10.232  -1.328  -4.327  0.00  0.00    +0.277 C 
ENDBRANCH  23  27
ENDBRANCH   3  18
TORSDOF 5
