REMARK  Name = ZINC39606894
REMARK  6 active torsions:
REMARK  status: ('A' for Active; 'I' for Inactive)
REMARK    1  A    between atoms: C_1  and  C_2
REMARK    2  A    between atoms: C_5  and  C_9
REMARK    3  A    between atoms: C_6  and  C_8
REMARK    4  A    between atoms: C_9  and  N_10
REMARK    5  A    between atoms: C_11  and  C_13
REMARK    6  A    between atoms: C_24  and  C_26
REMARK                            x       y       z     vdW  Elec       q    Type
REMARK                         _______ _______ _______ _____ _____    ______ ____
ROOT
ATOM      1  C   UNL     1      -3.169  -6.584   0.577  0.00  0.00    +0.100 C 
ATOM      2  C   UNL     1      -4.083  -6.080  -0.562  0.00  0.00    +0.121 C 
ATOM      3  N   UNL     1      -4.035  -7.152  -1.584  0.00  0.00    -0.296 N 
ATOM      4  C   UNL     1      -4.046  -8.410  -0.799  0.00  0.00    +0.115 C 
ATOM      5  C   UNL     1      -3.150  -8.114   0.420  0.00  0.00    -0.004 C 
ATOM      6  C   UNL     1      -1.728  -8.600   0.159  0.00  0.00    -0.010 C 
ATOM      7  C   UNL     1      -1.726 -10.128   0.063  0.00  0.00    -0.082 C 
ATOM      8  N   UNL     1      -2.237 -10.700   1.314  0.00  0.00    +0.379 N 
ATOM      9  C   UNL     1      -3.636 -10.302   1.512  0.00  0.00    -0.082 C 
ATOM     10  C   UNL     1      -3.719  -8.781   1.668  0.00  0.00    -0.010 C 
ATOM     11  C   UNL     1      -3.990  -7.015  -2.924  0.00  0.00    +0.247 C 
ATOM     12  O   UNL     1      -4.042  -7.997  -3.638  0.00  0.00    -0.270 OA
ATOM     13  H   UNL     1      -2.178 -11.706   1.272  0.00  0.00    -0.086 HD
ATOM     14  H   UNL     1      -1.682 -10.365   2.087  0.00  0.00    -0.086 HD
ENDROOT
BRANCH  11  15
ATOM     15  C   UNL     1      -3.878  -5.670  -3.525  0.00  0.00    +0.045 A 
ATOM     16  C   UNL     1      -4.751  -4.649  -3.132  0.00  0.00    +0.014 A 
ATOM     17  C   UNL     1      -4.649  -3.394  -3.691  0.00  0.00    +0.001 A 
ATOM     18  C   UNL     1      -3.681  -3.128  -4.648  0.00  0.00    +0.012 A 
ATOM     19  C   UNL     1      -2.804  -4.128  -5.052  0.00  0.00    +0.031 A 
ATOM     20  C   UNL     1      -2.893  -5.410  -4.487  0.00  0.00    +0.006 A 
ATOM     21  C   UNL     1      -1.843  -6.269  -5.088  0.00  0.00    -0.006 A 
ATOM     22  C   UNL     1      -1.508  -7.602  -4.886  0.00  0.00    +0.009 A 
ATOM     23  C   UNL     1      -0.460  -8.169  -5.594  0.00  0.00    +0.001 A 
ATOM     24  C   UNL     1       0.257  -7.417  -6.504  0.00  0.00    +0.001 A 
ATOM     25  C   UNL     1      -0.065  -6.086  -6.718  0.00  0.00    +0.012 A 
ATOM     26  C   UNL     1      -1.113  -5.506  -6.015  0.00  0.00    +0.030 A 
ATOM     27  C   UNL     1      -1.693  -4.141  -6.034  0.00  0.00    +0.194 C 
ATOM     28  O   UNL     1      -1.319  -3.207  -6.714  0.00  0.00    -0.287 OA
ENDBRANCH  11  15
BRANCH   1  30
ATOM     29  N   UNL     1      -1.016  -5.802   1.510  0.00  0.00    -0.311 N 
ATOM     30  C   UNL     1      -1.779  -6.023   0.422  0.00  0.00    +0.218 C 
ATOM     31  O   UNL     1      -1.347  -5.770  -0.683  0.00  0.00    -0.275 OA
ATOM     32  H   UNL     1      -1.361  -6.004   2.394  0.00  0.00    +0.149 HD
BRANCH  29  33
ATOM     33  C   UNL     1       0.335  -5.256   1.359  0.00  0.00    +0.139 C 
BRANCH  33  38
ATOM     34  C   UNL     1       2.770  -4.680   6.568  0.00  0.00    +0.044 C 
ATOM     35  C   UNL     1       2.135  -4.830   5.210  0.00  0.00    -0.050 A 
ATOM     36  C   UNL     1       1.585  -3.730   4.578  0.00  0.00    +0.004 A 
ATOM     37  C   UNL     1       1.002  -3.868   3.332  0.00  0.00    +0.006 A 
ATOM     38  C   UNL     1       0.971  -5.106   2.717  0.00  0.00    -0.027 A 
ATOM     39  C   UNL     1       1.522  -6.205   3.348  0.00  0.00    -0.046 A 
ATOM     40  C   UNL     1       2.108  -6.066   4.592  0.00  0.00    +0.007 A 
ATOM     41  C   UNL     1       1.487  -7.555   2.678  0.00  0.00    +0.044 C 
ENDBRANCH  33  38
ENDBRANCH  29  33
ENDBRANCH   1  30
TORSDOF 4
