REMARK  Name = ZINC04953696
REMARK  8 active torsions:
REMARK  status: ('A' for Active; 'I' for Inactive)
REMARK    1  A    between atoms: C_1  and  C_2
REMARK    2  A    between atoms: C_2  and  O_4
REMARK    3  A    between atoms: O_4  and  C_5
REMARK    4  A    between atoms: C_8  and  C_11
REMARK    5  A    between atoms: C_12  and  C_13
REMARK    6  A    between atoms: C_12  and  C_15
REMARK    7  A    between atoms: N_17  and  C_18
REMARK    8  A    between atoms: C_23  and  N_24
REMARK                            x       y       z     vdW  Elec       q    Type
REMARK                         _______ _______ _______ _____ _____    ______ ____
ROOT
ATOM      1  C   UNL     1       0.973  -0.900   0.253  0.00  0.00    +0.032 C 
ATOM      2  C   UNL     1      -0.244  -0.256   0.299  0.00  0.00    +0.114 C 
ENDROOT
BRANCH   1   6
ATOM      3  C   UNL     1       1.131  -5.129   0.255  0.00  0.00    +0.132 A 
ATOM      4  C   UNL     1       2.103  -4.400  -0.422  0.00  0.00    +0.047 A 
ATOM      5  C   UNL     1       2.057  -3.030  -0.426  0.00  0.00    +0.011 A 
ATOM      6  C   UNL     1       1.027  -2.363   0.253  0.00  0.00    -0.023 A 
ATOM      7  C   UNL     1       0.054  -3.104   0.939  0.00  0.00    +0.011 A 
ATOM      8  C   UNL     1       0.107  -4.474   0.931  0.00  0.00    +0.047 A 
BRANCH   3   9
ATOM      9  O   UNL     1       1.182  -6.485   0.255  0.00  0.00    -0.426 OA
BRANCH   9  11
ATOM     10  C   UNL     1       0.176  -8.634  -0.431  0.00  0.00    +0.136 C 
ATOM     11  C   UNL     1       0.264  -7.130  -0.483  0.00  0.00    +0.309 C 
ATOM     12  O   UNL     1      -0.490  -6.505  -1.190  0.00  0.00    -0.251 OA
ENDBRANCH   9  11
ENDBRANCH   3   9
ENDBRANCH   1   6
BRANCH   2  13
ATOM     13  C   UNL     1      -0.298   1.207   0.444  0.00  0.00    +0.259 C 
ATOM     14  O   UNL     1       0.733   1.849   0.522  0.00  0.00    -0.269 OA
ATOM     15  N   UNL     1      -1.488   1.837   0.484  0.00  0.00    -0.279 N 
ATOM     16  H   UNL     1      -2.307   1.336   0.345  0.00  0.00    +0.155 HD
BRANCH  15  17
ATOM     17  C   UNL     1      -1.543   3.214   0.726  0.00  0.00    +0.064 A 
ATOM     18  C   UNL     1      -0.571   3.822   1.509  0.00  0.00    +0.027 A 
ATOM     19  C   UNL     1      -0.627   5.181   1.746  0.00  0.00    +0.022 A 
ATOM     20  C   UNL     1      -1.651   5.938   1.203  0.00  0.00    +0.043 A 
ATOM     21  C   UNL     1      -2.621   5.335   0.423  0.00  0.00    +0.054 A 
ATOM     22  C   UNL     1      -2.567   3.976   0.178  0.00  0.00    +0.149 A 
ATOM     23 CL   UNL     1      -1.718   7.647   1.502  0.00  0.00    -0.083 Cl
BRANCH  22  24
ATOM     24  N   UNL     1      -3.602   3.333  -0.662  0.00  0.00    +0.058 N 
ATOM     25  O   UNL     1      -4.474   4.008  -1.177  0.00  0.00    -0.126 OA
ATOM     26  O   UNL     1      -3.580   2.128  -0.838  0.00  0.00    -0.126 OA
ENDBRANCH  22  24
ENDBRANCH  15  17
ENDBRANCH   2  13
BRANCH   2  27
ATOM     27  C   UNL     1      -1.458  -1.011   0.207  0.00  0.00    +0.104 C 
ATOM     28  N   UNL     1      -2.420  -1.610   0.134  0.00  0.00    -0.191 NA
ENDBRANCH   2  27
TORSDOF 7
