REMARK  Name = ZINC67298997
REMARK  5 active torsions:
REMARK  status: ('A' for Active; 'I' for Inactive)
REMARK    1  A    between atoms: C_4  and  N_7
REMARK    2  A    between atoms: N_7  and  C_8
REMARK    3  A    between atoms: C_14  and  C_16
REMARK    4  A    between atoms: C_19  and  N_21
REMARK    5  A    between atoms: C_22  and  C_24
REMARK                            x       y       z     vdW  Elec       q    Type
REMARK                         _______ _______ _______ _____ _____    ______ ____
ROOT
ATOM      1  C   UNL     1       3.641  -2.114  -0.044  0.00  0.00    +0.089 C 
ATOM      2  C   UNL     1       5.000  -2.653   0.478  0.00  0.00    +0.042 C 
ATOM      3  C   UNL     1       5.113  -4.029  -0.212  0.00  0.00    +0.110 C 
ATOM      4  N   UNL     1       4.248  -3.995  -1.400  0.00  0.00    -0.295 N 
ATOM      5  C   UNL     1       3.625  -2.662  -1.493  0.00  0.00    +0.130 C 
ATOM      6  C   UNL     1       4.056  -5.014  -2.261  0.00  0.00    +0.253 C 
ATOM      7  O   UNL     1       3.313  -4.872  -3.216  0.00  0.00    -0.269 OA
ENDROOT
BRANCH   6   8
ATOM      8  C   UNL     1       4.739  -6.288  -2.049  0.00  0.00    +0.076 A 
ATOM      9  C   UNL     1       4.682  -7.446  -2.813  0.00  0.00    +0.022 A 
ATOM     10  C   UNL     1       5.439  -8.497  -2.366  0.00  0.00    +0.032 A 
ATOM     11  C   UNL     1       6.182  -8.334  -1.220  0.00  0.00    +0.073 A 
ATOM     12  S   UNL     1       5.865  -6.753  -0.748  0.00  0.00    -0.069 S 
BRANCH  11  13
ATOM     13  N   UNL     1       7.009  -9.260  -0.599  0.00  0.00    -0.273 N 
ATOM     14  C   UNL     1       7.668  -8.926   0.528  0.00  0.00    +0.284 C 
ATOM     15  O   UNL     1       7.538  -7.813   1.002  0.00  0.00    -0.266 OA
ATOM     16  H   UNL     1       7.112 -10.148  -0.976  0.00  0.00    +0.156 HD
BRANCH  14  17
ATOM     17  C   UNL     1       8.541  -9.905   1.184  0.00  0.00    +0.189 A 
ATOM     18  C   UNL     1       9.259  -9.700   2.328  0.00  0.00    +0.054 A 
ATOM     19  C   UNL     1       9.947 -10.895   2.591  0.00  0.00    +0.042 A 
ATOM     20  C   UNL     1       9.624 -11.765   1.609  0.00  0.00    +0.196 A 
ATOM     21  O   UNL     1       8.772 -11.167   0.766  0.00  0.00    -0.458 OA
ENDBRANCH  14  17
ENDBRANCH  11  13
ENDBRANCH   6   8
BRANCH   1  22
ATOM     22  N   UNL     1       3.620  -0.649  -0.036  0.00  0.00    -0.339 N 
ATOM     23  H   UNL     1       4.452  -0.152  -0.042  0.00  0.00    +0.146 HD
BRANCH  22  27
ATOM     24  C   UNL     1      -0.017   1.379   0.010  0.00  0.00    +0.000 A 
ATOM     25  C   UNL     1       1.169   2.089   0.002  0.00  0.00    +0.002 A 
ATOM     26  C   UNL     1       2.377   1.420  -0.013  0.00  0.00    +0.023 A 
ATOM     27  C   UNL     1       2.400   0.031  -0.021  0.00  0.00    +0.027 A 
ATOM     28  C   UNL     1       1.206  -0.680  -0.013  0.00  0.00    +0.023 A 
ATOM     29  C   UNL     1       0.002  -0.004   0.002  0.00  0.00    +0.002 A 
ENDBRANCH  22  27
ENDBRANCH   1  22
TORSDOF 5
