REMARK  Name = ZINC13465405
REMARK  12 active torsions:
REMARK  status: ('A' for Active; 'I' for Inactive)
REMARK    1  A    between atoms: C_1  and  C_2
REMARK    2  A    between atoms: C_5  and  C_8
REMARK    3  A    between atoms: N_11  and  C_13
REMARK    4  A    between atoms: C_13  and  C_14
REMARK    5  A    between atoms: N_16  and  C_17
REMARK    6  A    between atoms: N_16  and  C_24
REMARK    7  A    between atoms: C_24  and  C_26
REMARK    8  A    between atoms: C_24  and  C_27
REMARK    9  A    between atoms: N_29  and  C_30
REMARK   10  A    between atoms: C_30  and  C_31
REMARK   11  A    between atoms: C_30  and  C_32
REMARK   12  A    between atoms: C_30  and  C_33
REMARK                            x       y       z     vdW  Elec       q    Type
REMARK                         _______ _______ _______ _____ _____    ______ ____
ROOT
ATOM      1  C   UNL     1       0.028   1.127  -0.375  0.00  0.00    +0.244 C 
ATOM      2  O   UNL     1       0.144  -0.081  -0.373  0.00  0.00    -0.273 OA
ATOM      3  N   UNL     1       1.078   1.905  -0.044  0.00  0.00    -0.258 N 
ENDROOT
BRANCH   3   4
ATOM      4  C   UNL     1       0.976   3.298  -0.148  0.00  0.00    +0.037 A 
ATOM      5  C   UNL     1       0.203   4.008   0.761  0.00  0.00    +0.026 A 
ATOM      6  C   UNL     1       0.108   5.382   0.660  0.00  0.00    +0.040 A 
ATOM      7  C   UNL     1       0.775   6.051  -0.352  0.00  0.00    +0.124 A 
ATOM      8  C   UNL     1       1.542   5.344  -1.263  0.00  0.00    +0.040 A 
ATOM      9  C   UNL     1       1.644   3.970  -1.163  0.00  0.00    +0.026 A 
ATOM     10  F   UNL     1       0.677   7.394  -0.452  0.00  0.00    -0.205 F 
ENDBRANCH   3   4
BRANCH   3  11
ATOM     11  C   UNL     1       2.324   1.294   0.423  0.00  0.00    +0.164 C 
ATOM     12  C   UNL     1       3.488   1.783  -0.442  0.00  0.00    +0.038 C 
BRANCH  11  13
ATOM     13  C   UNL     1       2.567   1.684   1.859  0.00  0.00    +0.234 C 
ATOM     14  O   UNL     1       1.777   2.401   2.434  0.00  0.00    -0.274 OA
ATOM     15  N   UNL     1       3.663   1.235   2.502  0.00  0.00    -0.309 N 
ATOM     16  H   UNL     1       4.295   0.661   2.042  0.00  0.00    +0.149 HD
BRANCH  15  17
ATOM     17  C   UNL     1       3.899   1.614   3.898  0.00  0.00    +0.026 C 
ATOM     18  C   UNL     1       2.736   1.125   4.763  0.00  0.00    +0.031 C 
ATOM     19  C   UNL     1       5.201   0.976   4.386  0.00  0.00    +0.031 C 
ATOM     20  C   UNL     1       4.007   3.137   4.002  0.00  0.00    +0.031 C 
ENDBRANCH  15  17
ENDBRANCH  11  13
ENDBRANCH   3  11
BRANCH   1  21
ATOM     21  C   UNL     1      -1.287   1.756  -0.754  0.00  0.00    +0.264 C 
BRANCH  21  25
ATOM     22  C   UNL     1      -3.459  -0.746  -1.968  0.00  0.00    +0.205 A 
ATOM     23  N   UNL     1      -3.802  -0.698  -0.673  0.00  0.00    -0.108 NA
ATOM     24  N   UNL     1      -3.062   0.198  -0.114  0.00  0.00    -0.045 NA
ATOM     25  N   UNL     1      -2.278   0.706  -1.001  0.00  0.00    -0.154 N 
ATOM     26  N   UNL     1      -2.507   0.149  -2.140  0.00  0.00    -0.130 NA
BRANCH  22  31
ATOM     27  C   UNL     1      -5.728  -4.174  -6.003  0.00  0.00    +0.044 C 
ATOM     28  C   UNL     1      -5.134  -3.277  -4.947  0.00  0.00    -0.050 A 
ATOM     29  C   UNL     1      -5.596  -3.346  -3.645  0.00  0.00    +0.004 A 
ATOM     30  C   UNL     1      -5.056  -2.527  -2.675  0.00  0.00    +0.012 A 
ATOM     31  C   UNL     1      -4.044  -1.629  -3.008  0.00  0.00    +0.023 A 
ATOM     32  C   UNL     1      -3.586  -1.560  -4.322  0.00  0.00    +0.012 A 
ATOM     33  C   UNL     1      -4.130  -2.387  -5.284  0.00  0.00    +0.004 A 
ENDBRANCH  22  31
ENDBRANCH  21  25
ENDBRANCH   1  21
TORSDOF 7
