REMARK  Name = ZINC00337748
REMARK  6 active torsions:
REMARK  status: ('A' for Active; 'I' for Inactive)
REMARK    1  A    between atoms: C_1  and  C_2
REMARK    2  A    between atoms: C_2  and  C_4
REMARK    3  A    between atoms: C_2  and  O_17
REMARK    4  A    between atoms: N_6  and  C_7
REMARK    5  A    between atoms: C_9  and  N_14
REMARK    6  A    between atoms: O_17  and  C_18
REMARK                            x       y       z     vdW  Elec       q    Type
REMARK                         _______ _______ _______ _____ _____    ______ ____
ROOT
ATOM      1  C   UNL     1      -1.305   1.595   0.090  0.00  0.00    +0.258 C 
ATOM      2  O   UNL     1      -1.465   2.793  -0.009  0.00  0.00    -0.271 OA
ATOM      3  N   UNL     1      -0.059   1.083   0.121  0.00  0.00    -0.281 N 
ATOM      4  H   UNL     1       0.070   0.121   0.117  0.00  0.00    +0.155 HD
ENDROOT
BRANCH   3   5
ATOM      5  C   UNL     1       1.049   1.938   0.152  0.00  0.00    +0.054 A 
ATOM      6  C   UNL     1       0.917   3.230   0.643  0.00  0.00    +0.057 A 
ATOM      7  C   UNL     1       2.012   4.071   0.673  0.00  0.00    +0.128 A 
ATOM      8  C   UNL     1       3.240   3.628   0.215  0.00  0.00    +0.034 A 
ATOM      9  C   UNL     1       3.375   2.342  -0.274  0.00  0.00    +0.024 A 
ATOM     10  C   UNL     1       2.285   1.493  -0.301  0.00  0.00    +0.062 A 
ATOM     11 CL   UNL     1       2.458  -0.124  -0.909  0.00  0.00    -0.082 Cl
BRANCH   7  12
ATOM     12  N   UNL     1       1.871   5.449   1.196  0.00  0.00    +0.056 N 
ATOM     13  O   UNL     1       0.791   5.840   1.599  0.00  0.00    -0.126 OA
ATOM     14  O   UNL     1       2.837   6.191   1.223  0.00  0.00    -0.126 OA
ENDBRANCH   7  12
ENDBRANCH   3   5
BRANCH   1  16
ATOM     15  C   UNL     1      -2.543  -0.220  -1.060  0.00  0.00    +0.062 C 
ATOM     16  C   UNL     1      -2.499   0.680   0.177  0.00  0.00    +0.256 C 
BRANCH  16  17
ATOM     17  O   UNL     1      -3.694   1.460   0.241  0.00  0.00    -0.480 OA
BRANCH  17  18
ATOM     18  C   UNL     1      -4.723   0.955   0.971  0.00  0.00    +0.122 A 
ATOM     19  C   UNL     1      -5.860   1.719   1.191  0.00  0.00    +0.045 A 
ATOM     20  C   UNL     1      -6.906   1.200   1.929  0.00  0.00    +0.004 A 
ATOM     21  C   UNL     1      -6.816  -0.074   2.458  0.00  0.00    +0.000 A 
ATOM     22  C   UNL     1      -5.682  -0.835   2.245  0.00  0.00    +0.004 A 
ATOM     23  C   UNL     1      -4.635  -0.324   1.503  0.00  0.00    +0.045 A 
ENDBRANCH  17  18
ENDBRANCH  16  17
ENDBRANCH   1  16
TORSDOF 5
