REMARK  Name = ZINC13562936
REMARK  13 active torsions:
REMARK  status: ('A' for Active; 'I' for Inactive)
REMARK    1  A    between atoms: C_1  and  C_2
REMARK    2  A    between atoms: C_3  and  C_31
REMARK    3  A    between atoms: C_4  and  C_10
REMARK    4  A    between atoms: N_12  and  C_25
REMARK    5  A    between atoms: C_14  and  C_15
REMARK    6  A    between atoms: C_18  and  O_21
REMARK    7  A    between atoms: O_21  and  C_22
REMARK    8  A    between atoms: C_22  and  C_23
REMARK    9  A    between atoms: C_22  and  C_24
REMARK   10  A    between atoms: C_31  and  O_33
REMARK   11  A    between atoms: O_33  and  C_34
REMARK   12  A    between atoms: C_34  and  C_35
REMARK   13  A    between atoms: C_34  and  C_36
REMARK                            x       y       z     vdW  Elec       q    Type
REMARK                         _______ _______ _______ _____ _____    ______ ____
ROOT
ATOM      1  C   UNL     1      -1.643  -3.146   1.050  0.00  0.00    +0.023 A 
ATOM      2  C   UNL     1      -1.059  -3.273   2.261  0.00  0.00    +0.121 A 
ATOM      3  N   UNL     1      -2.045  -3.403   3.188  0.00  0.00    -0.239 N 
ATOM      4  N   UNL     1      -3.276  -3.354   2.520  0.00  0.00    -0.166 NA
ATOM      5  C   UNL     1      -3.039  -3.193   1.235  0.00  0.00    +0.098 A 
ENDROOT
BRANCH   1   9
ATOM      6  C   UNL     1       2.926  -3.011  -0.178  0.00  0.00    +0.061 C 
ATOM      7  C   UNL     1       1.487  -3.371  -0.448  0.00  0.00    +0.021 C 
ATOM      8  C   UNL     1       0.504  -2.578   0.029  0.00  0.00    +0.078 C 
ATOM      9  C   UNL     1      -0.928  -2.977  -0.266  0.00  0.00    +0.147 C 
ATOM     10  N   UNL     1      -1.131  -4.205  -1.053  0.00  0.00    -0.288 N 
ATOM     11  C   UNL     1      -0.045  -4.893  -1.459  0.00  0.00    +0.304 C 
ATOM     12  O   UNL     1      -0.202  -5.908  -2.109  0.00  0.00    -0.252 OA
ATOM     13  N   UNL     1       1.200  -4.491  -1.175  0.00  0.00    -0.273 N 
ATOM     14  H   UNL     1      -2.024  -4.512  -1.273  0.00  0.00    +0.151 HD
ATOM     15  H   UNL     1       1.940  -5.028  -1.500  0.00  0.00    +0.156 HD
BRANCH   8  16
ATOM     16  C   UNL     1       0.800  -1.415   0.777  0.00  0.00    +0.339 C 
ATOM     17  O   UNL     1       1.950  -1.170   1.091  0.00  0.00    -0.245 OA
BRANCH  16  18
ATOM     18  O   UNL     1      -0.193  -0.578   1.144  0.00  0.00    -0.459 OA
BRANCH  18  19
ATOM     19  C   UNL     1       0.189   0.632   1.801  0.00  0.00    +0.171 C 
ATOM     20  C   UNL     1       0.307   1.757   0.771  0.00  0.00    +0.052 C 
ATOM     21  C   UNL     1      -0.869   1.002   2.842  0.00  0.00    +0.052 C 
ENDBRANCH  18  19
ENDBRANCH  16  18
ENDBRANCH   8  16
ENDBRANCH   1   9
BRANCH   5  22
ATOM     22  C   UNL     1      -4.064  -3.085   0.168  0.00  0.00    +0.003 A 
ATOM     23  C   UNL     1      -3.922  -2.136  -0.843  0.00  0.00    +0.013 A 
ATOM     24  C   UNL     1      -4.876  -2.037  -1.834  0.00  0.00    +0.046 A 
ATOM     25  C   UNL     1      -5.977  -2.882  -1.825  0.00  0.00    +0.121 A 
ATOM     26  C   UNL     1      -6.122  -3.828  -0.820  0.00  0.00    +0.046 A 
ATOM     27  C   UNL     1      -5.168  -3.936   0.171  0.00  0.00    +0.013 A 
BRANCH  25  28
ATOM     28  O   UNL     1      -6.916  -2.783  -2.803  0.00  0.00    -0.489 OA
BRANCH  28  29
ATOM     29  C   UNL     1      -6.770  -1.711  -3.736  0.00  0.00    +0.167 C 
ATOM     30  C   UNL     1      -5.983  -2.198  -4.955  0.00  0.00    +0.051 C 
ATOM     31  C   UNL     1      -8.152  -1.229  -4.180  0.00  0.00    +0.051 C 
ENDBRANCH  28  29
ENDBRANCH  25  28
ENDBRANCH   5  22
BRANCH   3  32
ATOM     32  C   UNL     1      -1.862  -3.560   4.568  0.00  0.00    +0.065 A 
ATOM     33  C   UNL     1      -0.581  -3.588   5.101  0.00  0.00    +0.028 A 
ATOM     34  C   UNL     1      -0.404  -3.742   6.462  0.00  0.00    +0.002 A 
ATOM     35  C   UNL     1      -1.502  -3.869   7.294  0.00  0.00    +0.000 A 
ATOM     36  C   UNL     1      -2.779  -3.842   6.765  0.00  0.00    +0.002 A 
ATOM     37  C   UNL     1      -2.963  -3.683   5.406  0.00  0.00    +0.028 A 
ENDBRANCH   3  32
TORSDOF 8
