REMARK  Name = ZINC02700455
REMARK  8 active torsions:
REMARK  status: ('A' for Active; 'I' for Inactive)
REMARK    1  A    between atoms: C_4  and  O_33
REMARK    2  A    between atoms: C_5  and  C_7
REMARK    3  A    between atoms: N_9  and  N_10
REMARK    4  A    between atoms: C_11  and  C_13
REMARK    5  A    between atoms: C_13  and  C_14
REMARK    6  A    between atoms: C_14  and  C_15
REMARK    7  A    between atoms: C_15  and  N_16
REMARK    8  A    between atoms: C_20  and  C_21
REMARK                            x       y       z     vdW  Elec       q    Type
REMARK                         _______ _______ _______ _____ _____    ______ ____
ROOT
ATOM      1  C   UNL     1       3.189   5.735  -0.091  0.00  0.00    +0.029 C 
ENDROOT
BRANCH   1   2
ATOM      2  C   UNL     1       3.622   4.268  -0.044  0.00  0.00    +0.099 C 
BRANCH   2   4
ATOM      3  N   UNL     1       2.590   2.046  -0.384  0.00  0.00    -0.234 N 
ATOM      4  C   UNL     1       2.443   3.386  -0.366  0.00  0.00    +0.229 C 
ATOM      5  O   UNL     1       1.364   3.881  -0.610  0.00  0.00    -0.274 OA
ATOM      6  H   UNL     1       3.453   1.650  -0.189  0.00  0.00    +0.173 HD
BRANCH   3   9
ATOM      7  C   UNL     1       1.641  -0.114  -0.701  0.00  0.00    +0.264 C 
ATOM      8  O   UNL     1       2.723  -0.611  -0.457  0.00  0.00    -0.269 OA
ATOM      9  N   UNL     1       1.494   1.226  -0.683  0.00  0.00    -0.230 N 
ATOM     10  H   UNL     1       0.631   1.622  -0.882  0.00  0.00    +0.173 HD
BRANCH   7  15
ATOM     11  C   UNL     1      -1.832  -1.224  -1.591  0.00  0.00    +0.001 A 
ATOM     12  C   UNL     1      -1.682  -2.601  -1.609  0.00  0.00    +0.004 A 
ATOM     13  C   UNL     1      -0.457  -3.174  -1.334  0.00  0.00    +0.046 A 
ATOM     14  C   UNL     1       0.634  -2.371  -1.036  0.00  0.00    +0.129 A 
ATOM     15  C   UNL     1       0.487  -0.978  -1.017  0.00  0.00    +0.079 A 
ATOM     16  C   UNL     1      -0.760  -0.412  -1.292  0.00  0.00    +0.017 A 
BRANCH  14  17
ATOM     17  O   UNL     1       1.839  -2.933  -0.764  0.00  0.00    -0.506 OA
ATOM     18  H   UNL     1       1.979  -3.130   0.172  0.00  0.00    +0.292 HD
ENDBRANCH  14  17
ENDBRANCH   7  15
ENDBRANCH   3   9
ENDBRANCH   2   4
ENDBRANCH   1   2
BRANCH   1  19
ATOM     19  C   UNL     1       4.385   6.631   0.236  0.00  0.00    +0.115 C 
BRANCH  19  20
ATOM     20  N   UNL     1       3.970   8.035   0.191  0.00  0.00    -0.255 N 
ATOM     21  C   UNL     1       3.514   8.610   1.291  0.00  0.00    +0.258 C 
ATOM     22  O   UNL     1       3.429   8.002   2.342  0.00  0.00    -0.269 OA
ATOM     23  C   UNL     1       3.113  10.027   1.179  0.00  0.00    +0.077 C 
ATOM     24  C   UNL     1       2.616  10.863   2.127  0.00  0.00    +0.028 C 
ATOM     25  S   UNL     1       3.459  10.338  -0.546  0.00  0.00    -0.061 S 
ATOM     26  C   UNL     1       4.067   8.714  -0.971  0.00  0.00    +0.121 C 
ATOM     27  S   UNL     1       4.633   8.153  -2.486  0.00  0.00    -0.027 S 
BRANCH  24  28
ATOM     28  C   UNL     1       2.441  12.290   1.828  0.00  0.00    -0.020 A 
ATOM     29  C   UNL     1       2.952  12.827   0.640  0.00  0.00    +0.012 A 
ATOM     30  C   UNL     1       2.783  14.165   0.361  0.00  0.00    +0.050 A 
ATOM     31  C   UNL     1       2.115  14.987   1.259  0.00  0.00    +0.166 A 
ATOM     32  C   UNL     1       1.607  14.461   2.447  0.00  0.00    +0.167 A 
ATOM     33  C   UNL     1       1.768  13.119   2.733  0.00  0.00    +0.057 A 
ATOM     34  O   UNL     1       1.002  15.466   3.146  0.00  0.00    -0.453 OA
ATOM     35  C   UNL     1       1.500  16.688   2.569  0.00  0.00    +0.466 C 
ATOM     36  O   UNL     1       1.826  16.320   1.216  0.00  0.00    -0.453 OA
ENDBRANCH  24  28
ENDBRANCH  19  20
ENDBRANCH   1  19
TORSDOF 8
