REMARK  Name = ZINC64411187
REMARK  5 active torsions:
REMARK  status: ('A' for Active; 'I' for Inactive)
REMARK    1  A    between atoms: C_4  and  C_7
REMARK    2  A    between atoms: C_9  and  C_12
REMARK    3  A    between atoms: C_12  and  N_13
REMARK    4  A    between atoms: C_14  and  C_16
REMARK    5  A    between atoms: C_19  and  C_21
REMARK                            x       y       z     vdW  Elec       q    Type
REMARK                         _______ _______ _______ _____ _____    ______ ____
ROOT
ATOM      1  N   UNL     1       5.866  -4.162  -1.468  0.00  0.00    -0.301 N 
ATOM      2  C   UNL     1       6.367  -5.385  -1.730  0.00  0.00    +0.263 C 
ATOM      3  O   UNL     1       6.675  -6.125  -0.815  0.00  0.00    -0.269 OA
ATOM      4  H   UNL     1       5.620  -3.572  -2.199  0.00  0.00    +0.150 HD
ENDROOT
BRANCH   2   5
ATOM      5  C   UNL     1       6.542  -5.827  -3.124  0.00  0.00    +0.133 A 
ATOM      6  C   UNL     1       7.041  -7.063  -3.435  0.00  0.00    +0.080 A 
ATOM      7  S   UNL     1       7.029  -7.045  -5.115  0.00  0.00    -0.077 S 
ATOM      8  C   UNL     1       6.406  -5.507  -5.366  0.00  0.00    +0.105 A 
ATOM      9  N   UNL     1       6.217  -5.046  -4.160  0.00  0.00    -0.237 NA
BRANCH   8  10
ATOM     10  C   UNL     1       6.124  -4.821  -6.678  0.00  0.00    +0.159 C 
ATOM     11  C   UNL     1       7.421  -4.418  -7.345  0.00  0.00    +0.014 C 
ATOM     12  C   UNL     1       7.454  -5.076  -8.526  0.00  0.00    -0.004 A 
ATOM     13  C   UNL     1       8.434  -5.109  -9.618  0.00  0.00    +0.010 A 
ATOM     14  C   UNL     1       8.185  -5.880 -10.701  0.00  0.00    +0.001 A 
ATOM     15  C   UNL     1       7.016  -6.647 -10.805  0.00  0.00    +0.002 A 
ATOM     16  C   UNL     1       6.069  -6.669  -9.843  0.00  0.00    +0.026 A 
ATOM     17  C   UNL     1       6.229  -5.895  -8.661  0.00  0.00    +0.043 A 
ATOM     18  N   UNL     1       5.465  -5.749  -7.603  0.00  0.00    -0.372 N 
ATOM     19  H   UNL     1       4.610  -6.182  -7.457  0.00  0.00    +0.161 HD
ENDBRANCH   8  10
ENDBRANCH   2   5
BRANCH   1  20
ATOM     20  C   UNL     1       5.692  -3.722  -0.082  0.00  0.00    +0.203 C 
BRANCH  20  23
ATOM     21  C   UNL     1       3.699  -0.689  -0.037  0.00  0.00    +0.202 A 
ATOM     22  N   UNL     1       3.853  -2.025  -0.051  0.00  0.00    -0.190 NA
ATOM     23  C   UNL     1       5.120  -2.328  -0.065  0.00  0.00    +0.245 A 
ATOM     24  O   UNL     1       5.828  -1.191  -0.059  0.00  0.00    -0.336 OA
ATOM     25  N   UNL     1       4.884  -0.131  -0.046  0.00  0.00    -0.056 NA
BRANCH  21  29
ATOM     26  C   UNL     1      -0.017   1.379   0.010  0.00  0.00    +0.000 A 
ATOM     27  C   UNL     1       1.169   2.092   0.002  0.00  0.00    +0.001 A 
ATOM     28  C   UNL     1       2.377   1.426  -0.013  0.00  0.00    +0.012 A 
ATOM     29  C   UNL     1       2.402   0.033  -0.021  0.00  0.00    +0.022 A 
ATOM     30  C   UNL     1       1.205  -0.680  -0.013  0.00  0.00    +0.012 A 
ATOM     31  C   UNL     1       0.002  -0.004   0.002  0.00  0.00    +0.001 A 
ENDBRANCH  21  29
ENDBRANCH  20  23
ENDBRANCH   1  20
TORSDOF 5
