REMARK  Name = ZINC11028840
REMARK  8 active torsions:
REMARK  status: ('A' for Active; 'I' for Inactive)
REMARK    1  A    between atoms: C_1  and  C_2
REMARK    2  A    between atoms: C_2  and  C_4
REMARK    3  A    between atoms: C_2  and  O_19
REMARK    4  A    between atoms: N_6  and  C_7
REMARK    5  A    between atoms: C_12  and  C_13
REMARK    6  A    between atoms: O_19  and  C_20
REMARK    7  A    between atoms: C_20  and  C_22
REMARK    8  A    between atoms: C_25  and  N_29
REMARK                            x       y       z     vdW  Elec       q    Type
REMARK                         _______ _______ _______ _____ _____    ______ ____
ROOT
ATOM      1  C   UNL     1       3.726  -2.236   0.665  0.00  0.00    +0.258 C 
ATOM      2  O   UNL     1       2.655  -2.655   1.048  0.00  0.00    -0.271 OA
ATOM      3  N   UNL     1       4.843  -2.964   0.860  0.00  0.00    -0.282 N 
ATOM      4  H   UNL     1       5.687  -2.668   0.484  0.00  0.00    +0.155 HD
ENDROOT
BRANCH   3   5
ATOM      5  C   UNL     1       4.786  -4.146   1.603  0.00  0.00    +0.041 A 
ATOM      6  C   UNL     1       3.786  -4.327   2.547  0.00  0.00    +0.024 A 
ATOM      7  C   UNL     1       3.728  -5.499   3.277  0.00  0.00    +0.002 A 
ATOM      8  C   UNL     1       4.670  -6.493   3.079  0.00  0.00    +0.001 A 
ATOM      9  C   UNL     1       5.674  -6.324   2.147  0.00  0.00    +0.010 A 
ATOM     10  C   UNL     1       5.740  -5.150   1.401  0.00  0.00    +0.003 A 
BRANCH  10  11
ATOM     11  C   UNL     1       6.817  -4.964   0.398  0.00  0.00    -0.016 A 
ATOM     12  C   UNL     1       6.502  -4.563  -0.899  0.00  0.00    +0.008 A 
ATOM     13  C   UNL     1       7.508  -4.387  -1.827  0.00  0.00    +0.001 A 
ATOM     14  C   UNL     1       8.826  -4.617  -1.474  0.00  0.00    +0.000 A 
ATOM     15  C   UNL     1       9.144  -5.020  -0.190  0.00  0.00    +0.001 A 
ATOM     16  C   UNL     1       8.146  -5.194   0.748  0.00  0.00    +0.008 A 
ENDBRANCH  10  11
ENDBRANCH   3   5
BRANCH   1  18
ATOM     17  C   UNL     1       4.258  -1.104  -1.477  0.00  0.00    +0.062 C 
ATOM     18  C   UNL     1       3.809  -0.900  -0.028  0.00  0.00    +0.259 C 
BRANCH  18  19
ATOM     19  O   UNL     1       2.504  -0.264  -0.011  0.00  0.00    -0.449 OA
BRANCH  19  20
ATOM     20  C   UNL     1       2.480   1.083   0.007  0.00  0.00    +0.341 C 
ATOM     21  O   UNL     1       3.521   1.709   0.008  0.00  0.00    -0.245 OA
BRANCH  20  22
ATOM     22  C   UNL     1       1.189   1.798   0.025  0.00  0.00    +0.077 A 
ATOM     23  C   UNL     1      -0.010   1.082   0.024  0.00  0.00    +0.018 A 
ATOM     24  C   UNL     1      -1.213   1.756   0.035  0.00  0.00    +0.033 A 
ATOM     25  C   UNL     1      -1.235   3.140   0.059  0.00  0.00    +0.128 A 
ATOM     26  C   UNL     1      -0.052   3.857   0.060  0.00  0.00    +0.053 A 
ATOM     27  C   UNL     1       1.160   3.195   0.044  0.00  0.00    +0.057 A 
ATOM     28 CL   UNL     1       2.644   4.096   0.046  0.00  0.00    -0.083 Cl
BRANCH  25  29
ATOM     29  N   UNL     1      -2.530   3.856   0.077  0.00  0.00    +0.056 N 
ATOM     30  O   UNL     1      -2.553   5.074   0.093  0.00  0.00    -0.126 OA
ATOM     31  O   UNL     1      -3.573   3.228   0.076  0.00  0.00    -0.126 OA
ENDBRANCH  25  29
ENDBRANCH  20  22
ENDBRANCH  19  20
ENDBRANCH  18  19
ENDBRANCH   1  18
TORSDOF 7
