REMARK  Name = ZINC09716294
REMARK  9 active torsions:
REMARK  status: ('A' for Active; 'I' for Inactive)
REMARK    1  A    between atoms: C_4  and  C_7
REMARK    2  A    between atoms: C_7  and  C_8
REMARK    3  A    between atoms: C_11  and  S_20
REMARK    4  A    between atoms: N_12  and  C_13
REMARK    5  A    between atoms: S_20  and  C_21
REMARK    6  A    between atoms: C_21  and  C_22
REMARK    7  A    between atoms: C_22  and  C_24
REMARK    8  A    between atoms: C_25  and  N_36
REMARK    9  A    between atoms: N_26  and  C_33
REMARK                            x       y       z     vdW  Elec       q    Type
REMARK                         _______ _______ _______ _____ _____    ______ ____
ROOT
ATOM      1  C   UNL     1      -5.358  -0.837   0.972  0.00  0.00    +0.143 A 
ATOM      2  N   UNL     1      -5.944   0.037   1.740  0.00  0.00    -0.133 NA
ATOM      3  N   UNL     1      -5.728  -0.244   2.975  0.00  0.00    -0.122 NA
ATOM      4  C   UNL     1      -4.985  -1.323   3.065  0.00  0.00    +0.197 A 
ATOM      5  N   UNL     1      -4.729  -1.740   1.788  0.00  0.00    -0.274 N 
ENDROOT
BRANCH   5   6
ATOM      6  C   UNL     1      -3.978  -2.858   1.395  0.00  0.00    +0.050 A 
ATOM      7  C   UNL     1      -4.593  -3.912   0.736  0.00  0.00    +0.029 A 
ATOM      8  C   UNL     1      -3.851  -5.010   0.347  0.00  0.00    +0.040 A 
ATOM      9  C   UNL     1      -2.495  -5.063   0.623  0.00  0.00    +0.124 A 
ATOM     10  C   UNL     1      -1.880  -4.014   1.285  0.00  0.00    +0.040 A 
ATOM     11  C   UNL     1      -2.618  -2.913   1.671  0.00  0.00    +0.029 A 
ATOM     12  F   UNL     1      -1.771  -6.140   0.245  0.00  0.00    -0.205 F 
ENDBRANCH   5   6
BRANCH   1  13
ATOM     13  C   UNL     1      -5.374  -0.855  -0.535  0.00  0.00    +0.111 C 
BRANCH  13  17
ATOM     14  C   UNL     1      -2.072   1.406  -2.028  0.00  0.00    +0.000 A 
ATOM     15  C   UNL     1      -1.929   0.053  -1.782  0.00  0.00    +0.000 A 
ATOM     16  C   UNL     1      -2.996  -0.678  -1.296  0.00  0.00    +0.004 A 
ATOM     17  C   UNL     1      -4.208  -0.057  -1.060  0.00  0.00    -0.040 A 
ATOM     18  C   UNL     1      -4.350   1.297  -1.300  0.00  0.00    +0.004 A 
ATOM     19  C   UNL     1      -3.282   2.028  -1.787  0.00  0.00    +0.000 A 
ENDBRANCH  13  17
ENDBRANCH   1  13
BRANCH   4  20
ATOM     20  S   UNL     1      -4.430  -2.092   4.550  0.00  0.00    -0.078 S 
BRANCH  20  21
ATOM     21  C   UNL     1      -5.169  -0.983   5.774  0.00  0.00    +0.157 C 
BRANCH  21  22
ATOM     22  C   UNL     1      -4.816  -1.458   7.160  0.00  0.00    +0.182 C 
ATOM     23  O   UNL     1      -4.132  -2.451   7.306  0.00  0.00    -0.291 OA
BRANCH  22  24
ATOM     24  C   UNL     1      -5.282  -0.750   8.289  0.00  0.00    +0.120 A 
ATOM     25  C   UNL     1      -5.088  -1.248   9.589  0.00  0.00    +0.116 A 
ATOM     26  N   UNL     1      -5.551  -0.524  10.650  0.00  0.00    -0.278 N 
ATOM     27  C   UNL     1      -6.194   0.641  10.472  0.00  0.00    +0.331 A 
ATOM     28  O   UNL     1      -6.591   1.245  11.449  0.00  0.00    -0.246 OA
ATOM     29  N   UNL     1      -6.413   1.163   9.255  0.00  0.00    -0.274 N 
ATOM     30  H   UNL     1      -6.896   2.035   9.172  0.00  0.00    +0.173 HD
ATOM     31  C   UNL     1      -5.990   0.528   8.142  0.00  0.00    +0.266 A 
ATOM     32  O   UNL     1      -6.190   1.005   7.040  0.00  0.00    -0.267 OA
BRANCH  26  33
ATOM     33  C   UNL     1      -5.348  -1.032  12.009  0.00  0.00    +0.094 C 
ATOM     34  C   UNL     1      -4.811  -0.054  13.056  0.00  0.00    +0.027 C 
ATOM     35  C   UNL     1      -3.908  -1.161  12.508  0.00  0.00    +0.027 C 
ENDBRANCH  26  33
BRANCH  25  36
ATOM     36  N   UNL     1      -4.444  -2.430   9.787  0.00  0.00    -0.344 N 
ATOM     37  H   UNL     1      -3.794  -2.744   9.138  0.00  0.00    +0.144 HD
ATOM     38  H   UNL     1      -4.634  -2.960  10.577  0.00  0.00    +0.144 HD
ENDBRANCH  25  36
ENDBRANCH  22  24
ENDBRANCH  21  22
ENDBRANCH  20  21
ENDBRANCH   4  20
TORSDOF 9
