REMARK  Name = ZINC13363843
REMARK  7 active torsions:
REMARK  status: ('A' for Active; 'I' for Inactive)
REMARK    1  A    between atoms: C_2  and  C_3
REMARK    2  A    between atoms: C_3  and  N_4
REMARK    3  A    between atoms: C_10  and  C_31
REMARK    4  A    between atoms: C_14  and  S_15
REMARK    5  A    between atoms: S_15  and  C_16
REMARK    6  A    between atoms: C_16  and  C_17
REMARK    7  A    between atoms: N_19  and  C_20
REMARK                            x       y       z     vdW  Elec       q    Type
REMARK                         _______ _______ _______ _____ _____    ______ ____
ROOT
ATOM      1  N   UNL     1      -2.137   1.356  -1.116  0.00  0.00    -0.283 N 
ATOM      2  C   UNL     1      -2.972   0.303  -0.965  0.00  0.00    +0.263 A 
ATOM      3  O   UNL     1      -3.065  -0.281   0.100  0.00  0.00    -0.267 OA
ATOM      4  C   UNL     1      -3.765  -0.112  -2.133  0.00  0.00    +0.065 A 
ATOM      5  C   UNL     1      -4.652  -1.186  -2.073  0.00  0.00    +0.016 A 
ATOM      6  C   UNL     1      -5.368  -1.540  -3.180  0.00  0.00    +0.016 A 
ATOM      7  C   UNL     1      -5.223  -0.832  -4.380  0.00  0.00    +0.065 A 
ATOM      8  C   UNL     1      -4.345   0.241  -4.463  0.00  0.00    +0.043 A 
ATOM      9  C   UNL     1      -3.606   0.613  -3.336  0.00  0.00    +0.080 A 
ATOM     10  N   UNL     1      -2.739   1.652  -3.371  0.00  0.00    -0.223 NA
ATOM     11  C   UNL     1      -2.048   2.005  -2.314  0.00  0.00    +0.173 A 
ENDROOT
BRANCH   7  12
ATOM     12  C   UNL     1      -6.009  -1.231  -5.568  0.00  0.00    +0.387 C 
ATOM     13  O   UNL     1      -5.886  -0.621  -6.611  0.00  0.00    -0.241 OA
ATOM     14  O   UNL     1      -6.861  -2.272  -5.493  0.00  0.00    -0.241 OA
ENDBRANCH   7  12
BRANCH   1  15
ATOM     15  C   UNL     1      -1.326   1.809   0.017  0.00  0.00    +0.154 C 
BRANCH  15  17
ATOM     16  C   UNL     1       1.115   1.760   0.009  0.00  0.00    +0.005 C 
ATOM     17  C   UNL     1      -0.006   1.082   0.013  0.00  0.00    -0.013 C 
ENDBRANCH  15  17
ENDBRANCH   1  15
BRANCH  11  18
ATOM     18  S   UNL     1      -0.948   3.375  -2.449  0.00  0.00    -0.078 S 
BRANCH  18  19
ATOM     19  C   UNL     1      -1.223   3.830  -4.179  0.00  0.00    +0.173 C 
BRANCH  19  20
ATOM     20  C   UNL     1      -0.361   5.015  -4.530  0.00  0.00    +0.227 C 
ATOM     21  O   UNL     1       0.368   5.504  -3.692  0.00  0.00    -0.275 OA
ATOM     22  N   UNL     1      -0.400   5.532  -5.774  0.00  0.00    -0.285 N 
ATOM     23  H   UNL     1      -0.931   5.101  -6.462  0.00  0.00    +0.155 HD
BRANCH  22  24
ATOM     24  C   UNL     1       0.327   6.691  -6.074  0.00  0.00    +0.037 A 
ATOM     25  C   UNL     1       1.559   6.913  -5.473  0.00  0.00    +0.027 A 
ATOM     26  C   UNL     1       2.278   8.056  -5.768  0.00  0.00    +0.051 A 
ATOM     27  C   UNL     1       1.771   8.983  -6.664  0.00  0.00    +0.173 A 
ATOM     28  C   UNL     1       0.536   8.764  -7.269  0.00  0.00    +0.174 A 
ATOM     29  C   UNL     1      -0.181   7.615  -6.976  0.00  0.00    +0.073 A 
ATOM     30  O   UNL     1       0.265   9.811  -8.100  0.00  0.00    -0.395 OA
ATOM     31  C   UNL     1       1.526  10.473  -8.310  0.00  0.00    +0.589 C 
ATOM     32  O   UNL     1       2.274  10.170  -7.118  0.00  0.00    -0.395 OA
ATOM     33  F   UNL     1       2.171   9.955  -9.439  0.00  0.00    -0.125 F 
ATOM     34  F   UNL     1       1.342  11.853  -8.441  0.00  0.00    -0.125 F 
ENDBRANCH  22  24
ENDBRANCH  19  20
ENDBRANCH  18  19
ENDBRANCH  11  18
TORSDOF 7
