REMARK  Name = ZINC40173623
REMARK  10 active torsions:
REMARK  status: ('A' for Active; 'I' for Inactive)
REMARK    1  A    between atoms: C_1  and  C_2
REMARK    2  A    between atoms: C_5  and  C_8
REMARK    3  A    between atoms: C_14  and  C_16
REMARK    4  A    between atoms: C_16  and  C_18
REMARK    5  A    between atoms: C_16  and  N_19
REMARK    6  A    between atoms: C_23  and  S_24
REMARK    7  A    between atoms: S_24  and  C_25
REMARK    8  A    between atoms: C_25  and  C_26
REMARK    9  A    between atoms: C_26  and  O_28
REMARK   10  A    between atoms: O_28  and  C_29
REMARK                            x       y       z     vdW  Elec       q    Type
REMARK                         _______ _______ _______ _____ _____    ______ ____
ROOT
ATOM      1  C   UNL     1       0.060  -4.255  -0.021  0.00  0.00    +0.080 A 
ATOM      2  C   UNL     1       0.070  -4.952   1.155  0.00  0.00    +0.076 A 
ATOM      3  S   UNL     1       0.092  -6.632   0.545  0.00  0.00    -0.060 S 
ATOM      4  C   UNL     1       0.085  -6.237  -1.198  0.00  0.00    +0.165 A 
ATOM      5  N   UNL     1       0.062  -4.918  -1.169  0.00  0.00    -0.225 NA
ATOM      6  N   UNL     1       0.095  -7.092  -2.294  0.00  0.00    -0.263 N 
ATOM      7  C   UNL     1       0.113  -8.426  -2.107  0.00  0.00    +0.241 C 
ATOM      8  O   UNL     1       0.119  -8.881  -0.983  0.00  0.00    -0.273 OA
ATOM      9  H   UNL     1       0.090  -6.728  -3.193  0.00  0.00    +0.157 HD
ENDROOT
BRANCH   1  14
ATOM     10  C   UNL     1      -0.018   1.503   0.010  0.00  0.00    +0.044 C 
ATOM     11  C   UNL     1       0.002  -0.004   0.002  0.00  0.00    -0.050 A 
ATOM     12  C   UNL     1       0.006  -0.686  -1.201  0.00  0.00    +0.004 A 
ATOM     13  C   UNL     1       0.024  -2.066  -1.215  0.00  0.00    +0.010 A 
ATOM     14  C   UNL     1       0.040  -2.772  -0.013  0.00  0.00    +0.001 A 
ATOM     15  C   UNL     1       0.037  -2.079   1.196  0.00  0.00    +0.010 A 
ATOM     16  C   UNL     1       0.023  -0.700   1.198  0.00  0.00    +0.004 A 
ENDBRANCH   1  14
BRANCH   7  17
ATOM     17  C   UNL     1       0.124  -9.353  -3.295  0.00  0.00    +0.175 C 
ATOM     18  C   UNL     1      -1.129  -9.115  -4.140  0.00  0.00    +0.041 C 
BRANCH  17  19
ATOM     19  N   UNL     1       0.142 -10.743  -2.830  0.00  0.00    -0.279 N 
ATOM     20  C   UNL     1      -0.810 -11.343  -2.056  0.00  0.00    +0.216 A 
ATOM     21  N   UNL     1      -0.442 -12.584  -1.851  0.00  0.00    -0.113 NA
ATOM     22  N   UNL     1       0.777 -12.789  -2.510  0.00  0.00    -0.121 NA
ATOM     23  C   UNL     1       1.112 -11.667  -3.100  0.00  0.00    +0.194 A 
ATOM     24  N   UNL     1      -1.964 -10.743  -1.570  0.00  0.00    -0.328 N 
ATOM     25  H   UNL     1      -2.151  -9.813  -1.776  0.00  0.00    +0.145 HD
ATOM     26  H   UNL     1      -2.584 -11.253  -1.025  0.00  0.00    +0.145 HD
BRANCH  23  27
ATOM     27  S   UNL     1       2.559 -11.398  -4.068  0.00  0.00    -0.075 S 
BRANCH  27  28
ATOM     28  C   UNL     1       3.413 -12.999  -4.037  0.00  0.00    +0.197 C 
BRANCH  28  29
ATOM     29  C   UNL     1       4.685 -12.906  -4.838  0.00  0.00    +0.317 C 
ATOM     30  O   UNL     1       4.986 -11.866  -5.376  0.00  0.00    -0.250 OA
BRANCH  29  31
ATOM     31  O   UNL     1       5.485 -13.978  -4.955  0.00  0.00    -0.467 OA
ATOM     32  C   UNL     1       6.675 -13.818  -5.730  0.00  0.00    +0.280 C 
ENDBRANCH  29  31
ENDBRANCH  28  29
ENDBRANCH  27  28
ENDBRANCH  23  27
ENDBRANCH  17  19
ENDBRANCH   7  17
TORSDOF 7
