REMARK  Name = ZINC63340050
REMARK  11 active torsions:
REMARK  status: ('A' for Active; 'I' for Inactive)
REMARK    1  A    between atoms: C_1  and  C_2
REMARK    2  A    between atoms: C_2  and  O_3
REMARK    3  A    between atoms: O_3  and  C_4
REMARK    4  A    between atoms: C_4  and  C_6
REMARK    5  A    between atoms: C_6  and  C_8
REMARK    6  A    between atoms: C_6  and  N_18
REMARK    7  A    between atoms: C_8  and  C_9
REMARK    8  A    between atoms: N_18  and  S_19
REMARK    9  A    between atoms: S_19  and  C_22
REMARK   10  A    between atoms: C_24  and  N_29
REMARK   11  A    between atoms: C_27  and  C_28
REMARK                            x       y       z     vdW  Elec       q    Type
REMARK                         _______ _______ _______ _____ _____    ______ ____
ROOT
ATOM      1  N   UNL     1      -2.429  -4.657   0.344  0.00  0.00    -0.176 NA
ATOM      2  H   UNL     1      -2.283  -5.355  -0.313  0.00  0.00    +0.149 HD
ENDROOT
BRANCH   1   3
ATOM      3  S   UNL     1      -2.568  -5.045   1.948  0.00  0.00    +0.059 S 
ATOM      4  O   UNL     1      -2.373  -6.449   2.044  0.00  0.00    -0.153 OA
ATOM      5  O   UNL     1      -1.766  -4.114   2.662  0.00  0.00    -0.153 OA
BRANCH   3   6
ATOM      6  C   UNL     1      -4.238  -4.735   2.417  0.00  0.00    +0.110 A 
ATOM      7  C   UNL     1      -4.543  -3.635   3.195  0.00  0.00    +0.052 A 
ATOM      8  C   UNL     1      -5.859  -3.392   3.564  0.00  0.00    +0.038 A 
ATOM      9  C   UNL     1      -6.865  -4.255   3.149  0.00  0.00    +0.024 A 
ATOM     10  C   UNL     1      -6.553  -5.353   2.371  0.00  0.00    +0.007 A 
ATOM     11  C   UNL     1      -5.242  -5.590   2.001  0.00  0.00    -0.024 A 
ATOM     12  C   UNL     1      -4.906  -6.785   1.147  0.00  0.00    +0.046 C 
BRANCH   8  13
ATOM     13  N   UNL     1      -6.172  -2.279   4.352  0.00  0.00    -0.271 N 
ATOM     14  C   UNL     1      -5.180  -1.341   4.892  0.00  0.00    +0.114 C 
ATOM     15  C   UNL     1      -5.980  -0.084   5.298  0.00  0.00    +0.029 C 
ATOM     16  C   UNL     1      -7.386  -0.673   5.552  0.00  0.00    +0.098 C 
ATOM     17  C   UNL     1      -7.420  -1.927   4.707  0.00  0.00    +0.220 C 
ATOM     18  O   UNL     1      -8.426  -2.530   4.397  0.00  0.00    -0.275 OA
ENDBRANCH   8  13
ENDBRANCH   3   6
ENDBRANCH   1   3
BRANCH   1  19
ATOM     19  C   UNL     1      -2.527  -3.258  -0.082  0.00  0.00    +0.189 C 
BRANCH  19  20
ATOM     20  C   UNL     1      -1.169  -2.611   0.001  0.00  0.00    +0.326 C 
ATOM     21  O   UNL     1      -0.216  -3.252   0.377  0.00  0.00    -0.249 OA
BRANCH  20  22
ATOM     22  O   UNL     1      -1.017  -1.323  -0.344  0.00  0.00    -0.464 OA
BRANCH  22  24
ATOM     23  C   UNL     1       0.274   0.694  -0.672  0.00  0.00    +0.048 C 
ATOM     24  C   UNL     1       0.298  -0.774  -0.241  0.00  0.00    +0.229 C 
ENDBRANCH  22  24
ENDBRANCH  20  22
ENDBRANCH  19  20
BRANCH  19  25
ATOM     25  C   UNL     1      -3.034  -3.199  -1.524  0.00  0.00    +0.065 C 
BRANCH  25  26
ATOM     26  C   UNL     1      -4.441  -3.734  -1.585  0.00  0.00    -0.039 C 
ATOM     27  C   UNL     1      -5.587  -3.017  -1.541  0.00  0.00    -0.001 A 
ATOM     28  C   UNL     1      -5.855  -1.578  -1.426  0.00  0.00    +0.010 A 
ATOM     29  C   UNL     1      -7.138  -1.150  -1.406  0.00  0.00    +0.001 A 
ATOM     30  C   UNL     1      -8.215  -2.043  -1.492  0.00  0.00    +0.002 A 
ATOM     31  C   UNL     1      -8.048  -3.378  -1.600  0.00  0.00    +0.026 A 
ATOM     32  C   UNL     1      -6.741  -3.939  -1.630  0.00  0.00    +0.043 A 
ATOM     33  N   UNL     1      -6.326  -5.178  -1.726  0.00  0.00    -0.380 N 
ATOM     34  C   UNL     1      -4.859  -5.182  -1.715  0.00  0.00    +0.144 C 
ATOM     35  H   UNL     1      -6.893  -5.962  -1.798  0.00  0.00    +0.160 HD
ENDBRANCH  25  26
ENDBRANCH  19  25
ENDBRANCH   1  19
TORSDOF 9
