REMARK  Name = ZINC10041078
REMARK  13 active torsions:
REMARK  status: ('A' for Active; 'I' for Inactive)
REMARK    1  A    between atoms: C_1  and  C_2
REMARK    2  A    between atoms: C_2  and  O_3
REMARK    3  A    between atoms: O_3  and  C_4
REMARK    4  A    between atoms: C_6  and  C_12
REMARK    5  A    between atoms: C_9  and  O_10
REMARK    6  A    between atoms: N_13  and  N_14
REMARK    7  A    between atoms: C_15  and  C_17
REMARK    8  A    between atoms: C_17  and  C_19
REMARK    9  A    between atoms: C_17  and  N_22
REMARK   10  A    between atoms: C_19  and  C_20
REMARK   11  A    between atoms: C_19  and  C_21
REMARK   12  A    between atoms: C_23  and  C_25
REMARK   13  A    between atoms: C_28  and  C_31
REMARK                            x       y       z     vdW  Elec       q    Type
REMARK                         _______ _______ _______ _____ _____    ______ ____
ROOT
ATOM      1  N   UNL     1       0.341   0.741   2.858  0.00  0.00    -0.205 N 
ATOM      2  C   UNL     1      -0.064   1.966   2.469  0.00  0.00    +0.253 C 
ATOM      3  O   UNL     1       0.191   2.935   3.154  0.00  0.00    -0.272 OA
ATOM      4  H   UNL     1       0.080  -0.041   2.346  0.00  0.00    +0.177 HD
ENDROOT
BRANCH   1   6
ATOM      5  C   UNL     1       1.526  -0.584   4.376  0.00  0.00    +0.138 C 
ATOM      6  N   UNL     1       1.137   0.596   4.001  0.00  0.00    -0.188 NA
BRANCH   5   9
ATOM      7  C   UNL     1       3.571  -2.143   7.112  0.00  0.00    +0.163 A 
ATOM      8  C   UNL     1       2.780  -2.006   5.987  0.00  0.00    +0.059 A 
ATOM      9  C   UNL     1       2.365  -0.736   5.579  0.00  0.00    -0.001 A 
ATOM     10  C   UNL     1       2.741   0.389   6.317  0.00  0.00    +0.027 A 
ATOM     11  C   UNL     1       3.525   0.244   7.443  0.00  0.00    +0.059 A 
ATOM     12  C   UNL     1       3.942  -1.018   7.844  0.00  0.00    +0.172 A 
ATOM     13  I   UNL     1       4.089   1.932   8.548  0.00  0.00    -0.040 I 
BRANCH  12  14
ATOM     14  O   UNL     1       4.715  -1.155   8.954  0.00  0.00    -0.503 OA
ATOM     15  H   UNL     1       4.212  -1.277   9.771  0.00  0.00    +0.292 HD
ENDBRANCH  12  14
BRANCH   7  16
ATOM     16  O   UNL     1       3.982  -3.377   7.508  0.00  0.00    -0.489 OA
BRANCH  16  18
ATOM     17  C   UNL     1       4.120  -5.782   7.308  0.00  0.00    +0.048 C 
ATOM     18  C   UNL     1       3.564  -4.487   6.711  0.00  0.00    +0.226 C 
ENDBRANCH  16  18
ENDBRANCH   7  16
ENDBRANCH   5   9
ENDBRANCH   1   6
BRANCH   2  19
ATOM     19  C   UNL     1      -0.832   2.134   1.183  0.00  0.00    +0.163 C 
BRANCH  19  20
ATOM     20  N   UNL     1      -1.623   3.365   1.243  0.00  0.00    -0.300 N 
ATOM     21  C   UNL     1      -2.735   3.490   0.491  0.00  0.00    +0.245 C 
ATOM     22  O   UNL     1      -3.080   2.580  -0.237  0.00  0.00    -0.270 OA
ATOM     23  H   UNL     1      -1.347   4.091   1.825  0.00  0.00    +0.150 HD
BRANCH  21  24
ATOM     24  C   UNL     1      -3.533   4.732   0.552  0.00  0.00    +0.037 A 
ATOM     25  C   UNL     1      -3.142   5.776   1.392  0.00  0.00    +0.013 A 
ATOM     26  C   UNL     1      -3.889   6.935   1.441  0.00  0.00    +0.004 A 
ATOM     27  C   UNL     1      -5.029   7.059   0.668  0.00  0.00    -0.050 A 
ATOM     28  C   UNL     1      -5.425   6.027  -0.163  0.00  0.00    +0.004 A 
ATOM     29  C   UNL     1      -4.685   4.864  -0.225  0.00  0.00    +0.013 A 
ATOM     30  C   UNL     1      -5.844   8.326   0.730  0.00  0.00    +0.044 C 
ENDBRANCH  21  24
ENDBRANCH  19  20
BRANCH  19  31
ATOM     31  C   UNL     1       0.148   2.214   0.011  0.00  0.00    +0.012 C 
ATOM     32  C   UNL     1       0.990   3.485   0.136  0.00  0.00    +0.009 C 
ATOM     33  C   UNL     1      -0.633   2.247  -1.305  0.00  0.00    +0.009 C 
ENDBRANCH  19  31
ENDBRANCH   2  19
TORSDOF 9
