REMARK  Name = ZINC36485499
REMARK  11 active torsions:
REMARK  status: ('A' for Active; 'I' for Inactive)
REMARK    1  A    between atoms: C_3  and  N_8
REMARK    2  A    between atoms: N_8  and  C_9
REMARK    3  A    between atoms: C_9  and  C_11
REMARK    4  A    between atoms: C_9  and  C_20
REMARK    5  A    between atoms: C_12  and  O_19
REMARK    6  A    between atoms: C_14  and  O_18
REMARK    7  A    between atoms: C_16  and  O_17
REMARK    8  A    between atoms: N_22  and  C_23
REMARK    9  A    between atoms: C_29  and  C_31
REMARK   10  A    between atoms: C_31  and  C_32
REMARK   11  A    between atoms: C_32  and  S_33
REMARK                            x       y       z     vdW  Elec       q    Type
REMARK                         _______ _______ _______ _____ _____    ______ ____
ROOT
ATOM      1  C   UNL     1       4.800   1.344  -0.267  0.00  0.00    +0.204 C 
ENDROOT
BRANCH   1   2
ATOM      2  C   UNL     1       5.497   1.726  -1.547  0.00  0.00    +0.065 A 
ATOM      3  C   UNL     1       5.548   3.055  -1.940  0.00  0.00    +0.129 A 
ATOM      4  C   UNL     1       6.190   3.406  -3.118  0.00  0.00    +0.091 A 
ATOM      5  C   UNL     1       6.782   2.428  -3.903  0.00  0.00    +0.124 A 
ATOM      6  C   UNL     1       6.731   1.099  -3.510  0.00  0.00    +0.091 A 
ATOM      7  C   UNL     1       6.093   0.748  -2.330  0.00  0.00    +0.129 A 
BRANCH   7   8
ATOM      8  O   UNL     1       6.048  -0.553  -1.942  0.00  0.00    -0.506 OA
ATOM      9  H   UNL     1       5.279  -1.036  -2.274  0.00  0.00    +0.292 HD
ENDBRANCH   7   8
BRANCH   5  10
ATOM     10  O   UNL     1       7.410   2.772  -5.058  0.00  0.00    -0.507 OA
ATOM     11  H   UNL     1       8.349   2.974  -4.949  0.00  0.00    +0.292 HD
ENDBRANCH   5  10
BRANCH   3  12
ATOM     12  O   UNL     1       4.968   4.013  -1.170  0.00  0.00    -0.506 OA
ATOM     13  H   UNL     1       5.578   4.447  -0.557  0.00  0.00    +0.292 HD
ENDBRANCH   3  12
ENDBRANCH   1   2
BRANCH   1  14
ATOM     14  C   UNL     1       5.480   2.019   0.896  0.00  0.00    +0.239 C 
ATOM     15  O   UNL     1       4.857   2.781   1.604  0.00  0.00    -0.273 OA
ATOM     16  N   UNL     1       6.781   1.776   1.149  0.00  0.00    -0.311 N 
ATOM     17  H   UNL     1       7.280   1.166   0.583  0.00  0.00    +0.149 HD
BRANCH  16  18
ATOM     18  C   UNL     1       7.443   2.431   2.280  0.00  0.00    +0.073 C 
ATOM     19  C   UNL     1       7.936   3.814   1.850  0.00  0.00    +0.022 C 
ATOM     20  C   UNL     1       8.627   4.499   3.031  0.00  0.00    +0.002 C 
ATOM     21  C   UNL     1       9.817   3.652   3.487  0.00  0.00    +0.000 C 
ATOM     22  C   UNL     1       9.323   2.269   3.917  0.00  0.00    +0.002 C 
ATOM     23  C   UNL     1       8.632   1.584   2.736  0.00  0.00    +0.022 C 
ENDBRANCH  16  18
ENDBRANCH   1  14
BRANCH   1  24
ATOM     24  N   UNL     1       3.399   1.771  -0.328  0.00  0.00    -0.255 N 
ATOM     25  C   UNL     1       2.565   1.494   0.694  0.00  0.00    +0.221 C 
ATOM     26  O   UNL     1       2.994   0.973   1.702  0.00  0.00    -0.275 OA
BRANCH  24  29
ATOM     27  C   UNL     1       2.410   2.527  -3.788  0.00  0.00    +0.003 A 
ATOM     28  C   UNL     1       2.876   1.839  -2.685  0.00  0.00    +0.023 A 
ATOM     29  C   UNL     1       2.928   2.466  -1.447  0.00  0.00    +0.039 A 
ATOM     30  C   UNL     1       2.511   3.785  -1.322  0.00  0.00    +0.043 A 
ATOM     31  C   UNL     1       2.045   4.469  -2.429  0.00  0.00    +0.043 A 
ATOM     32  C   UNL     1       1.995   3.840  -3.661  0.00  0.00    +0.020 A 
ATOM     33 CL   UNL     1       1.523   6.117  -2.274  0.00  0.00    -0.083 Cl
ENDBRANCH  24  29
BRANCH  25  34
ATOM     34  C   UNL     1       1.101   1.830   0.583  0.00  0.00    +0.107 C 
BRANCH  34  35
ATOM     35  C   UNL     1       0.397   1.483   1.897  0.00  0.00    +0.075 C 
BRANCH  35  36
ATOM     36  S   UNL     1      -1.366   1.888   1.764  0.00  0.00    -0.178 S 
ATOM     37  H   UNL     1      -1.870   1.544   2.962  0.00  0.00    +0.102 HD
ENDBRANCH  35  36
ENDBRANCH  34  35
ENDBRANCH  25  34
ENDBRANCH   1  24
TORSDOF 11
