REMARK  Name = ZINC09705550
REMARK  8 active torsions:
REMARK  status: ('A' for Active; 'I' for Inactive)
REMARK    1  A    between atoms: C_1  and  C_2
REMARK    2  A    between atoms: C_2  and  C_3
REMARK    3  A    between atoms: C_3  and  C_5
REMARK    4  A    between atoms: C_3  and  N_6
REMARK    5  A    between atoms: C_7  and  C_9
REMARK    6  A    between atoms: N_11  and  C_12
REMARK    7  A    between atoms: C_20  and  C_21
REMARK    8  A    between atoms: N_23  and  C_24
REMARK                            x       y       z     vdW  Elec       q    Type
REMARK                         _______ _______ _______ _____ _____    ______ ____
ROOT
ATOM      1  C   UNL     1      -2.546  -4.166  -0.252  0.00  0.00    +0.093 A 
ATOM      2  C   UNL     1      -3.981  -4.410  -0.066  0.00  0.00    +0.042 A 
ATOM      3  C   UNL     1      -4.742  -5.539   0.239  0.00  0.00    +0.013 A 
ATOM      4  C   UNL     1      -6.101  -5.434   0.340  0.00  0.00    +0.001 A 
ATOM      5  C   UNL     1      -6.728  -4.212   0.141  0.00  0.00    +0.004 A 
ATOM      6  C   UNL     1      -5.994  -3.085  -0.161  0.00  0.00    +0.047 A 
ATOM      7  C   UNL     1      -4.610  -3.169  -0.269  0.00  0.00    +0.138 A 
ATOM      8  O   UNL     1      -3.652  -2.262  -0.545  0.00  0.00    -0.448 OA
ATOM      9  C   UNL     1      -2.427  -2.833  -0.536  0.00  0.00    +0.212 A 
ENDROOT
BRANCH   1  12
ATOM     10  C   UNL     1      -1.768  -6.400  -0.393  0.00  0.00    +0.303 C 
ATOM     11  O   UNL     1      -2.872  -6.752  -0.753  0.00  0.00    -0.265 OA
ATOM     12  N   UNL     1      -1.520  -5.096  -0.157  0.00  0.00    -0.274 N 
ATOM     13  H   UNL     1      -0.624  -4.808   0.079  0.00  0.00    +0.155 HD
BRANCH  10  15
ATOM     14  N   UNL     1      -0.932  -8.714  -0.446  0.00  0.00    -0.305 N 
ATOM     15  C   UNL     1      -0.684  -7.411  -0.211  0.00  0.00    +0.300 C 
ATOM     16  O   UNL     1       0.420  -7.059   0.150  0.00  0.00    -0.265 OA
ATOM     17  H   UNL     1      -1.815  -8.996  -0.734  0.00  0.00    +0.149 HD
BRANCH  14  18
ATOM     18  C   UNL     1       0.131  -9.706  -0.268  0.00  0.00    +0.070 C 
ATOM     19  C   UNL     1       0.973  -9.787  -1.543  0.00  0.00    +0.028 C 
BRANCH  18  21
ATOM     20  C   UNL     1      -1.229 -11.027   1.359  0.00  0.00    +0.005 C 
ATOM     21  C   UNL     1      -0.491 -11.074   0.020  0.00  0.00    +0.018 C 
ENDBRANCH  18  21
ENDBRANCH  14  18
ENDBRANCH  10  15
ENDBRANCH   1  12
BRANCH   9  22
ATOM     22  C   UNL     1      -1.169  -2.134  -0.796  0.00  0.00    +0.286 C 
ATOM     23  O   UNL     1      -0.126  -2.760  -0.856  0.00  0.00    -0.266 OA
ATOM     24  N   UNL     1      -1.164  -0.798  -0.970  0.00  0.00    -0.277 N 
ATOM     25  H   UNL     1      -1.981  -0.289  -0.847  0.00  0.00    +0.155 HD
BRANCH  24  26
ATOM     26  C   UNL     1       0.020  -0.143  -1.328  0.00  0.00    +0.069 A 
ATOM     27  C   UNL     1       1.028  -0.838  -1.984  0.00  0.00    +0.026 A 
ATOM     28  C   UNL     1       2.196  -0.189  -2.337  0.00  0.00    +0.002 A 
ATOM     29  C   UNL     1       2.363   1.151  -2.038  0.00  0.00    +0.003 A 
ATOM     30  C   UNL     1       1.362   1.847  -1.384  0.00  0.00    +0.040 A 
ATOM     31  C   UNL     1       0.190   1.204  -1.028  0.00  0.00    +0.144 A 
ATOM     32  F   UNL     1      -0.789   1.885  -0.395  0.00  0.00    -0.204 F 
ENDBRANCH  24  26
ENDBRANCH   9  22
TORSDOF 6
