REMARK  Name = ZINC05280322
REMARK  4 active torsions:
REMARK  status: ('A' for Active; 'I' for Inactive)
REMARK    1  A    between atoms: C_7  and  C_12
REMARK    2  A    between atoms: C_12  and  N_22
REMARK    3  A    between atoms: C_13  and  N_14
REMARK    4  A    between atoms: N_14  and  C_15
REMARK                            x       y       z     vdW  Elec       q    Type
REMARK                         _______ _______ _______ _____ _____    ______ ____
ROOT
ATOM      1  C   UNL     1       1.681  -1.264   1.080  0.00  0.00    +0.162 C 
ATOM      2  C   UNL     1       0.731  -1.683   1.895  0.00  0.00    +0.104 C 
ENDROOT
BRANCH   1   9
ATOM      3  C   UNL     1       3.896   2.587   0.422  0.00  0.00    +0.000 A 
ATOM      4  C   UNL     1       2.968   3.601   0.580  0.00  0.00    +0.001 A 
ATOM      5  C   UNL     1       1.617   3.322   0.538  0.00  0.00    +0.015 A 
ATOM      6  C   UNL     1       1.187   2.009   0.336  0.00  0.00    +0.066 A 
ATOM      7  C   UNL     1       2.133   0.993   0.178  0.00  0.00    +0.013 A 
ATOM      8  C   UNL     1       3.477   1.283   0.223  0.00  0.00    +0.008 A 
ATOM      9  C   UNL     1       1.355  -0.284  -0.018  0.00  0.00    +0.262 C 
ATOM     10  O   UNL     1      -0.052   0.079   0.039  0.00  0.00    -0.446 OA
ATOM     11  C   UNL     1      -0.154   1.403   0.244  0.00  0.00    +0.341 C 
ATOM     12  O   UNL     1      -1.200   2.013   0.334  0.00  0.00    -0.245 OA
ENDBRANCH   1   9
BRANCH   1  13
ATOM     13  N   UNL     1       3.068  -1.757   1.244  0.00  0.00    +0.058 N 
ATOM     14  O   UNL     1       3.356  -2.457   2.197  0.00  0.00    -0.126 OA
ATOM     15  O   UNL     1       3.920  -1.461   0.425  0.00  0.00    -0.126 OA
ENDBRANCH   1  13
BRANCH   2  16
ATOM     16  N   UNL     1       0.991  -2.708   2.796  0.00  0.00    -0.319 N 
ATOM     17  H   UNL     1       2.018  -3.077   2.928  0.00  0.00    +0.152 HD
BRANCH  16  18
ATOM     18  C   UNL     1      -0.054  -3.269   3.535  0.00  0.00    +0.032 A 
ATOM     19  C   UNL     1       0.204  -4.295   4.437  0.00  0.00    +0.023 A 
ATOM     20  C   UNL     1      -0.830  -4.848   5.165  0.00  0.00    +0.003 A 
ATOM     21  C   UNL     1      -2.122  -4.383   4.999  0.00  0.00    +0.020 A 
ATOM     22  C   UNL     1      -2.383  -3.363   4.102  0.00  0.00    +0.043 A 
ATOM     23  C   UNL     1      -1.351  -2.800   3.373  0.00  0.00    +0.043 A 
ATOM     24 CL   UNL     1      -4.006  -2.783   3.897  0.00  0.00    -0.083 Cl
ENDBRANCH  16  18
ENDBRANCH   2  16
TORSDOF 4
