REMARK  Name = ZINC15942076
REMARK  6 active torsions:
REMARK  status: ('A' for Active; 'I' for Inactive)
REMARK    1  A    between atoms: C_1  and  N_2
REMARK    2  A    between atoms: C_11  and  O_12
REMARK    3  A    between atoms: C_13  and  N_14
REMARK    4  A    between atoms: C_15  and  C_17
REMARK    5  A    between atoms: C_17  and  O_18
REMARK    6  A    between atoms: O_18  and  C_19
REMARK                            x       y       z     vdW  Elec       q    Type
REMARK                         _______ _______ _______ _____ _____    ______ ____
ROOT
ATOM      1  C   UNL     1      -0.350   1.542  -0.260  0.00  0.00    +0.139 C 
ATOM      2  N   UNL     1      -0.303   0.080  -0.187  0.00  0.00    -0.385 N 
ATOM      3  C   UNL     1       0.319  -0.606  -1.123  0.00  0.00    +0.074 A 
ATOM      4  C   UNL     1       0.257  -2.086  -1.185  0.00  0.00    +0.042 A 
ATOM      5  C   UNL     1      -0.239  -2.837  -0.125  0.00  0.00    +0.013 A 
ATOM      6  C   UNL     1      -0.275  -4.212  -0.224  0.00  0.00    +0.001 A 
ATOM      7  C   UNL     1       0.181  -4.840  -1.373  0.00  0.00    +0.004 A 
ATOM      8  C   UNL     1       0.673  -4.104  -2.429  0.00  0.00    +0.047 A 
ATOM      9  C   UNL     1       0.716  -2.716  -2.350  0.00  0.00    +0.141 A 
ATOM     10  O   UNL     1       1.184  -1.984  -3.381  0.00  0.00    -0.424 OA
ATOM     11  C   UNL     1       1.508  -0.691  -3.238  0.00  0.00    +0.309 A 
ATOM     12  C   UNL     1       1.113   0.051  -2.174  0.00  0.00    +0.139 A 
ATOM     13  H   UNL     1      -0.729  -0.383   0.551  0.00  0.00    +0.159 HD
ENDROOT
BRANCH  12  14
ATOM     14  N   UNL     1       1.458   1.413  -2.076  0.00  0.00    -0.276 N 
ATOM     15  C   UNL     1       2.331   1.820  -1.133  0.00  0.00    +0.255 C 
ATOM     16  O   UNL     1       2.748   1.032  -0.311  0.00  0.00    -0.272 OA
ATOM     17  H   UNL     1       1.067   2.058  -2.686  0.00  0.00    +0.155 HD
BRANCH  15  18
ATOM     18  C   UNL     1       2.791   3.255  -1.102  0.00  0.00    +0.324 C 
BRANCH  18  19
ATOM     19  O   UNL     1       3.707   3.438  -0.021  0.00  0.00    -0.483 OA
BRANCH  19  20
ATOM     20  C   UNL     1       4.219   4.686   0.149  0.00  0.00    +0.121 A 
ATOM     21  C   UNL     1       3.844   5.713  -0.704  0.00  0.00    +0.047 A 
ATOM     22  C   UNL     1       4.366   6.980  -0.529  0.00  0.00    +0.023 A 
ATOM     23  C   UNL     1       5.263   7.225   0.495  0.00  0.00    +0.041 A 
ATOM     24  C   UNL     1       5.640   6.201   1.347  0.00  0.00    +0.023 A 
ATOM     25  C   UNL     1       5.115   4.934   1.180  0.00  0.00    +0.047 A 
ATOM     26 CL   UNL     1       5.918   8.818   0.711  0.00  0.00    -0.084 Cl
ENDBRANCH  19  20
ENDBRANCH  18  19
ENDBRANCH  15  18
ENDBRANCH  12  14
BRANCH  11  27
ATOM     27  O   UNL     1       2.256  -0.101  -4.199  0.00  0.00    -0.479 OA
ATOM     28  H   UNL     1       2.497  -0.690  -4.928  0.00  0.00    +0.295 HD
ENDBRANCH  11  27
TORSDOF 5
