REMARK  Name = ZINC46223235
REMARK  8 active torsions:
REMARK  status: ('A' for Active; 'I' for Inactive)
REMARK    1  A    between atoms: C_1  and  C_2
REMARK    2  A    between atoms: C_2  and  C_26
REMARK    3  A    between atoms: C_3  and  C_4
REMARK    4  A    between atoms: C_6  and  C_11
REMARK    5  A    between atoms: C_8  and  C_9
REMARK    6  A    between atoms: C_8  and  C_10
REMARK    7  A    between atoms: N_13  and  C_14
REMARK    8  A    between atoms: C_18  and  N_20
REMARK                            x       y       z     vdW  Elec       q    Type
REMARK                         _______ _______ _______ _____ _____    ______ ____
ROOT
ATOM      1  C   UNL     1      -0.860  -0.188   4.962  0.00  0.00    +0.221 C 
ATOM      2  O   UNL     1      -0.308   0.583   5.719  0.00  0.00    -0.275 OA
ATOM      3  N   UNL     1      -2.165  -0.477   5.129  0.00  0.00    -0.285 N 
ATOM      4  H   UNL     1      -2.588  -1.149   4.572  0.00  0.00    +0.155 HD
ENDROOT
BRANCH   3   5
ATOM      5  C   UNL     1      -2.911   0.191   6.106  0.00  0.00    +0.035 A 
ATOM      6  C   UNL     1      -2.625   1.516   6.414  0.00  0.00    +0.023 A 
ATOM      7  C   UNL     1      -3.361   2.176   7.379  0.00  0.00    +0.004 A 
ATOM      8  C   UNL     1      -4.383   1.523   8.040  0.00  0.00    +0.024 A 
ATOM      9  C   UNL     1      -4.673   0.199   7.737  0.00  0.00    +0.041 A 
ATOM     10  C   UNL     1      -3.939  -0.466   6.766  0.00  0.00    +0.047 A 
BRANCH   9  11
ATOM     11  N   UNL     1      -5.708  -0.462   8.408  0.00  0.00    -0.234 N 
ATOM     12  C   UNL     1      -6.578   0.116   9.452  0.00  0.00    +0.158 C 
ATOM     13  C   UNL     1      -7.728  -0.916   9.528  0.00  0.00    +0.253 C 
ATOM     14  O   UNL     1      -7.094  -2.110   9.030  0.00  0.00    -0.448 OA
ATOM     15  C   UNL     1      -6.094  -1.737   8.213  0.00  0.00    +0.407 C 
ATOM     16  O   UNL     1      -5.589  -2.473   7.389  0.00  0.00    -0.226 OA
ENDBRANCH   9  11
ENDBRANCH   3   5
BRANCH   1  18
ATOM     17  C   UNL     1       1.370  -0.389   3.647  0.00  0.00    +0.030 C 
ATOM     18  C   UNL     1      -0.085  -0.822   3.836  0.00  0.00    +0.089 C 
ATOM     19  C   UNL     1       1.052  -1.776   4.209  0.00  0.00    -0.016 C 
ATOM     20  C   UNL     1       1.316  -2.013   5.697  0.00  0.00    +0.012 C 
ATOM     21  C   UNL     1       1.293  -2.980   3.296  0.00  0.00    +0.012 C 
BRANCH  17  24
ATOM     22  C   UNL     1       3.901   0.743   3.147  0.00  0.00    +0.038 C 
ATOM     23  C   UNL     1       3.073   0.213   2.004  0.00  0.00    -0.079 C 
ATOM     24  C   UNL     1       1.896  -0.313   2.237  0.00  0.00    -0.023 C 
ATOM     25  C   UNL     1       3.599   0.289   0.594  0.00  0.00    +0.038 C 
ENDBRANCH  17  24
ENDBRANCH   1  18
TORSDOF 4
