REMARK  Name = ZINC39564772
REMARK  12 active torsions:
REMARK  status: ('A' for Active; 'I' for Inactive)
REMARK    1  A    between atoms: C_1  and  C_2
REMARK    2  A    between atoms: C_2  and  C_3
REMARK    3  A    between atoms: C_2  and  C_4
REMARK    4  A    between atoms: C_4  and  C_6
REMARK    5  A    between atoms: C_4  and  N_26
REMARK    6  A    between atoms: C_6  and  O_8
REMARK    7  A    between atoms: O_8  and  C_9
REMARK    8  A    between atoms: C_9  and  C_10
REMARK    9  A    between atoms: N_12  and  C_13
REMARK   10  A    between atoms: C_13  and  C_14
REMARK   11  A    between atoms: N_16  and  C_17
REMARK   12  A    between atoms: C_27  and  C_29
REMARK                            x       y       z     vdW  Elec       q    Type
REMARK                         _______ _______ _______ _____ _____    ______ ____
ROOT
ATOM      1  C   UNL     1      -0.795  -4.137   0.906  0.00  0.00    +0.327 C 
ENDROOT
BRANCH   1   2
ATOM      2  C   UNL     1      -0.085  -4.710   2.106  0.00  0.00    +0.251 C 
ATOM      3  O   UNL     1       0.398  -3.969   2.935  0.00  0.00    -0.272 OA
ATOM      4  N   UNL     1       0.013  -6.045   2.256  0.00  0.00    -0.304 N 
ATOM      5  H   UNL     1      -0.373  -6.638   1.593  0.00  0.00    +0.149 HD
BRANCH   4   6
ATOM      6  C   UNL     1       0.704  -6.602   3.423  0.00  0.00    +0.200 C 
BRANCH   6   7
ATOM      7  C   UNL     1       0.674  -8.107   3.353  0.00  0.00    +0.234 C 
ATOM      8  O   UNL     1       0.129  -8.661   2.421  0.00  0.00    -0.274 OA
ATOM      9  N   UNL     1       1.252  -8.838   4.327  0.00  0.00    -0.282 N 
ATOM     10  H   UNL     1       1.743  -8.397   5.038  0.00  0.00    +0.155 HD
BRANCH   9  11
ATOM     11  C   UNL     1       1.144 -10.235   4.312  0.00  0.00    +0.072 A 
ATOM     12  C   UNL     1       1.129 -10.918   3.103  0.00  0.00    +0.029 A 
ATOM     13  C   UNL     1       1.022 -12.296   3.089  0.00  0.00    +0.043 A 
ATOM     14  C   UNL     1       0.930 -12.997   4.279  0.00  0.00    +0.161 A 
ATOM     15  C   UNL     1       0.944 -12.319   5.489  0.00  0.00    +0.195 A 
ATOM     16  C   UNL     1       1.057 -10.939   5.507  0.00  0.00    +0.182 A 
ATOM     17  F   UNL     1       1.078 -10.278   6.685  0.00  0.00    -0.200 F 
ATOM     18  F   UNL     1       0.853 -13.005   6.649  0.00  0.00    -0.199 F 
ATOM     19  F   UNL     1       0.825 -14.344   4.262  0.00  0.00    -0.202 F 
ENDBRANCH   9  11
ENDBRANCH   6   7
ENDBRANCH   4   6
ENDBRANCH   1   2
BRANCH   1  20
ATOM     20  O   UNL     1      -0.767  -2.710   0.972  0.00  0.00    -0.454 OA
BRANCH  20  21
ATOM     21  C   UNL     1      -1.361  -2.042  -0.029  0.00  0.00    +0.328 C 
ATOM     22  O   UNL     1      -1.888  -2.649  -0.932  0.00  0.00    -0.249 OA
BRANCH  21  23
ATOM     23  C   UNL     1      -1.371  -0.535  -0.028  0.00  0.00    +0.185 C 
BRANCH  23  24
ATOM     24  N   UNL     1      -2.075  -0.050  -1.218  0.00  0.00    -0.298 N 
ATOM     25  C   UNL     1      -2.652   1.168  -1.210  0.00  0.00    +0.245 C 
ATOM     26  O   UNL     1      -2.588   1.864  -0.216  0.00  0.00    -0.270 OA
ATOM     27  H   UNL     1      -2.126  -0.606  -2.011  0.00  0.00    +0.150 HD
BRANCH  25  28
ATOM     28  C   UNL     1      -3.362   1.657  -2.411  0.00  0.00    +0.037 A 
ATOM     29  C   UNL     1      -3.442   0.857  -3.552  0.00  0.00    +0.014 A 
ATOM     30  C   UNL     1      -4.106   1.318  -4.669  0.00  0.00    +0.021 A 
ATOM     31  C   UNL     1      -4.693   2.573  -4.660  0.00  0.00    +0.041 A 
ATOM     32  C   UNL     1      -4.617   3.371  -3.530  0.00  0.00    +0.021 A 
ATOM     33  C   UNL     1      -3.960   2.918  -2.406  0.00  0.00    +0.014 A 
ATOM     34 CL   UNL     1      -5.527   3.147  -6.070  0.00  0.00    -0.084 Cl
ENDBRANCH  25  28
ENDBRANCH  23  24
BRANCH  23  36
ATOM     35  C   UNL     1       0.058   1.514  -0.038  0.00  0.00    +0.009 C 
ATOM     36  C   UNL     1       0.068  -0.016  -0.040  0.00  0.00    +0.014 C 
ATOM     37  C   UNL     1       0.803  -0.522   1.203  0.00  0.00    +0.009 C 
ENDBRANCH  23  36
ENDBRANCH  21  23
ENDBRANCH  20  21
ENDBRANCH   1  20
TORSDOF 10
