REMARK  Name = ZINC04107160
REMARK  7 active torsions:
REMARK  status: ('A' for Active; 'I' for Inactive)
REMARK    1  A    between atoms: C_7  and  C_21
REMARK    2  A    between atoms: C_7  and  O_31
REMARK    3  A    between atoms: N_10  and  C_11
REMARK    4  A    between atoms: C_11  and  C_12
REMARK    5  A    between atoms: C_21  and  C_22
REMARK    6  A    between atoms: C_22  and  C_24
REMARK    7  A    between atoms: C_28  and  N_30
REMARK                            x       y       z     vdW  Elec       q    Type
REMARK                         _______ _______ _______ _____ _____    ______ ____
ROOT
ATOM      1  C   UNL     1      -8.120   1.898   0.702  0.00  0.00    +0.000 A 
ATOM      2  C   UNL     1      -8.794   2.255  -0.452  0.00  0.00    +0.002 A 
ATOM      3  C   UNL     1      -8.230   3.144  -1.343  0.00  0.00    +0.024 A 
ATOM      4  C   UNL     1      -6.974   3.690  -1.086  0.00  0.00    +0.043 A 
ATOM      5  C   UNL     1      -6.307   3.324   0.077  0.00  0.00    +0.015 A 
ATOM      6  C   UNL     1      -6.872   2.436   0.964  0.00  0.00    +0.009 A 
ATOM      7  C   UNL     1      -4.994   4.073   0.068  0.00  0.00    +0.175 C 
ATOM      8  C   UNL     1      -5.035   4.872  -1.218  0.00  0.00    +0.257 C 
ATOM      9  O   UNL     1      -4.175   5.622  -1.627  0.00  0.00    -0.272 OA
ATOM     10  N   UNL     1      -6.205   4.594  -1.819  0.00  0.00    -0.264 N 
ENDROOT
BRANCH   7  11
ATOM     11  O   UNL     1      -4.906   4.942   1.198  0.00  0.00    -0.374 OA
ATOM     12  H   UNL     1      -4.096   5.469   1.227  0.00  0.00    +0.211 HD
ENDBRANCH   7  11
BRANCH  10  13
ATOM     13  C   UNL     1      -6.624   5.175  -3.096  0.00  0.00    +0.149 C 
BRANCH  13  14
ATOM     14  C   UNL     1      -7.379   6.454  -2.843  0.00  0.00    -0.026 A 
ATOM     15  C   UNL     1      -8.751   6.424  -2.676  0.00  0.00    +0.009 A 
ATOM     16  C   UNL     1      -9.448   7.594  -2.439  0.00  0.00    +0.050 A 
ATOM     17  C   UNL     1      -8.773   8.803  -2.378  0.00  0.00    +0.166 A 
ATOM     18  C   UNL     1      -7.391   8.834  -2.551  0.00  0.00    +0.167 A 
ATOM     19  C   UNL     1      -6.699   7.656  -2.784  0.00  0.00    +0.054 A 
ATOM     20  O   UNL     1      -6.968  10.127  -2.448  0.00  0.00    -0.453 OA
ATOM     21  C   UNL     1      -8.045  10.835  -1.806  0.00  0.00    +0.466 C 
ATOM     22  O   UNL     1      -9.215  10.077  -2.167  0.00  0.00    -0.453 OA
ENDBRANCH  13  14
ENDBRANCH  10  13
BRANCH   7  23
ATOM     23  C   UNL     1      -3.818   3.094   0.053  0.00  0.00    +0.129 C 
BRANCH  23  24
ATOM     24  C   UNL     1      -2.523   3.864   0.044  0.00  0.00    +0.167 C 
ATOM     25  O   UNL     1      -2.539   5.077   0.049  0.00  0.00    -0.292 OA
BRANCH  24  26
ATOM     26  C   UNL     1      -1.239   3.145   0.029  0.00  0.00    +0.019 A 
ATOM     27  C   UNL     1      -1.218   1.746   0.017  0.00  0.00    +0.011 A 
ATOM     28  C   UNL     1      -0.013   1.076   0.008  0.00  0.00    +0.002 A 
ATOM     29  C   UNL     1       1.177   1.781   0.000  0.00  0.00    +0.023 A 
ATOM     30  C   UNL     1       1.168   3.171   0.007  0.00  0.00    +0.025 A 
ATOM     31  C   UNL     1      -0.037   3.857   0.021  0.00  0.00    +0.034 A 
BRANCH  30  32
ATOM     32  N   UNL     1       2.373   3.877  -0.001  0.00  0.00    -0.358 N 
ATOM     33  H   UNL     1       3.217   3.398  -0.011  0.00  0.00    +0.142 HD
ATOM     34  H   UNL     1       2.367   4.847   0.004  0.00  0.00    +0.142 HD
ENDBRANCH  30  32
ENDBRANCH  24  26
ENDBRANCH  23  24
ENDBRANCH   7  23
TORSDOF 7
