REMARK  Name = ZINC13681992
REMARK  8 active torsions:
REMARK  status: ('A' for Active; 'I' for Inactive)
REMARK    1  A    between atoms: C_1  and  C_2
REMARK    2  A    between atoms: C_5  and  N_8
REMARK    3  A    between atoms: C_11  and  C_13
REMARK    4  A    between atoms: C_19  and  C_25
REMARK    5  A    between atoms: C_22  and  O_24
REMARK    6  A    between atoms: C_28  and  O_31
REMARK    7  A    between atoms: O_31  and  C_32
REMARK    8  A    between atoms: C_32  and  C_33
REMARK                            x       y       z     vdW  Elec       q    Type
REMARK                         _______ _______ _______ _____ _____    ______ ____
ROOT
ATOM      1  N   UNL     1       0.684  -4.014   0.059  0.00  0.00    -0.214 N 
ATOM      2  C   UNL     1       1.243  -4.928   0.889  0.00  0.00    +0.164 A 
ATOM      3  C   UNL     1       0.953  -6.175   0.383  0.00  0.00    +0.032 A 
ATOM      4  C   UNL     1       0.211  -6.006  -0.783  0.00  0.00    +0.099 A 
ATOM      5  N   UNL     1       0.043  -4.710  -0.979  0.00  0.00    -0.164 NA
ATOM      6  C   UNL     1       1.412  -7.436   1.072  0.00  0.00    +0.064 C 
ATOM      7  C   UNL     1       2.713  -7.112   1.816  0.00  0.00    +0.108 C 
ATOM      8  C   UNL     1       2.629  -5.783   2.510  0.00  0.00    +0.190 C 
ATOM      9  N   UNL     1       1.955  -4.775   2.043  0.00  0.00    -0.197 NA
ENDROOT
BRANCH   1  14
ATOM     10  C   UNL     1       0.878   1.622   0.683  0.00  0.00    +0.044 C 
ATOM     11  C   UNL     1       0.827   0.125   0.517  0.00  0.00    -0.050 A 
ATOM     12  C   UNL     1       0.853  -0.430  -0.749  0.00  0.00    +0.005 A 
ATOM     13  C   UNL     1       0.805  -1.802  -0.904  0.00  0.00    +0.028 A 
ATOM     14  C   UNL     1       0.733  -2.624   0.213  0.00  0.00    +0.068 A 
ATOM     15  C   UNL     1       0.708  -2.063   1.484  0.00  0.00    +0.028 A 
ATOM     16  C   UNL     1       0.760  -0.691   1.632  0.00  0.00    +0.005 A 
ENDBRANCH   1  14
BRANCH   4  17
ATOM     17  C   UNL     1      -0.305  -7.092  -1.653  0.00  0.00    +0.002 A 
ATOM     18  C   UNL     1      -0.925  -8.205  -1.088  0.00  0.00    +0.010 A 
ATOM     19  C   UNL     1      -1.404  -9.212  -1.901  0.00  0.00    +0.001 A 
ATOM     20  C   UNL     1      -1.269  -9.118  -3.275  0.00  0.00    +0.000 A 
ATOM     21  C   UNL     1      -0.653  -8.016  -3.841  0.00  0.00    +0.001 A 
ATOM     22  C   UNL     1      -0.176  -7.001  -3.037  0.00  0.00    +0.010 A 
ENDBRANCH   4  17
BRANCH   6  23
ATOM     23  C   UNL     1       1.662  -8.515   0.049  0.00  0.00    -0.039 A 
ATOM     24  C   UNL     1       2.481  -8.261  -1.036  0.00  0.00    +0.008 A 
ATOM     25  C   UNL     1       2.711  -9.248  -1.974  0.00  0.00    +0.046 A 
ATOM     26  C   UNL     1       2.120 -10.495  -1.827  0.00  0.00    +0.121 A 
ATOM     27  C   UNL     1       1.299 -10.747  -0.738  0.00  0.00    +0.046 A 
ATOM     28  C   UNL     1       1.076  -9.758   0.201  0.00  0.00    +0.008 A 
BRANCH  26  29
ATOM     29  O   UNL     1       2.345 -11.467  -2.750  0.00  0.00    -0.483 OA
BRANCH  29  30
ATOM     30  C   UNL     1       1.704 -12.726  -2.534  0.00  0.00    +0.324 C 
BRANCH  30  31
ATOM     31  C   UNL     1       2.067 -13.672  -3.650  0.00  0.00    +0.248 C 
ATOM     32  O   UNL     1       2.802 -13.305  -4.542  0.00  0.00    -0.272 OA
ATOM     33  N   UNL     1       1.574 -14.927  -3.657  0.00  0.00    -0.327 N 
ATOM     34  H   UNL     1       0.986 -15.221  -2.943  0.00  0.00    +0.145 HD
ATOM     35  H   UNL     1       1.808 -15.536  -4.375  0.00  0.00    +0.145 HD
ENDBRANCH  30  31
ENDBRANCH  29  30
ENDBRANCH  26  29
ENDBRANCH   6  23
BRANCH   8  36
ATOM     36  O   UNL     1       3.286  -5.628   3.678  0.00  0.00    -0.495 OA
ATOM     37  H   UNL     1       3.189  -4.749   4.069  0.00  0.00    +0.293 HD
ENDBRANCH   8  36
TORSDOF 7
