REMARK  Name = ZINC36719310
REMARK  13 active torsions:
REMARK  status: ('A' for Active; 'I' for Inactive)
REMARK    1  A    between atoms: C_1  and  C_2
REMARK    2  A    between atoms: C_5  and  S_8
REMARK    3  A    between atoms: S_8  and  N_11
REMARK    4  A    between atoms: N_11  and  C_12
REMARK    5  A    between atoms: C_12  and  C_14
REMARK    6  A    between atoms: C_12  and  C_18
REMARK    7  A    between atoms: C_14  and  C_15
REMARK    8  A    between atoms: C_15  and  C_16
REMARK    9  A    between atoms: C_15  and  C_17
REMARK   10  A    between atoms: N_20  and  C_21
REMARK   11  A    between atoms: C_21  and  C_22
REMARK   12  A    between atoms: C_22  and  C_23
REMARK   13  A    between atoms: C_23  and  N_24
REMARK                            x       y       z     vdW  Elec       q    Type
REMARK                         _______ _______ _______ _____ _____    ______ ____
ROOT
ATOM      1  C   UNL     1       3.599  -3.865   0.315  0.00  0.00    +0.232 C 
ATOM      2  O   UNL     1       3.834  -3.949  -0.872  0.00  0.00    -0.274 OA
ATOM      3  N   UNL     1       4.450  -3.209   1.127  0.00  0.00    -0.314 N 
ATOM      4  H   UNL     1       4.300  -3.203   2.085  0.00  0.00    +0.149 HD
ENDROOT
BRANCH   1   5
ATOM      5  C   UNL     1       2.353  -4.497   0.881  0.00  0.00    +0.162 C 
BRANCH   5   6
ATOM      6  N   UNL     1       1.391  -4.733  -0.198  0.00  0.00    -0.178 NA
ATOM      7  H   UNL     1       1.703  -5.005  -1.075  0.00  0.00    +0.149 HD
BRANCH   6   8
ATOM      8  S   UNL     1      -0.230  -4.535   0.079  0.00  0.00    +0.059 S 
ATOM      9  O   UNL     1      -0.534  -5.275   1.254  0.00  0.00    -0.153 OA
ATOM     10  O   UNL     1      -0.885  -4.769  -1.159  0.00  0.00    -0.153 OA
BRANCH   8  15
ATOM     11  C   UNL     1      -1.116   1.279   1.427  0.00  0.00    +0.044 C 
ATOM     12  C   UNL     1      -0.894  -0.173   1.090  0.00  0.00    -0.050 A 
ATOM     13  C   UNL     1      -0.961  -0.596  -0.224  0.00  0.00    +0.005 A 
ATOM     14  C   UNL     1      -0.758  -1.928  -0.533  0.00  0.00    +0.029 A 
ATOM     15  C   UNL     1      -0.488  -2.837   0.473  0.00  0.00    +0.105 A 
ATOM     16  C   UNL     1      -0.420  -2.414   1.787  0.00  0.00    +0.029 A 
ATOM     17  C   UNL     1      -0.619  -1.081   2.095  0.00  0.00    +0.005 A 
ENDBRANCH   8  15
ENDBRANCH   6   8
ENDBRANCH   5   6
BRANCH   5  18
ATOM     18  C   UNL     1       2.712  -5.828   1.544  0.00  0.00    +0.032 C 
BRANCH  18  19
ATOM     19  C   UNL     1       3.609  -5.568   2.756  0.00  0.00    -0.015 C 
ATOM     20  C   UNL     1       2.811  -4.828   3.832  0.00  0.00    +0.007 C 
ATOM     21  C   UNL     1       4.107  -6.901   3.318  0.00  0.00    +0.007 C 
ENDBRANCH  18  19
ENDBRANCH   5  18
ENDBRANCH   1   5
BRANCH   3  22
ATOM     22  C   UNL     1       5.604  -2.504   0.562  0.00  0.00    +0.106 C 
BRANCH  22  23
ATOM     23  C   UNL     1       6.403  -1.848   1.690  0.00  0.00    +0.038 C 
BRANCH  23  24
ATOM     24  C   UNL     1       7.607  -1.112   1.101  0.00  0.00    +0.119 C 
BRANCH  24  25
ATOM     25  N   UNL     1       8.372  -0.483   2.180  0.00  0.00    -0.224 N 
ATOM     26  C   UNL     1       8.149   0.767   2.641  0.00  0.00    +0.246 C 
ATOM     27  O   UNL     1       7.311   1.554   2.256  0.00  0.00    -0.273 OA
ATOM     28  C   UNL     1       9.164   0.974   3.736  0.00  0.00    +0.113 C 
ATOM     29  C   UNL     1       8.477   1.259   5.078  0.00  0.00    +0.035 C 
ATOM     30  C   UNL     1       9.425   2.267   5.778  0.00  0.00    +0.003 C 
ATOM     31  C   UNL     1       9.917   3.150   4.603  0.00  0.00    +0.003 C 
ATOM     32  C   UNL     1      10.080   2.161   3.428  0.00  0.00    +0.035 C 
ATOM     33  N   UNL     1       9.915  -0.282   3.783  0.00  0.00    -0.285 N 
ATOM     34  C   UNL     1       9.376  -1.079   2.838  0.00  0.00    +0.309 C 
ATOM     35  O   UNL     1       9.760  -2.208   2.606  0.00  0.00    -0.252 OA
ATOM     36  H   UNL     1      10.650  -0.499   4.377  0.00  0.00    +0.151 HD
ENDBRANCH  24  25
ENDBRANCH  23  24
ENDBRANCH  22  23
ENDBRANCH   3  22
TORSDOF 10
