REMARK  Name = ZINC39580212
REMARK  9 active torsions:
REMARK  status: ('A' for Active; 'I' for Inactive)
REMARK    1  A    between atoms: C_1  and  C_2
REMARK    2  A    between atoms: C_3  and  C_12
REMARK    3  A    between atoms: C_12  and  O_13
REMARK    4  A    between atoms: O_13  and  C_14
REMARK    5  A    between atoms: C_14  and  C_16
REMARK    6  A    between atoms: C_16  and  N_17
REMARK    7  A    between atoms: C_22  and  C_29
REMARK    8  A    between atoms: C_25  and  C_27
REMARK    9  A    between atoms: C_25  and  C_28
REMARK                            x       y       z     vdW  Elec       q    Type
REMARK                         _______ _______ _______ _____ _____    ______ ____
ROOT
ATOM      1  C   UNL     1       2.076   1.445  -4.717  0.00  0.00    +0.238 C 
ENDROOT
BRANCH   1   2
ATOM      2  N   UNL     1       2.184   2.199  -5.968  0.00  0.00    -0.213 N 
ATOM      3  C   UNL     1       2.243   1.632  -7.192  0.00  0.00    +0.247 C 
ATOM      4  O   UNL     1       2.219   0.449  -7.455  0.00  0.00    -0.273 OA
ATOM      5  C   UNL     1       2.347   2.784  -8.165  0.00  0.00    +0.113 C 
ATOM      6  C   UNL     1       1.151   2.791  -9.110  0.00  0.00    +0.038 C 
ATOM      7  C   UNL     1       1.260   3.981 -10.066  0.00  0.00    -0.011 C 
ATOM      8  C   UNL     1       2.561   3.876 -10.864  0.00  0.00    +0.009 C 
ATOM      9  C   UNL     1       3.752   3.894  -9.904  0.00  0.00    -0.032 C 
ATOM     10  C   UNL     1       3.653   2.703  -8.947  0.00  0.00    +0.041 C 
ATOM     11  C   UNL     1       3.740   5.196  -9.101  0.00  0.00    +0.011 C 
ATOM     12  C   UNL     1       5.053   3.800 -10.704  0.00  0.00    +0.011 C 
ATOM     13  C   UNL     1       0.069   3.974 -11.028  0.00  0.00    +0.007 C 
ATOM     14  N   UNL     1       2.333   3.977  -7.309  0.00  0.00    -0.285 N 
ATOM     15  C   UNL     1       2.230   3.534  -6.041  0.00  0.00    +0.310 C 
ATOM     16  O   UNL     1       2.187   4.266  -5.071  0.00  0.00    -0.252 OA
ATOM     17  H   UNL     1       2.384   4.901  -7.599  0.00  0.00    +0.151 HD
ENDBRANCH   1   2
BRANCH   1  18
ATOM     18  C   UNL     1       0.622   1.231  -4.383  0.00  0.00    +0.326 C 
ATOM     19  O   UNL     1      -0.236   1.663  -5.116  0.00  0.00    -0.249 OA
BRANCH  18  20
ATOM     20  O   UNL     1       0.280   0.559  -3.272  0.00  0.00    -0.457 OA
BRANCH  20  21
ATOM     21  C   UNL     1      -1.117   0.394  -3.019  0.00  0.00    +0.289 C 
BRANCH  21  24
ATOM     22  C   UNL     1      -1.316   1.813  -0.512  0.00  0.00    +0.067 C 
ATOM     23  C   UNL     1      -1.403   0.308  -0.526  0.00  0.00    +0.063 A 
ATOM     24  C   UNL     1      -1.307  -0.378  -1.738  0.00  0.00    +0.100 A 
ATOM     25  N   UNL     1      -1.380  -1.689  -1.775  0.00  0.00    -0.245 NA
ATOM     26  C   UNL     1      -1.549  -2.375  -0.639  0.00  0.00    +0.090 A 
ATOM     27  C   UNL     1      -1.630  -3.779  -0.644  0.00  0.00    +0.030 A 
ATOM     28  C   UNL     1      -1.802  -4.448   0.528  0.00  0.00    +0.002 A 
ATOM     29  C   UNL     1      -1.899  -3.763   1.738  0.00  0.00    +0.002 A 
ATOM     30  C   UNL     1      -1.824  -2.405   1.782  0.00  0.00    +0.030 A 
ATOM     31  C   UNL     1      -1.647  -1.678   0.592  0.00  0.00    +0.089 A 
ATOM     32  N   UNL     1      -1.565  -0.343   0.603  0.00  0.00    -0.248 NA
ENDBRANCH  21  24
ENDBRANCH  20  21
ENDBRANCH  18  20
ENDBRANCH   1  18
TORSDOF 5
