REMARK  Name = ZINC12631065
REMARK  9 active torsions:
REMARK  status: ('A' for Active; 'I' for Inactive)
REMARK    1  A    between atoms: C_1  and  C_2
REMARK    2  A    between atoms: C_2  and  C_4
REMARK    3  A    between atoms: C_2  and  O_16
REMARK    4  A    between atoms: N_6  and  C_7
REMARK    5  A    between atoms: O_16  and  C_17
REMARK    6  A    between atoms: C_17  and  C_19
REMARK    7  A    between atoms: C_24  and  N_25
REMARK    8  A    between atoms: N_25  and  S_26
REMARK    9  A    between atoms: S_26  and  C_29
REMARK                            x       y       z     vdW  Elec       q    Type
REMARK                         _______ _______ _______ _____ _____    ______ ____
ROOT
ATOM      1  C   UNL     1       8.246  -3.572   4.269  0.00  0.00    +0.342 C 
ATOM      2  O   UNL     1       9.145  -2.830   3.926  0.00  0.00    -0.245 OA
ENDROOT
BRANCH   1   3
ATOM      3  C   UNL     1       8.546  -4.958   4.667  0.00  0.00    +0.081 A 
ATOM      4  C   UNL     1       7.516  -5.814   5.067  0.00  0.00    +0.017 A 
ATOM      5  C   UNL     1       7.804  -7.111   5.432  0.00  0.00    +0.001 A 
ATOM      6  C   UNL     1       9.111  -7.570   5.415  0.00  0.00    +0.002 A 
ATOM      7  C   UNL     1      10.140  -6.737   5.028  0.00  0.00    +0.025 A 
ATOM      8  C   UNL     1       9.870  -5.427   4.651  0.00  0.00    +0.062 A 
BRANCH   8   9
ATOM      9  N   UNL     1      10.903  -4.585   4.261  0.00  0.00    -0.215 N 
ATOM     10  H   UNL     1      10.873  -3.643   4.486  0.00  0.00    +0.174 HD
BRANCH   9  11
ATOM     11  S   UNL     1      12.188  -5.192   3.410  0.00  0.00    +0.079 S 
ATOM     12  O   UNL     1      12.995  -4.080   3.046  0.00  0.00    -0.149 OA
ATOM     13  O   UNL     1      12.694  -6.286   4.163  0.00  0.00    -0.149 OA
BRANCH  11  14
ATOM     14  C   UNL     1      11.551  -5.864   1.911  0.00  0.00    +0.146 A 
ATOM     15  C   UNL     1      11.369  -5.257   0.713  0.00  0.00    +0.036 A 
ATOM     16  C   UNL     1      10.848  -5.989  -0.337  0.00  0.00    +0.010 A 
ATOM     17  C   UNL     1      10.534  -7.293  -0.138  0.00  0.00    +0.047 A 
ATOM     18  S   UNL     1      10.983  -7.523   1.575  0.00  0.00    -0.077 S 
ENDBRANCH  11  14
ENDBRANCH   9  11
ENDBRANCH   8   9
ENDBRANCH   1   3
BRANCH   1  19
ATOM     19  O   UNL     1       6.974  -3.127   4.286  0.00  0.00    -0.449 OA
BRANCH  19  21
ATOM     20  C   UNL     1       6.842  -0.838   5.108  0.00  0.00    +0.062 C 
ATOM     21  C   UNL     1       6.752  -1.750   3.882  0.00  0.00    +0.259 C 
BRANCH  21  22
ATOM     22  C   UNL     1       5.385  -1.623   3.261  0.00  0.00    +0.258 C 
ATOM     23  O   UNL     1       4.633  -2.575   3.250  0.00  0.00    -0.271 OA
ATOM     24  N   UNL     1       4.998  -0.452   2.718  0.00  0.00    -0.282 N 
ATOM     25  H   UNL     1       5.625   0.286   2.658  0.00  0.00    +0.155 HD
BRANCH  24  26
ATOM     26  C   UNL     1       3.689  -0.299   2.241  0.00  0.00    +0.037 A 
ATOM     27  C   UNL     1       3.442   0.509   1.140  0.00  0.00    +0.027 A 
ATOM     28  C   UNL     1       2.152   0.660   0.668  0.00  0.00    +0.051 A 
ATOM     29  C   UNL     1       1.102   0.005   1.291  0.00  0.00    +0.166 A 
ATOM     30  C   UNL     1       1.348  -0.807   2.396  0.00  0.00    +0.168 A 
ATOM     31  C   UNL     1       2.641  -0.958   2.868  0.00  0.00    +0.072 A 
ATOM     32  O   UNL     1       0.162  -1.333   2.822  0.00  0.00    -0.453 OA
ATOM     33  C   UNL     1      -0.752  -1.162   1.724  0.00  0.00    +0.466 C 
ATOM     34  O   UNL     1      -0.237  -0.013   1.026  0.00  0.00    -0.453 OA
ENDBRANCH  24  26
ENDBRANCH  21  22
ENDBRANCH  19  21
ENDBRANCH   1  19
TORSDOF 8
