REMARK  Name = ZINC54617072
REMARK  14 active torsions:
REMARK  status: ('A' for Active; 'I' for Inactive)
REMARK    1  A    between atoms: C_1  and  C_2
REMARK    2  A    between atoms: C_2  and  C_3
REMARK    3  A    between atoms: C_3  and  S_4
REMARK    4  A    between atoms: S_4  and  C_5
REMARK    5  A    between atoms: C_10  and  C_28
REMARK    6  A    between atoms: C_12  and  C_16
REMARK    7  A    between atoms: C_13  and  C_15
REMARK    8  A    between atoms: N_18  and  C_19
REMARK    9  A    between atoms: C_24  and  O_25
REMARK   10  A    between atoms: O_25  and  C_26
REMARK   11  A    between atoms: C_26  and  C_27
REMARK   12  A    between atoms: C_31  and  N_34
REMARK   13  A    between atoms: N_34  and  C_35
REMARK   14  A    between atoms: N_34  and  C_36
REMARK                            x       y       z     vdW  Elec       q    Type
REMARK                         _______ _______ _______ _____ _____    ______ ____
ROOT
ATOM      1  C   UNL     1      -3.121  -2.568   0.110  0.00  0.00    +0.210 A 
ATOM      2  N   UNL     1      -4.163  -1.725   0.171  0.00  0.00    -0.187 NA
ATOM      3  C   UNL     1      -5.276  -2.407   0.167  0.00  0.00    +0.219 A 
ATOM      4  N   UNL     1      -4.963  -3.724   0.108  0.00  0.00    -0.220 N 
ATOM      5  N   UNL     1      -3.572  -3.803   0.063  0.00  0.00    -0.141 NA
ATOM      6  C   UNL     1      -5.960  -4.792   0.096  0.00  0.00    +0.177 C 
ATOM      7  C   UNL     1      -7.324  -4.201  -0.141  0.00  0.00    +0.060 C 
ATOM      8  C   UNL     1      -7.574  -2.885  -0.073  0.00  0.00    +0.018 C 
ATOM      9  N   UNL     1      -6.592  -1.968   0.210  0.00  0.00    -0.287 N 
ATOM     10  C   UNL     1      -8.979  -2.397  -0.316  0.00  0.00    +0.061 C 
ATOM     11  H   UNL     1      -6.810  -1.049   0.432  0.00  0.00    +0.155 HD
ENDROOT
BRANCH   6  12
ATOM     12  C   UNL     1      -5.946  -5.507   1.422  0.00  0.00    -0.018 A 
ATOM     13  C   UNL     1      -6.221  -4.811   2.585  0.00  0.00    +0.008 A 
ATOM     14  C   UNL     1      -6.209  -5.464   3.802  0.00  0.00    +0.023 A 
ATOM     15  C   UNL     1      -5.920  -6.821   3.857  0.00  0.00    +0.029 A 
ATOM     16  C   UNL     1      -5.644  -7.518   2.688  0.00  0.00    +0.023 A 
ATOM     17  C   UNL     1      -5.663  -6.860   1.473  0.00  0.00    +0.008 A 
BRANCH  15  18
ATOM     18  N   UNL     1      -5.906  -7.484   5.087  0.00  0.00    -0.336 N 
ATOM     19  C   UNL     1      -6.307  -6.777   6.305  0.00  0.00    +0.129 C 
ATOM     20  C   UNL     1      -5.491  -8.887   5.157  0.00  0.00    +0.129 C 
ENDBRANCH  15  18
ENDBRANCH   6  12
BRANCH   7  21
ATOM     21  C   UNL     1      -8.393  -5.075  -0.451  0.00  0.00    +0.248 C 
ATOM     22  O   UNL     1      -8.522  -5.502  -1.584  0.00  0.00    -0.270 OA
ATOM     23  N   UNL     1      -9.268  -5.436   0.509  0.00  0.00    -0.279 N 
ATOM     24  H   UNL     1      -9.214  -5.034   1.390  0.00  0.00    +0.155 HD
BRANCH  23  25
ATOM     25  C   UNL     1     -10.255  -6.390   0.234  0.00  0.00    +0.076 A 
ATOM     26  C   UNL     1     -10.059  -7.323  -0.775  0.00  0.00    +0.027 A 
ATOM     27  C   UNL     1     -11.035  -8.264  -1.044  0.00  0.00    +0.002 A 
ATOM     28  C   UNL     1     -12.207  -8.279  -0.311  0.00  0.00    +0.004 A 
ATOM     29  C   UNL     1     -12.410  -7.353   0.695  0.00  0.00    +0.047 A 
ATOM     30  C   UNL     1     -11.434  -6.410   0.976  0.00  0.00    +0.142 A 
BRANCH  30  31
ATOM     31  O   UNL     1     -11.630  -5.502   1.969  0.00  0.00    -0.490 OA
BRANCH  31  32
ATOM     32  C   UNL     1     -12.862  -5.582   2.688  0.00  0.00    +0.226 C 
ATOM     33  C   UNL     1     -12.901  -4.488   3.757  0.00  0.00    +0.048 C 
ENDBRANCH  31  32
ENDBRANCH  30  31
ENDBRANCH  23  25
ENDBRANCH   7  21
BRANCH   1  34
ATOM     34  S   UNL     1      -1.424  -2.097   0.089  0.00  0.00    -0.084 S 
BRANCH  34  35
ATOM     35  C   UNL     1      -1.470  -0.286   0.176  0.00  0.00    +0.077 C 
BRANCH  35  37
ATOM     36  C   UNL     1      -0.080   1.789   0.239  0.00  0.00    +0.004 C 
ATOM     37  C   UNL     1      -0.041   0.262   0.166  0.00  0.00    +0.008 C 
ENDBRANCH  35  37
ENDBRANCH  34  35
ENDBRANCH   1  34
TORSDOF 9
