REMARK  Name = ZINC03408117
REMARK  5 active torsions:
REMARK  status: ('A' for Active; 'I' for Inactive)
REMARK    1  A    between atoms: C_1  and  C_2
REMARK    2  A    between atoms: N_11  and  C_15
REMARK    3  A    between atoms: C_15  and  C_16
REMARK    4  A    between atoms: N_18  and  C_19
REMARK    5  A    between atoms: C_20  and  C_27
REMARK                            x       y       z     vdW  Elec       q    Type
REMARK                         _______ _______ _______ _____ _____    ______ ____
ROOT
ATOM      1  C   UNL     1       3.277   2.951   2.373  0.00  0.00    +0.236 C 
ATOM      2  O   UNL     1       2.353   3.293   1.666  0.00  0.00    -0.274 OA
ATOM      3  N   UNL     1       4.255   3.827   2.674  0.00  0.00    -0.278 N 
ATOM      4  H   UNL     1       4.995   3.554   3.240  0.00  0.00    +0.155 HD
ENDROOT
BRANCH   3   5
ATOM      5  C   UNL     1       4.205   5.120   2.176  0.00  0.00    +0.084 A 
ATOM      6  C   UNL     1       5.114   6.144   2.373  0.00  0.00    +0.068 A 
ATOM      7  C   UNL     1       4.829   7.426   1.731  0.00  0.00    -0.023 A 
ATOM      8  C   UNL     1       3.690   7.440   1.016  0.00  0.00    -0.004 A 
ATOM      9  S   UNL     1       3.032   5.801   1.189  0.00  0.00    -0.077 S 
ATOM     10  C   UNL     1       3.443   8.782   0.382  0.00  0.00    +0.043 C 
ATOM     11  C   UNL     1       4.371   9.752   1.145  0.00  0.00    +0.010 C 
ATOM     12  C   UNL     1       5.483   8.803   1.637  0.00  0.00    +0.037 C 
BRANCH   6  13
ATOM     13  C   UNL     1       6.314   5.951   3.193  0.00  0.00    +0.244 C 
ATOM     14  O   UNL     1       7.346   5.562   2.679  0.00  0.00    -0.270 OA
ATOM     15  N   UNL     1       6.274   6.204   4.516  0.00  0.00    -0.325 N 
ATOM     16  H   UNL     1       5.451   6.514   4.926  0.00  0.00    +0.145 HD
ATOM     17  H   UNL     1       7.068   6.077   5.059  0.00  0.00    +0.145 HD
ENDBRANCH   6  13
ENDBRANCH   3   5
BRANCH   1  18
ATOM     18  C   UNL     1       3.332   1.546   2.915  0.00  0.00    +0.214 C 
BRANCH  18  28
ATOM     19  C   UNL     1      -0.019   1.526   0.010  0.00  0.00    +0.010 C 
ATOM     20  C   UNL     1       0.002  -0.004   0.002  0.00  0.00    +0.018 C 
ATOM     21  C   UNL     1       0.718  -0.497  -1.258  0.00  0.00    +0.006 C 
ATOM     22  C   UNL     1       0.756  -2.027  -1.256  0.00  0.00    +0.000 C 
ATOM     23  C   UNL     1       1.519  -2.517  -0.023  0.00  0.00    +0.003 C 
ATOM     24  C   UNL     1       0.807  -2.032   1.242  0.00  0.00    +0.035 C 
ATOM     25  C   UNL     1       0.739  -0.509   1.238  0.00  0.00    +0.115 C 
ATOM     26  C   UNL     1       2.128   0.083   1.303  0.00  0.00    +0.247 C 
ATOM     27  O   UNL     1       3.022  -0.055   0.496  0.00  0.00    -0.273 OA
ATOM     28  N   UNL     1       2.163   0.796   2.447  0.00  0.00    -0.215 N 
ATOM     29  C   UNL     1       0.998   0.734   3.103  0.00  0.00    +0.310 C 
ATOM     30  O   UNL     1       0.786   1.296   4.159  0.00  0.00    -0.252 OA
ATOM     31  N   UNL     1       0.086  -0.021   2.460  0.00  0.00    -0.285 N 
ATOM     32  H   UNL     1      -0.822  -0.205   2.747  0.00  0.00    +0.151 HD
ENDBRANCH  18  28
ENDBRANCH   1  18
TORSDOF 4
