REMARK  Name = ZINC01982744
REMARK  9 active torsions:
REMARK  status: ('A' for Active; 'I' for Inactive)
REMARK    1  A    between atoms: C_1  and  C_2
REMARK    2  A    between atoms: C_5  and  N_9
REMARK    3  A    between atoms: C_6  and  C_8
REMARK    4  A    between atoms: C_10  and  C_12
REMARK    5  A    between atoms: C_12  and  C_14
REMARK    6  A    between atoms: C_12  and  O_15
REMARK    7  A    between atoms: O_15  and  C_16
REMARK    8  A    between atoms: C_16  and  C_18
REMARK    9  A    between atoms: C_21  and  N_25
REMARK                            x       y       z     vdW  Elec       q    Type
REMARK                         _______ _______ _______ _____ _____    ______ ____
ROOT
ATOM      1  C   UNL     1      -3.774  -1.016   0.003  0.00  0.00    +0.259 C 
ATOM      2  C   UNL     1      -4.229  -1.256  -1.438  0.00  0.00    +0.062 C 
ENDROOT
BRANCH   1   4
ATOM      3  N   UNL     1      -4.725  -3.139   0.843  0.00  0.00    -0.282 N 
ATOM      4  C   UNL     1      -3.649  -2.338   0.716  0.00  0.00    +0.258 C 
ATOM      5  O   UNL     1      -2.580  -2.680   1.176  0.00  0.00    -0.271 OA
ATOM      6  H   UNL     1      -5.596  -2.832   0.548  0.00  0.00    +0.155 HD
BRANCH   3  11
ATOM      7  C   UNL     1      -4.160  -8.309   3.109  0.00  0.00    +0.044 C 
ATOM      8  C   UNL     1      -4.310  -6.936   2.507  0.00  0.00    -0.050 A 
ATOM      9  C   UNL     1      -3.225  -6.324   1.906  0.00  0.00    +0.005 A 
ATOM     10  C   UNL     1      -3.360  -5.065   1.354  0.00  0.00    +0.024 A 
ATOM     11  C   UNL     1      -4.586  -4.415   1.402  0.00  0.00    +0.036 A 
ATOM     12  C   UNL     1      -5.671  -5.030   2.011  0.00  0.00    -0.029 A 
ATOM     13  C   UNL     1      -5.532  -6.291   2.557  0.00  0.00    +0.008 A 
ATOM     14  C   UNL     1      -7.002  -4.325   2.072  0.00  0.00    +0.045 C 
ENDBRANCH   3  11
ENDBRANCH   1   4
BRANCH   1  15
ATOM     15  O   UNL     1      -2.486  -0.345  -0.002  0.00  0.00    -0.449 OA
BRANCH  15  16
ATOM     16  C   UNL     1      -2.499   1.002  -0.005  0.00  0.00    +0.341 C 
ATOM     17  O   UNL     1      -3.556   1.599  -0.004  0.00  0.00    -0.245 OA
BRANCH  16  18
ATOM     18  C   UNL     1      -1.227   1.752  -0.009  0.00  0.00    +0.077 A 
ATOM     19  C   UNL     1      -0.009   1.068  -0.010  0.00  0.00    +0.018 A 
ATOM     20  C   UNL     1       1.175   1.775  -0.020  0.00  0.00    +0.033 A 
ATOM     21  C   UNL     1       1.159   3.159  -0.024  0.00  0.00    +0.128 A 
ATOM     22  C   UNL     1      -0.042   3.844  -0.018  0.00  0.00    +0.053 A 
ATOM     23  C   UNL     1      -1.236   3.149  -0.008  0.00  0.00    +0.057 A 
ATOM     24 CL   UNL     1      -2.744   4.010  -0.002  0.00  0.00    -0.083 Cl
BRANCH  21  25
ATOM     25  N   UNL     1       2.435   3.910  -0.035  0.00  0.00    +0.056 N 
ATOM     26  O   UNL     1       3.495   3.310  -0.040  0.00  0.00    -0.126 OA
ATOM     27  O   UNL     1       2.425   5.128  -0.038  0.00  0.00    -0.126 OA
ENDBRANCH  21  25
ENDBRANCH  16  18
ENDBRANCH  15  16
ENDBRANCH   1  15
TORSDOF 6
