REMARK  Name = ZINC04150042
REMARK  13 active torsions:
REMARK  status: ('A' for Active; 'I' for Inactive)
REMARK    1  A    between atoms: C_1  and  C_2
REMARK    2  A    between atoms: C_5  and  S_8
REMARK    3  A    between atoms: S_8  and  N_11
REMARK    4  A    between atoms: C_20  and  C_40
REMARK    5  A    between atoms: C_21  and  C_23
REMARK    6  A    between atoms: C_23  and  C_24
REMARK    7  A    between atoms: N_26  and  C_27
REMARK    8  A    between atoms: N_26  and  C_28
REMARK    9  A    between atoms: C_28  and  C_29
REMARK   10  A    between atoms: C_33  and  O_39
REMARK   11  A    between atoms: C_35  and  C_36
REMARK   12  A    between atoms: C_35  and  C_37
REMARK   13  A    between atoms: C_37  and  O_38
REMARK                            x       y       z     vdW  Elec       q    Type
REMARK                         _______ _______ _______ _____ _____    ______ ____
ROOT
ATOM      1  N   UNL     1       5.933   9.014   1.414  0.00  0.00    -0.194 N 
ATOM      2  C   UNL     1       5.104   7.949   1.095  0.00  0.00    +0.178 A 
ATOM      3  N   UNL     1       5.315   6.659   1.254  0.00  0.00    -0.228 NA
ATOM      4  C   UNL     1       4.416   5.744   0.894  0.00  0.00    +0.058 A 
ATOM      5  C   UNL     1       3.265   6.220   0.355  0.00  0.00    +0.015 A 
ATOM      6  S   UNL     1       3.519   7.974   0.382  0.00  0.00    -0.056 S 
ATOM      7  C   UNL     1       2.096   5.438  -0.129  0.00  0.00    +0.049 C 
ATOM      8  C   UNL     1       2.503   3.958  -0.267  0.00  0.00    +0.011 C 
ATOM      9  C   UNL     1       3.262   3.532   0.991  0.00  0.00    -0.019 C 
ATOM     10  C   UNL     1       4.620   4.245   1.058  0.00  0.00    +0.054 C 
ATOM     11  C   UNL     1       3.536   2.025   0.958  0.00  0.00    +0.010 C 
ATOM     12  C   UNL     1       2.226   1.249   0.842  0.00  0.00    +0.032 C 
ATOM     13  C   UNL     1       1.529   1.651  -0.461  0.00  0.00    +0.123 C 
ATOM     14  C   UNL     1       1.212   3.144  -0.408  0.00  0.00    +0.021 C 
ATOM     15  C   UNL     1       0.492   3.556  -1.694  0.00  0.00    +0.016 C 
ATOM     16  C   UNL     1       2.441   3.877   2.236  0.00  0.00    +0.012 C 
ATOM     17  H   UNL     1       6.802   8.849   1.812  0.00  0.00    +0.176 HD
ENDROOT
BRANCH   1  18
ATOM     18  S   UNL     1       5.439  10.566   1.116  0.00  0.00    +0.074 S 
ATOM     19  O   UNL     1       6.481  11.418   1.570  0.00  0.00    -0.150 OA
ATOM     20  O   UNL     1       4.964  10.591  -0.224  0.00  0.00    -0.150 OA
BRANCH  18  25
ATOM     21  C   UNL     1       0.671  11.632   4.656  0.00  0.00    +0.044 C 
ATOM     22  C   UNL     1       1.861  11.367   3.771  0.00  0.00    -0.050 A 
ATOM     23  C   UNL     1       3.137  11.642   4.228  0.00  0.00    +0.005 A 
ATOM     24  C   UNL     1       4.229  11.397   3.417  0.00  0.00    +0.029 A 
ATOM     25  C   UNL     1       4.046  10.877   2.149  0.00  0.00    +0.109 A 
ATOM     26  C   UNL     1       2.771  10.607   1.690  0.00  0.00    +0.029 A 
ATOM     27  C   UNL     1       1.679  10.848   2.503  0.00  0.00    +0.005 A 
ENDBRANCH  18  25
ENDBRANCH   1  18
BRANCH  13  28
ATOM     28  O   UNL     1       0.316   0.909  -0.604  0.00  0.00    -0.391 OA
ATOM     29  H   UNL     1       0.442  -0.049  -0.634  0.00  0.00    +0.210 HD
ENDBRANCH  13  28
BRANCH  10  30
ATOM     30  C   UNL     1       5.277   3.964   2.410  0.00  0.00    +0.106 C 
BRANCH  30  31
ATOM     31  C   UNL     1       6.688   4.494   2.402  0.00  0.00    +0.216 C 
ATOM     32  O   UNL     1       7.125   5.041   1.412  0.00  0.00    -0.276 OA
ATOM     33  N   UNL     1       7.465   4.358   3.495  0.00  0.00    -0.301 N 
ATOM     34  C   UNL     1       6.938   3.697   4.691  0.00  0.00    +0.132 C 
BRANCH  33  35
ATOM     35  C   UNL     1       8.837   4.873   3.487  0.00  0.00    +0.134 C 
BRANCH  35  36
ATOM     36  C   UNL     1       8.841   6.300   3.970  0.00  0.00    -0.016 C 
ATOM     37  C   UNL     1       9.604   6.649   4.976  0.00  0.00    +0.005 C 
ENDBRANCH  35  36
ENDBRANCH  33  35
ENDBRANCH  30  31
ENDBRANCH  10  30
BRANCH  14  38
ATOM     38  C   UNL     1       0.303   3.427   0.790  0.00  0.00    +0.165 C 
BRANCH  38  39
ATOM     39  O   UNL     1      -0.970   2.815   0.576  0.00  0.00    -0.394 OA
ATOM     40  H   UNL     1      -1.599   2.954   1.297  0.00  0.00    +0.209 HD
ENDBRANCH  38  39
ENDBRANCH  14  38
TORSDOF 9
