REMARK  Name = ZINC39898198
REMARK  12 active torsions:
REMARK  status: ('A' for Active; 'I' for Inactive)
REMARK    1  A    between atoms: C_1  and  C_2
REMARK    2  A    between atoms: C_2  and  O_3
REMARK    3  A    between atoms: O_3  and  C_4
REMARK    4  A    between atoms: C_7  and  C_13
REMARK    5  A    between atoms: C_9  and  O_10
REMARK    6  A    between atoms: O_10  and  C_11
REMARK    7  A    between atoms: C_11  and  C_12
REMARK    8  A    between atoms: C_16  and  C_28
REMARK    9  A    between atoms: N_23  and  C_24
REMARK   10  A    between atoms: C_24  and  C_25
REMARK   11  A    between atoms: C_25  and  O_26
REMARK   12  A    between atoms: O_26  and  C_27
REMARK                            x       y       z     vdW  Elec       q    Type
REMARK                         _______ _______ _______ _____ _____    ______ ____
ROOT
ATOM      1  C   UNL     1      -1.996  -6.097  -0.011  0.00  0.00    +0.141 C 
ATOM      2  C   UNL     1      -1.799  -6.633  -1.402  0.00  0.00    +0.035 A 
ATOM      3  C   UNL     1      -2.208  -6.642  -2.698  0.00  0.00    +0.075 A 
ATOM      4  N   UNL     1      -1.383  -7.505  -3.362  0.00  0.00    -0.276 N 
ATOM      5  N   UNL     1      -0.521  -8.002  -2.549  0.00  0.00    -0.168 NA
ATOM      6  H   UNL     1      -1.440  -7.712  -4.308  0.00  0.00    +0.189 HD
ATOM      7  C   UNL     1      -0.704  -7.524  -1.334  0.00  0.00    +0.153 A 
ATOM      8  C   UNL     1      -0.226  -7.547   0.060  0.00  0.00    +0.268 C 
ATOM      9  O   UNL     1       0.708  -8.214   0.463  0.00  0.00    -0.268 OA
ATOM     10  N   UNL     1      -0.968  -6.726   0.826  0.00  0.00    -0.283 N 
ENDROOT
BRANCH   3  11
ATOM     11  C   UNL     1      -3.328  -5.869  -3.276  0.00  0.00    +0.048 A 
ATOM     12  C   UNL     1      -4.448  -6.528  -3.781  0.00  0.00    +0.033 A 
ATOM     13  C   UNL     1      -5.491  -5.801  -4.320  0.00  0.00    +0.042 A 
ATOM     14  C   UNL     1      -5.428  -4.418  -4.360  0.00  0.00    +0.024 A 
ATOM     15  C   UNL     1      -4.323  -3.754  -3.862  0.00  0.00    +0.053 A 
ATOM     16  C   UNL     1      -3.271  -4.471  -3.314  0.00  0.00    +0.188 A 
ATOM     17  O   UNL     1      -2.187  -3.819  -2.819  0.00  0.00    -0.287 OA
ATOM     18 CL   UNL     1      -6.885  -6.622  -4.948  0.00  0.00    -0.084 Cl
ENDBRANCH   3  11
BRANCH   1  22
ATOM     19  C   UNL     1      -1.498  -1.849   0.006  0.00  0.00    +0.162 A 
ATOM     20  C   UNL     1      -0.389  -2.680  -0.003  0.00  0.00    +0.050 A 
ATOM     21  C   UNL     1      -0.553  -4.052  -0.008  0.00  0.00    +0.009 A 
ATOM     22  C   UNL     1      -1.823  -4.600  -0.005  0.00  0.00    -0.019 A 
ATOM     23  C   UNL     1      -2.934  -3.777   0.004  0.00  0.00    +0.055 A 
ATOM     24  C   UNL     1      -2.776  -2.400   0.016  0.00  0.00    +0.162 A 
BRANCH  19  25
ATOM     25  O   UNL     1      -1.339  -0.499   0.012  0.00  0.00    -0.489 OA
BRANCH  25  27
ATOM     26  C   UNL     1      -0.019   1.526   0.010  0.00  0.00    +0.048 C 
ATOM     27  C   UNL     1       0.002  -0.004   0.002  0.00  0.00    +0.226 C 
ENDBRANCH  25  27
ENDBRANCH  19  25
BRANCH  24  28
ATOM     28  O   UNL     1      -3.868  -1.589   0.030  0.00  0.00    -0.489 OA
BRANCH  28  29
ATOM     29  C   UNL     1      -5.148  -2.225   0.039  0.00  0.00    +0.226 C 
ATOM     30  C   UNL     1      -6.246  -1.159   0.055  0.00  0.00    +0.048 C 
ENDBRANCH  28  29
ENDBRANCH  24  28
ENDBRANCH   1  22
BRANCH  10  31
ATOM     31  C   UNL     1      -0.781  -6.497   2.260  0.00  0.00    +0.137 C 
BRANCH  31  32
ATOM     32  C   UNL     1      -1.619  -7.504   3.051  0.00  0.00    +0.178 C 
BRANCH  32  33
ATOM     33  O   UNL     1      -1.127  -8.825   2.812  0.00  0.00    -0.381 OA
ATOM     34  C   UNL     1      -1.844  -9.846   3.508  0.00  0.00    +0.194 C 
ENDBRANCH  32  33
ENDBRANCH  31  32
ENDBRANCH  10  31
TORSDOF 9
