REMARK  Name = ZINC58884401
REMARK  4 active torsions:
REMARK  status: ('A' for Active; 'I' for Inactive)
REMARK    1  A    between atoms: C_4  and  N_7
REMARK    2  A    between atoms: N_10  and  C_11
REMARK    3  A    between atoms: C_15  and  N_17
REMARK    4  A    between atoms: C_24  and  C_27
REMARK                            x       y       z     vdW  Elec       q    Type
REMARK                         _______ _______ _______ _____ _____    ______ ____
ROOT
ATOM      1  C   UNL     1       4.856  -4.170  -0.396  0.00  0.00    +0.037 A 
ATOM      2  C   UNL     1       3.765  -4.767   0.224  0.00  0.00    +0.023 A 
ATOM      3  C   UNL     1       3.889  -6.024   0.784  0.00  0.00    +0.004 A 
ATOM      4  C   UNL     1       5.098  -6.691   0.730  0.00  0.00    +0.023 A 
ATOM      5  C   UNL     1       6.192  -6.100   0.111  0.00  0.00    +0.037 A 
ATOM      6  C   UNL     1       6.069  -4.840  -0.457  0.00  0.00    +0.046 A 
ENDROOT
BRANCH   5   7
ATOM      7  N   UNL     1       7.416  -6.777   0.057  0.00  0.00    -0.269 N 
ATOM      8  C   UNL     1       7.440  -8.120  -0.047  0.00  0.00    +0.307 C 
ATOM      9  O   UNL     1       6.405  -8.735  -0.222  0.00  0.00    -0.252 OA
ATOM     10  N   UNL     1       8.610  -8.783   0.043  0.00  0.00    -0.280 N 
ATOM     11  C   UNL     1       9.857  -8.077   0.377  0.00  0.00    +0.137 C 
ATOM     12  C   UNL     1      10.544  -8.826   1.525  0.00  0.00    +0.179 C 
ATOM     13  O   UNL     1      10.670 -10.207   1.176  0.00  0.00    -0.369 OA
ATOM     14  C   UNL     1       9.423 -10.879   0.984  0.00  0.00    +0.166 C 
ATOM     15  C   UNL     1       8.677 -10.235  -0.186  0.00  0.00    +0.145 C 
ATOM     16  H   UNL     1       8.248  -6.279   0.095  0.00  0.00    +0.156 HD
BRANCH  14  17
ATOM     17  C   UNL     1       9.676 -12.334   0.684  0.00  0.00    -0.017 A 
ATOM     18  C   UNL     1      10.787 -12.704  -0.050  0.00  0.00    +0.009 A 
ATOM     19  C   UNL     1      11.021 -14.039  -0.325  0.00  0.00    +0.039 A 
ATOM     20  C   UNL     1      10.140 -15.004   0.134  0.00  0.00    +0.123 A 
ATOM     21  C   UNL     1       9.027 -14.631   0.868  0.00  0.00    +0.039 A 
ATOM     22  C   UNL     1       8.799 -13.297   1.147  0.00  0.00    +0.009 A 
ATOM     23  F   UNL     1      10.367 -16.308  -0.135  0.00  0.00    -0.205 F 
ENDBRANCH  14  17
ENDBRANCH   5   7
BRANCH   1  27
ATOM     24  N   UNL     1       3.703  -0.801  -1.004  0.00  0.00    -0.269 N 
ATOM     25  C   UNL     1       3.918  -1.984  -0.395  0.00  0.00    +0.308 C 
ATOM     26  O   UNL     1       3.380  -2.227   0.668  0.00  0.00    -0.252 OA
ATOM     27  N   UNL     1       4.730  -2.897  -0.963  0.00  0.00    -0.269 N 
ATOM     28  H   UNL     1       4.061  -0.641  -1.891  0.00  0.00    +0.156 HD
ATOM     29  H   UNL     1       5.226  -2.672  -1.765  0.00  0.00    +0.156 HD
BRANCH  24  33
ATOM     30  C   UNL     1       1.498   2.164   0.920  0.00  0.00    +0.000 A 
ATOM     31  C   UNL     1       2.306   1.317   1.657  0.00  0.00    +0.002 A 
ATOM     32  C   UNL     1       3.038   0.333   1.022  0.00  0.00    +0.023 A 
ATOM     33  C   UNL     1       2.962   0.194  -0.358  0.00  0.00    +0.035 A 
ATOM     34  C   UNL     1       2.150   1.046  -1.095  0.00  0.00    +0.023 A 
ATOM     35  C   UNL     1       1.421   2.029  -0.454  0.00  0.00    +0.002 A 
ENDBRANCH  24  33
ENDBRANCH   1  27
TORSDOF 4
