REMARK  Name = ZINC38975172
REMARK  4 active torsions:
REMARK  status: ('A' for Active; 'I' for Inactive)
REMARK    1  A    between atoms: C_4  and  N_7
REMARK    2  A    between atoms: N_7  and  C_8
REMARK    3  A    between atoms: N_11  and  S_12
REMARK    4  A    between atoms: S_12  and  C_15
REMARK                            x       y       z     vdW  Elec       q    Type
REMARK                         _______ _______ _______ _____ _____    ______ ____
ROOT
ATOM      1  C   UNL     1       3.645  -2.110   0.066  0.00  0.00    +0.237 C 
ATOM      2  C   UNL     1       4.558  -2.477   1.214  0.00  0.00    +0.192 C 
ATOM      3  N   UNL     1       4.322  -2.030   2.413  0.00  0.00    -0.110 NA
ATOM      4  N   UNL     1       5.615  -3.270   0.979  0.00  0.00    -0.226 NA
ATOM      5  C   UNL     1       5.874  -3.735  -0.225  0.00  0.00    +0.089 A 
ATOM      6  C   UNL     1       7.000  -4.571  -0.438  0.00  0.00    +0.030 A 
ATOM      7  C   UNL     1       7.271  -5.051  -1.671  0.00  0.00    +0.002 A 
ATOM      8  C   UNL     1       6.475  -4.759  -2.792  0.00  0.00    +0.002 A 
ATOM      9  C   UNL     1       5.380  -3.973  -2.700  0.00  0.00    +0.027 A 
ATOM     10  C   UNL     1       5.016  -3.411  -1.391  0.00  0.00    +0.063 A 
ATOM     11  N   UNL     1       3.967  -2.648  -1.265  0.00  0.00    -0.359 N 
ATOM     12  H   UNL     1       3.410  -2.441  -2.031  0.00  0.00    +0.162 HD
ENDROOT
BRANCH   3  13
ATOM     13  S   UNL     1       5.330  -2.439   3.662  0.00  0.00    +0.100 S 
ATOM     14  O   UNL     1       5.186  -3.839   3.858  0.00  0.00    -0.146 OA
ATOM     15  O   UNL     1       6.586  -1.833   3.385  0.00  0.00    -0.146 OA
BRANCH  13  16
ATOM     16  C   UNL     1       4.704  -1.660   5.113  0.00  0.00    +0.113 A 
ATOM     17  C   UNL     1       5.127  -0.388   5.451  0.00  0.00    +0.032 A 
ATOM     18  C   UNL     1       4.636   0.224   6.589  0.00  0.00    +0.040 A 
ATOM     19  C   UNL     1       3.721  -0.437   7.390  0.00  0.00    +0.124 A 
ATOM     20  C   UNL     1       3.298  -1.711   7.050  0.00  0.00    +0.040 A 
ATOM     21  C   UNL     1       3.786  -2.319   5.909  0.00  0.00    +0.032 A 
ATOM     22  F   UNL     1       3.240   0.160   8.503  0.00  0.00    -0.205 F 
ENDBRANCH  13  16
ENDBRANCH   3  13
BRANCH   1  23
ATOM     23  N   UNL     1       3.620  -0.649  -0.036  0.00  0.00    -0.318 N 
ATOM     24  H   UNL     1       4.451  -0.151  -0.079  0.00  0.00    +0.148 HD
BRANCH  23  28
ATOM     25  C   UNL     1      -0.021   1.368  -0.143  0.00  0.00    +0.000 A 
ATOM     26  C   UNL     1       0.005  -0.013  -0.216  0.00  0.00    +0.002 A 
ATOM     27  C   UNL     1       1.211  -0.685  -0.181  0.00  0.00    +0.023 A 
ATOM     28  C   UNL     1       2.398   0.027  -0.072  0.00  0.00    +0.029 A 
ATOM     29  C   UNL     1       2.368   1.414  -0.000  0.00  0.00    +0.023 A 
ATOM     30  C   UNL     1       1.159   2.080  -0.036  0.00  0.00    +0.002 A 
ENDBRANCH  23  28
ENDBRANCH   1  23
TORSDOF 4
