REMARK  Name = ZINC03352876
REMARK  8 active torsions:
REMARK  status: ('A' for Active; 'I' for Inactive)
REMARK    1  A    between atoms: C_1  and  C_2
REMARK    2  A    between atoms: C_2  and  C_4
REMARK    3  A    between atoms: C_2  and  N_14
REMARK    4  A    between atoms: C_15  and  C_17
REMARK    5  A    between atoms: C_20  and  O_23
REMARK    6  A    between atoms: O_23  and  S_24
REMARK    7  A    between atoms: S_24  and  C_27
REMARK    8  A    between atoms: C_31  and  N_33
REMARK                            x       y       z     vdW  Elec       q    Type
REMARK                         _______ _______ _______ _____ _____    ______ ____
ROOT
ATOM      1  C   UNL     1      -8.029   3.996   3.729  0.00  0.00    +0.037 A 
ATOM      2  C   UNL     1      -9.136   3.316   3.216  0.00  0.00    +0.017 A 
ATOM      3  C   UNL     1      -8.977   2.067   2.658  0.00  0.00    +0.049 A 
ATOM      4  C   UNL     1      -7.717   1.483   2.606  0.00  0.00    +0.157 A 
ATOM      5  C   UNL     1      -6.614   2.154   3.121  0.00  0.00    +0.049 A 
ATOM      6  C   UNL     1      -6.764   3.405   3.675  0.00  0.00    +0.017 A 
ENDROOT
BRANCH   1   8
ATOM      7  N   UNL     1      -7.126   5.990   4.822  0.00  0.00    -0.308 N 
ATOM      8  C   UNL     1      -8.195   5.335   4.327  0.00  0.00    +0.244 C 
ATOM      9  O   UNL     1      -9.297   5.848   4.373  0.00  0.00    -0.270 OA
ATOM     10  H   UNL     1      -6.247   5.581   4.785  0.00  0.00    +0.149 HD
BRANCH   7  12
ATOM     11  C   UNL     1      -7.245   8.379   4.313  0.00  0.00    +0.028 C 
ATOM     12  C   UNL     1      -7.291   7.319   5.415  0.00  0.00    +0.074 C 
BRANCH  12  13
ATOM     13  C   UNL     1      -6.162   7.575   6.416  0.00  0.00    +0.012 C 
ATOM     14  C   UNL     1      -6.368   8.933   7.125  0.00  0.00    +0.009 C 
ATOM     15  C   UNL     1      -6.514   8.571   8.635  0.00  0.00    -0.010 C 
ATOM     16  C   UNL     1      -5.088   8.113   9.066  0.00  0.00    +0.004 C 
ATOM     17  C   UNL     1      -4.882   6.755   8.357  0.00  0.00    +0.004 C 
ATOM     18  C   UNL     1      -6.202   6.519   7.562  0.00  0.00    -0.006 C 
ATOM     19  C   UNL     1      -7.245   7.186   8.531  0.00  0.00    +0.007 C 
ENDBRANCH  12  13
ENDBRANCH   7  12
ENDBRANCH   1   8
BRANCH   4  20
ATOM     20  O   UNL     1      -7.564   0.252   2.056  0.00  0.00    -0.342 OA
BRANCH  20  21
ATOM     21  S   UNL     1      -7.276   0.273   0.562  0.00  0.00    +0.151 S 
ATOM     22  O   UNL     1      -8.078   1.306   0.008  0.00  0.00    -0.131 OA
ATOM     23  O   UNL     1      -7.352  -1.074   0.114  0.00  0.00    -0.131 OA
BRANCH  21  24
ATOM     24  C   UNL     1      -5.599   0.776   0.361  0.00  0.00    +0.130 A 
ATOM     25  C   UNL     1      -5.290   2.117   0.231  0.00  0.00    +0.031 A 
ATOM     26  C   UNL     1      -3.975   2.512   0.074  0.00  0.00    +0.004 A 
ATOM     27  C   UNL     1      -2.967   1.565   0.051  0.00  0.00    +0.033 A 
ATOM     28  C   UNL     1      -3.276   0.224   0.176  0.00  0.00    +0.128 A 
ATOM     29  C   UNL     1      -4.592  -0.171   0.334  0.00  0.00    +0.063 A 
BRANCH  28  30
ATOM     30  N   UNL     1      -2.198  -0.790   0.147  0.00  0.00    +0.056 N 
ATOM     31  O   UNL     1      -2.470  -1.972   0.262  0.00  0.00    -0.126 OA
ATOM     32  O   UNL     1      -1.040  -0.443   0.002  0.00  0.00    -0.126 OA
ENDBRANCH  28  30
ENDBRANCH  21  24
ENDBRANCH  20  21
ENDBRANCH   4  20
TORSDOF 7
