REMARK  Name = ZINC13009710
REMARK  11 active torsions:
REMARK  status: ('A' for Active; 'I' for Inactive)
REMARK    1  A    between atoms: C_1  and  C_2
REMARK    2  A    between atoms: C_2  and  N_3
REMARK    3  A    between atoms: C_4  and  N_36
REMARK    4  A    between atoms: C_5  and  C_30
REMARK    5  A    between atoms: N_8  and  C_11
REMARK    6  A    between atoms: C_11  and  C_12
REMARK    7  A    between atoms: N_14  and  C_15
REMARK    8  A    between atoms: C_15  and  C_17
REMARK    9  A    between atoms: C_15  and  C_24
REMARK   10  A    between atoms: C_17  and  C_18
REMARK   11  A    between atoms: C_33  and  C_35
REMARK                            x       y       z     vdW  Elec       q    Type
REMARK                         _______ _______ _______ _____ _____    ______ ____
ROOT
ATOM      1  N   UNL     1       0.063   0.948   2.362  0.00  0.00    -0.282 N 
ATOM      2  C   UNL     1       0.930   1.837   2.947  0.00  0.00    +0.115 A 
ATOM      3  C   UNL     1       1.510   1.513   4.166  0.00  0.00    +0.103 A 
ATOM      4  C   UNL     1       1.185   0.274   4.764  0.00  0.00    +0.268 A 
ATOM      5  O   UNL     1       1.677  -0.041   5.833  0.00  0.00    -0.267 OA
ATOM      6  N   UNL     1       0.327  -0.558   4.140  0.00  0.00    -0.251 N 
ATOM      7  C   UNL     1      -0.226  -0.220   2.962  0.00  0.00    +0.334 A 
ATOM      8  O   UNL     1      -1.001  -0.989   2.427  0.00  0.00    -0.246 OA
ENDROOT
BRANCH   3   9
ATOM      9  C   UNL     1       2.452   2.449   4.829  0.00  0.00    +0.087 A 
ATOM     10  C   UNL     1       3.109   2.094   5.975  0.00  0.00    +0.075 A 
ATOM     11  S   UNL     1       4.063   3.574   6.279  0.00  0.00    -0.080 S 
ATOM     12  C   UNL     1       3.510   4.488   4.911  0.00  0.00    +0.076 A 
ATOM     13  N   UNL     1       2.679   3.654   4.332  0.00  0.00    -0.244 NA
ATOM     14  C   UNL     1       3.889   5.885   4.493  0.00  0.00    +0.073 C 
ENDBRANCH   3   9
BRANCH   2  15
ATOM     15  N   UNL     1       1.219   3.030   2.336  0.00  0.00    -0.344 N 
ATOM     16  H   UNL     1       1.489   3.794   2.869  0.00  0.00    +0.144 HD
ATOM     17  H   UNL     1       1.153   3.109   1.372  0.00  0.00    +0.144 HD
ENDBRANCH   2  15
BRANCH   1  19
ATOM     18  C   UNL     1       0.330   0.771  -0.063  0.00  0.00    +0.027 C 
ATOM     19  C   UNL     1      -0.557   1.277   1.076  0.00  0.00    +0.125 C 
ENDBRANCH   1  19
BRANCH   6  20
ATOM     20  C   UNL     1      -0.012  -1.843   4.757  0.00  0.00    +0.225 C 
BRANCH  20  21
ATOM     21  C   UNL     1      -1.215  -1.671   5.648  0.00  0.00    +0.234 C 
ATOM     22  O   UNL     1      -1.738  -0.582   5.757  0.00  0.00    -0.274 OA
ATOM     23  N   UNL     1      -1.710  -2.727   6.323  0.00  0.00    -0.307 N 
ATOM     24  H   UNL     1      -1.292  -3.598   6.235  0.00  0.00    +0.149 HD
BRANCH  23  25
ATOM     25  C   UNL     1      -2.880  -2.560   7.189  0.00  0.00    +0.107 C 
BRANCH  25  26
ATOM     26  C   UNL     1      -2.434  -2.083   8.548  0.00  0.00    -0.027 A 
ATOM     27  C   UNL     1      -1.293  -2.607   9.124  0.00  0.00    +0.005 A 
ATOM     28  C   UNL     1      -0.882  -2.167  10.368  0.00  0.00    +0.000 A 
ATOM     29  C   UNL     1      -1.618  -1.210  11.041  0.00  0.00    +0.000 A 
ATOM     30  C   UNL     1      -2.763  -0.689  10.466  0.00  0.00    +0.000 A 
ATOM     31  C   UNL     1      -3.171  -1.126   9.220  0.00  0.00    +0.005 A 
ENDBRANCH  25  26
BRANCH  25  32
ATOM     32  C   UNL     1      -3.605  -3.899   7.331  0.00  0.00    +0.062 C 
BRANCH  32  33
ATOM     33  C   UNL     1      -4.157  -4.316   5.992  0.00  0.00    -0.045 A 
ATOM     34  C   UNL     1      -5.432  -3.934   5.621  0.00  0.00    +0.004 A 
ATOM     35  C   UNL     1      -5.937  -4.312   4.390  0.00  0.00    +0.000 A 
ATOM     36  C   UNL     1      -5.170  -5.081   3.535  0.00  0.00    +0.000 A 
ATOM     37  C   UNL     1      -3.896  -5.467   3.909  0.00  0.00    +0.000 A 
ATOM     38  C   UNL     1      -3.390  -5.085   5.137  0.00  0.00    +0.004 A 
ENDBRANCH  32  33
ENDBRANCH  25  32
ENDBRANCH  23  25
ENDBRANCH  20  21
ENDBRANCH   6  20
TORSDOF 9
