REMARK  Name = ZINC12585700
REMARK  13 active torsions:
REMARK  status: ('A' for Active; 'I' for Inactive)
REMARK    1  A    between atoms: C_1  and  C_2
REMARK    2  A    between atoms: C_4  and  C_17
REMARK    3  A    between atoms: C_5  and  C_16
REMARK    4  A    between atoms: N_6  and  C_7
REMARK    5  A    between atoms: C_10  and  C_13
REMARK    6  A    between atoms: C_13  and  C_14
REMARK    7  A    between atoms: C_13  and  C_15
REMARK    8  A    between atoms: C_17  and  C_19
REMARK    9  A    between atoms: C_19  and  O_20
REMARK   10  A    between atoms: O_20  and  C_21
REMARK   11  A    between atoms: C_24  and  S_30
REMARK   12  A    between atoms: C_26  and  N_27
REMARK   13  A    between atoms: S_30  and  N_33
REMARK                            x       y       z     vdW  Elec       q    Type
REMARK                         _______ _______ _______ _____ _____    ______ ____
ROOT
ATOM      1  C   UNL     1      -2.853   4.615   7.884  0.00  0.00    +0.202 C 
ATOM      2  O   UNL     1      -1.762   5.064   8.167  0.00  0.00    -0.288 OA
ENDROOT
BRANCH   1   6
ATOM      3  C   UNL     1      -4.965   1.978   4.070  0.00  0.00    +0.064 C 
ATOM      4  C   UNL     1      -3.991   2.715   4.953  0.00  0.00    +0.022 A 
ATOM      5  C   UNL     1      -4.286   3.276   6.138  0.00  0.00    +0.034 A 
ATOM      6  C   UNL     1      -3.041   3.881   6.631  0.00  0.00    +0.042 A 
ATOM      7  C   UNL     1      -2.083   3.615   5.670  0.00  0.00    +0.032 A 
ATOM      8  N   UNL     1      -2.667   2.916   4.678  0.00  0.00    -0.317 N 
ATOM      9  C   UNL     1      -0.637   4.035   5.724  0.00  0.00    +0.064 C 
BRANCH   8  10
ATOM     10  C   UNL     1      -2.012   2.464   3.525  0.00  0.00    +0.047 A 
ATOM     11  C   UNL     1      -1.869   1.102   3.295  0.00  0.00    +0.026 A 
ATOM     12  C   UNL     1      -1.222   0.660   2.157  0.00  0.00    +0.006 A 
ATOM     13  C   UNL     1      -0.718   1.572   1.248  0.00  0.00    -0.045 A 
ATOM     14  C   UNL     1      -0.855   2.929   1.477  0.00  0.00    +0.006 A 
ATOM     15  C   UNL     1      -1.505   3.377   2.610  0.00  0.00    +0.026 A 
BRANCH  13  16
ATOM     16  C   UNL     1      -0.013   1.086   0.008  0.00  0.00    +0.013 C 
ATOM     17  C   UNL     1       1.423   1.615  -0.003  0.00  0.00    +0.012 C 
ATOM     18  C   UNL     1      -0.753   1.593  -1.232  0.00  0.00    +0.012 C 
ENDBRANCH  13  16
ENDBRANCH   8  10
ENDBRANCH   1   6
BRANCH   1  19
ATOM     19  C   UNL     1      -4.016   4.813   8.823  0.00  0.00    +0.308 C 
BRANCH  19  20
ATOM     20  O   UNL     1      -3.584   5.554   9.966  0.00  0.00    -0.482 OA
BRANCH  20  21
ATOM     21  C   UNL     1      -4.517   5.820  10.917  0.00  0.00    +0.151 A 
ATOM     22  C   UNL     1      -5.822   5.379  10.753  0.00  0.00    +0.050 A 
ATOM     23  C   UNL     1      -6.769   5.651  11.722  0.00  0.00    +0.032 A 
ATOM     24  C   UNL     1      -6.417   6.362  12.854  0.00  0.00    +0.107 A 
ATOM     25  C   UNL     1      -5.117   6.803  13.020  0.00  0.00    +0.065 A 
ATOM     26  C   UNL     1      -4.165   6.530  12.056  0.00  0.00    +0.169 A 
BRANCH  26  27
ATOM     27  N   UNL     1      -2.773   6.997  12.237  0.00  0.00    +0.060 N 
ATOM     28  O   UNL     1      -2.465   7.620  13.237  0.00  0.00    -0.126 OA
ATOM     29  O   UNL     1      -1.935   6.760  11.386  0.00  0.00    -0.126 OA
ENDBRANCH  26  27
BRANCH  24  30
ATOM     30  S   UNL     1      -7.627   6.707  14.087  0.00  0.00    +0.056 S 
ATOM     31  O   UNL     1      -7.174   7.857  14.790  0.00  0.00    -0.153 OA
ATOM     32  O   UNL     1      -8.891   6.659  13.440  0.00  0.00    -0.153 OA
BRANCH  30  33
ATOM     33  N   UNL     1      -7.599   5.452  15.166  0.00  0.00    -0.204 NA
ATOM     34  H   UNL     1      -6.982   4.714  15.036  0.00  0.00    +0.144 HD
ATOM     35  H   UNL     1      -8.199   5.453  15.928  0.00  0.00    +0.144 HD
ENDBRANCH  30  33
ENDBRANCH  24  30
ENDBRANCH  20  21
ENDBRANCH  19  20
ENDBRANCH   1  19
TORSDOF 9
