REMARK  Name = ZINC08965017
REMARK  7 active torsions:
REMARK  status: ('A' for Active; 'I' for Inactive)
REMARK    1  A    between atoms: C_1  and  O_2
REMARK    2  A    between atoms: O_2  and  C_3
REMARK    3  A    between atoms: C_3  and  C_5
REMARK    4  A    between atoms: C_11  and  C_12
REMARK    5  A    between atoms: C_20  and  N_33
REMARK    6  A    between atoms: C_21  and  C_31
REMARK    7  A    between atoms: C_22  and  C_24
REMARK                            x       y       z     vdW  Elec       q    Type
REMARK                         _______ _______ _______ _____ _____    ______ ____
ROOT
ATOM      1  C   UNL     1       0.742   2.123  -0.436  0.00  0.00    +0.080 C 
ATOM      2  C   UNL     1      -0.344   1.320  -0.206  0.00  0.00    +0.100 A 
ATOM      3  N   UNL     1      -0.321  -0.057  -0.284  0.00  0.00    -0.257 N 
ATOM      4  C   UNL     1      -1.468  -0.718  -0.030  0.00  0.00    +0.271 A 
ATOM      5  O   UNL     1      -1.512  -1.933  -0.083  0.00  0.00    -0.266 OA
ATOM      6  C   UNL     1      -2.663   0.063   0.312  0.00  0.00    +0.080 A 
ATOM      7  C   UNL     1      -3.917  -0.364   0.605  0.00  0.00    +0.030 C 
ATOM      8  S   UNL     1      -2.019   1.727   0.245  0.00  0.00    -0.065 S 
ATOM      9  C   UNL     1       0.877  -0.700  -0.620  0.00  0.00    +0.118 C 
ATOM     10  C   UNL     1       2.033  -0.051  -0.876  0.00  0.00    +0.079 C 
ATOM     11  C   UNL     1       2.057   1.462  -0.802  0.00  0.00    +0.104 C 
ENDROOT
BRANCH   7  12
ATOM     12  C   UNL     1      -4.185  -1.800   0.767  0.00  0.00    -0.005 A 
ATOM     13  C   UNL     1      -3.278  -2.612   1.458  0.00  0.00    +0.009 A 
ATOM     14  C   UNL     1      -3.538  -3.957   1.608  0.00  0.00    +0.001 A 
ATOM     15  C   UNL     1      -4.689  -4.508   1.071  0.00  0.00    +0.001 A 
ATOM     16  C   UNL     1      -5.590  -3.715   0.383  0.00  0.00    +0.020 A 
ATOM     17  C   UNL     1      -5.347  -2.365   0.226  0.00  0.00    +0.048 A 
ATOM     18 CL   UNL     1      -6.477  -1.371  -0.639  0.00  0.00    -0.083 Cl
ENDBRANCH   7  12
BRANCH  11  19
ATOM     19  C   UNL     1       3.088   1.868   0.219  0.00  0.00    -0.016 A 
ATOM     20  C   UNL     1       2.960   1.458   1.532  0.00  0.00    +0.006 A 
ATOM     21  C   UNL     1       3.909   1.827   2.468  0.00  0.00    +0.000 A 
ATOM     22  C   UNL     1       4.981   2.614   2.092  0.00  0.00    +0.001 A 
ATOM     23  C   UNL     1       5.108   3.029   0.780  0.00  0.00    +0.020 A 
ATOM     24  C   UNL     1       4.161   2.656  -0.158  0.00  0.00    +0.045 A 
ATOM     25 CL   UNL     1       4.319   3.178  -1.806  0.00  0.00    -0.083 Cl
ENDBRANCH  11  19
BRANCH   9  26
ATOM     26  N   UNL     1       0.876  -2.072  -0.693  0.00  0.00    -0.343 N 
ATOM     27  H   UNL     1       1.494  -2.527  -1.286  0.00  0.00    +0.144 HD
ATOM     28  H   UNL     1       0.257  -2.586  -0.151  0.00  0.00    +0.144 HD
ENDBRANCH   9  26
BRANCH   1  29
ATOM     29  C   UNL     1       0.640   3.517  -0.337  0.00  0.00    +0.338 C 
ATOM     30  O   UNL     1      -0.425   4.031  -0.043  0.00  0.00    -0.245 OA
BRANCH  29  32
ATOM     31  C   UNL     1       1.547   5.705  -0.450  0.00  0.00    +0.280 C 
ATOM     32  O   UNL     1       1.723   4.291  -0.569  0.00  0.00    -0.465 OA
ENDBRANCH  29  32
ENDBRANCH   1  29
BRANCH  10  33
ATOM     33  C   UNL     1       3.218  -0.782  -1.212  0.00  0.00    +0.099 C 
ATOM     34  N   UNL     1       4.158  -1.361  -1.479  0.00  0.00    -0.191 NA
ENDBRANCH  10  33
TORSDOF 6
