REMARK  Name = ZINC43943493
REMARK  7 active torsions:
REMARK  status: ('A' for Active; 'I' for Inactive)
REMARK    1  A    between atoms: C_1  and  C_2
REMARK    2  A    between atoms: C_2  and  C_4
REMARK    3  A    between atoms: C_2  and  N_10
REMARK    4  A    between atoms: C_11  and  C_13
REMARK    5  A    between atoms: N_15  and  C_16
REMARK    6  A    between atoms: C_16  and  C_17
REMARK    7  A    between atoms: N_25  and  C_26
REMARK                            x       y       z     vdW  Elec       q    Type
REMARK                         _______ _______ _______ _____ _____    ______ ____
ROOT
ATOM      1  C   UNL     1       0.693  -1.088  -3.584  0.00  0.00    +0.299 C 
ATOM      2  O   UNL     1       1.874  -1.363  -3.538  0.00  0.00    -0.265 OA
ATOM      3  N   UNL     1       0.014  -1.219  -4.741  0.00  0.00    -0.307 N 
ATOM      4  H   UNL     1      -0.930  -0.999  -4.777  0.00  0.00    +0.149 HD
ENDROOT
BRANCH   1   6
ATOM      5  N   UNL     1       0.669  -0.471  -1.200  0.00  0.00    -0.301 N 
ATOM      6  C   UNL     1      -0.009  -0.603  -2.357  0.00  0.00    +0.299 C 
ATOM      7  O   UNL     1      -1.190  -0.328  -2.402  0.00  0.00    -0.265 OA
ATOM      8  H   UNL     1       1.613  -0.691  -1.163  0.00  0.00    +0.150 HD
BRANCH   5  10
ATOM      9  C   UNL     1      -0.037   1.534   0.009  0.00  0.00    +0.033 C 
ATOM     10  C   UNL     1      -0.019   0.004   0.003  0.00  0.00    +0.101 C 
BRANCH  10  11
ATOM     11  C   UNL     1       0.705  -0.495   1.226  0.00  0.00    -0.027 A 
ATOM     12  C   UNL     1       2.087  -0.508   1.254  0.00  0.00    +0.005 A 
ATOM     13  C   UNL     1       2.752  -0.966   2.377  0.00  0.00    +0.000 A 
ATOM     14  C   UNL     1       2.034  -1.410   3.471  0.00  0.00    +0.000 A 
ATOM     15  C   UNL     1       0.652  -1.396   3.444  0.00  0.00    +0.000 A 
ATOM     16  C   UNL     1      -0.013  -0.934   2.323  0.00  0.00    +0.005 A 
ENDBRANCH  10  11
ENDBRANCH   5  10
ENDBRANCH   1   6
BRANCH   3  17
ATOM     17  C   UNL     1       0.703  -1.695  -5.944  0.00  0.00    +0.108 C 
BRANCH  17  18
ATOM     18  C   UNL     1      -0.288  -1.753  -7.109  0.00  0.00    +0.009 C 
ATOM     19  C   UNL     1      -1.361  -2.802  -6.813  0.00  0.00    +0.024 C 
ATOM     20  C   UNL     1      -2.370  -2.833  -7.966  0.00  0.00    +0.109 C 
ATOM     21  N   UNL     1      -1.644  -3.050  -9.224  0.00  0.00    -0.285 N 
ATOM     22  C   UNL     1      -0.532  -2.152  -9.562  0.00  0.00    +0.109 C 
ATOM     23  C   UNL     1       0.457  -2.129  -8.392  0.00  0.00    +0.024 C 
ATOM     24  C   UNL     1      -1.991  -4.055 -10.053  0.00  0.00    +0.307 C 
ATOM     25  O   UNL     1      -2.849  -4.850  -9.719  0.00  0.00    -0.252 OA
ATOM     26  N   UNL     1      -1.387  -4.180 -11.251  0.00  0.00    -0.264 N 
ATOM     27  H   UNL     1      -0.653  -3.591 -11.488  0.00  0.00    +0.157 HD
BRANCH  26  28
ATOM     28  C   UNL     1      -1.819  -5.156 -12.153  0.00  0.00    +0.073 A 
ATOM     29  C   UNL     1      -1.345  -5.445 -13.397  0.00  0.00    +0.031 A 
ATOM     30  C   UNL     1      -1.937  -6.468 -14.115  0.00  0.00    +0.009 A 
ATOM     31  C   UNL     1      -2.968  -7.150 -13.561  0.00  0.00    +0.047 A 
ATOM     32  S   UNL     1      -3.131  -6.354 -11.972  0.00  0.00    -0.082 S 
ENDBRANCH  26  28
ENDBRANCH  17  18
ENDBRANCH   3  17
TORSDOF 6
