REMARK  Name = ZINC06214544
REMARK  9 active torsions:
REMARK  status: ('A' for Active; 'I' for Inactive)
REMARK    1  A    between atoms: C_1  and  C_2
REMARK    2  A    between atoms: C_5  and  S_8
REMARK    3  A    between atoms: S_8  and  N_11
REMARK    4  A    between atoms: N_11  and  N_12
REMARK    5  A    between atoms: C_13  and  C_15
REMARK    6  A    between atoms: C_15  and  C_16
REMARK    7  A    between atoms: C_16  and  C_17
REMARK    8  A    between atoms: N_19  and  C_20
REMARK    9  A    between atoms: C_25  and  C_26
REMARK                            x       y       z     vdW  Elec       q    Type
REMARK                         _______ _______ _______ _____ _____    ______ ____
ROOT
ATOM      1  N   UNL     1      -1.231   3.230  -1.519  0.00  0.00    -0.232 N 
ATOM      2  C   UNL     1      -0.894   3.839  -2.673  0.00  0.00    +0.228 C 
ATOM      3  O   UNL     1      -0.334   3.213  -3.548  0.00  0.00    -0.274 OA
ATOM      4  H   UNL     1      -1.679   3.730  -0.819  0.00  0.00    +0.171 HD
ENDROOT
BRANCH   1   5
ATOM      5  N   UNL     1      -0.934   1.874  -1.330  0.00  0.00    -0.108 NA
ATOM      6  H   UNL     1      -1.244   1.216  -1.972  0.00  0.00    +0.172 HD
BRANCH   5   7
ATOM      7  S   UNL     1      -0.056   1.395  -0.011  0.00  0.00    +0.074 S 
ATOM      8  O   UNL     1      -0.047  -0.026  -0.023  0.00  0.00    -0.152 OA
ATOM      9  O   UNL     1       1.139   2.164  -0.017  0.00  0.00    -0.152 OA
BRANCH   7  14
ATOM     10  C   UNL     1      -3.150   3.058   4.895  0.00  0.00    +0.044 C 
ATOM     11  C   UNL     1      -2.377   2.642   3.670  0.00  0.00    -0.050 A 
ATOM     12  C   UNL     1      -2.593   1.399   3.105  0.00  0.00    +0.005 A 
ATOM     13  C   UNL     1      -1.884   1.018   1.981  0.00  0.00    +0.029 A 
ATOM     14  C   UNL     1      -0.960   1.880   1.422  0.00  0.00    +0.107 A 
ATOM     15  C   UNL     1      -0.740   3.121   1.990  0.00  0.00    +0.029 A 
ATOM     16  C   UNL     1      -1.452   3.504   3.111  0.00  0.00    +0.005 A 
ENDBRANCH   7  14
ENDBRANCH   5   7
ENDBRANCH   1   5
BRANCH   2  17
ATOM     17  C   UNL     1      -1.214   5.298  -2.876  0.00  0.00    +0.106 C 
BRANCH  17  18
ATOM     18  C   UNL     1      -0.729   5.738  -4.259  0.00  0.00    +0.105 C 
BRANCH  18  19
ATOM     19  C   UNL     1      -1.048   7.197  -4.462  0.00  0.00    +0.218 C 
ATOM     20  O   UNL     1      -1.608   7.822  -3.588  0.00  0.00    -0.275 OA
ATOM     21  N   UNL     1      -0.711   7.806  -5.616  0.00  0.00    -0.285 N 
ATOM     22  H   UNL     1      -0.192   7.329  -6.283  0.00  0.00    +0.155 HD
BRANCH  21  23
ATOM     23  C   UNL     1      -1.108   9.126  -5.853  0.00  0.00    +0.038 A 
ATOM     24  C   UNL     1      -2.227   9.642  -5.210  0.00  0.00    +0.023 A 
ATOM     25  C   UNL     1      -2.617  10.945  -5.445  0.00  0.00    +0.003 A 
ATOM     26  C   UNL     1      -1.896  11.739  -6.318  0.00  0.00    +0.020 A 
ATOM     27  C   UNL     1      -0.781  11.229  -6.960  0.00  0.00    +0.046 A 
ATOM     28  C   UNL     1      -0.382   9.926  -6.725  0.00  0.00    -0.011 A 
ATOM     29  C   UNL     1       0.835   9.373  -7.419  0.00  0.00    +0.047 C 
ATOM     30 CL   UNL     1       0.123  12.228  -8.055  0.00  0.00    -0.083 Cl
ENDBRANCH  21  23
ENDBRANCH  18  19
ENDBRANCH  17  18
ENDBRANCH   2  17
TORSDOF 7
