REMARK  Name = ZINC67280160
REMARK  6 active torsions:
REMARK  status: ('A' for Active; 'I' for Inactive)
REMARK    1  A    between atoms: C_1  and  C_2
REMARK    2  A    between atoms: C_2  and  C_4
REMARK    3  A    between atoms: C_2  and  C_20
REMARK    4  A    between atoms: C_4  and  N_5
REMARK    5  A    between atoms: N_5  and  C_6
REMARK    6  A    between atoms: N_9  and  C_10
REMARK                            x       y       z     vdW  Elec       q    Type
REMARK                         _______ _______ _______ _____ _____    ______ ____
ROOT
ATOM      1  N   UNL     1      -2.120  -0.157  -1.226  0.00  0.00    -0.288 N 
ATOM      2  C   UNL     1      -2.071  -1.044  -2.391  0.00  0.00    +0.133 C 
ATOM      3  C   UNL     1      -2.779   1.016  -1.299  0.00  0.00    +0.306 C 
ATOM      4  O   UNL     1      -2.820   1.753  -0.332  0.00  0.00    -0.252 OA
ATOM      5  N   UNL     1      -3.394   1.373  -2.444  0.00  0.00    -0.266 N 
ATOM      6  H   UNL     1      -3.294   0.827  -3.239  0.00  0.00    +0.156 HD
ENDROOT
BRANCH   5   7
ATOM      7  C   UNL     1      -4.178   2.534  -2.486  0.00  0.00    +0.080 A 
ATOM      8  C   UNL     1      -4.749   3.030  -1.322  0.00  0.00    +0.027 A 
ATOM      9  C   UNL     1      -5.522   4.174  -1.364  0.00  0.00    +0.006 A 
ATOM     10  C   UNL     1      -5.731   4.828  -2.563  0.00  0.00    +0.049 A 
ATOM     11  C   UNL     1      -5.165   4.340  -3.732  0.00  0.00    +0.164 A 
ATOM     12  C   UNL     1      -4.380   3.195  -3.695  0.00  0.00    +0.183 A 
ATOM     13  O   UNL     1      -3.804   2.707  -4.828  0.00  0.00    -0.483 OA
ATOM     14  C   UNL     1      -4.332   3.179  -6.073  0.00  0.00    +0.270 C 
ATOM     15  C   UNL     1      -4.484   4.703  -5.983  0.00  0.00    +0.270 C 
ATOM     16  O   UNL     1      -5.384   4.995  -4.905  0.00  0.00    -0.485 OA
ENDBRANCH   5   7
BRANCH   1  17
ATOM     17  C   UNL     1      -1.451  -0.544   0.019  0.00  0.00    +0.117 C 
BRANCH  17  19
ATOM     18  C   UNL     1      -0.018   1.502   0.011  0.00  0.00    +0.014 C 
ATOM     19  C   UNL     1      -0.011  -0.028   0.007  0.00  0.00    +0.033 C 
BRANCH  19  20
ATOM     20  C   UNL     1       0.713  -0.530   1.229  0.00  0.00    -0.043 A 
ATOM     21  C   UNL     1       0.248  -0.206   2.490  0.00  0.00    +0.004 A 
ATOM     22  C   UNL     1       0.912  -0.667   3.611  0.00  0.00    +0.000 A 
ATOM     23  C   UNL     1       2.041  -1.452   3.472  0.00  0.00    +0.000 A 
ATOM     24  C   UNL     1       2.506  -1.777   2.211  0.00  0.00    +0.000 A 
ATOM     25  C   UNL     1       1.839  -1.319   1.090  0.00  0.00    +0.004 A 
ENDBRANCH  19  20
ENDBRANCH  17  19
ENDBRANCH   1  17
TORSDOF 4
