REMARK  Name = ZINC13346538
REMARK  8 active torsions:
REMARK  status: ('A' for Active; 'I' for Inactive)
REMARK    1  A    between atoms: C_1  and  C_2
REMARK    2  A    between atoms: C_2  and  C_4
REMARK    3  A    between atoms: C_2  and  N_24
REMARK    4  A    between atoms: C_6  and  C_9
REMARK    5  A    between atoms: C_12  and  N_15
REMARK    6  A    between atoms: N_15  and  S_16
REMARK    7  A    between atoms: S_16  and  C_19
REMARK    8  A    between atoms: C_25  and  C_27
REMARK                            x       y       z     vdW  Elec       q    Type
REMARK                         _______ _______ _______ _____ _____    ______ ____
ROOT
ATOM      1  C   UNL     1      -3.285   8.968  -0.592  0.00  0.00    +0.248 A 
ATOM      2  N   UNL     1      -2.981   7.784  -0.123  0.00  0.00    -0.190 NA
ATOM      3  C   UNL     1      -2.621   7.049  -1.200  0.00  0.00    +0.202 A 
ATOM      4  N   UNL     1      -2.735   7.821  -2.250  0.00  0.00    -0.056 NA
ATOM      5  O   UNL     1      -3.115   8.923  -1.917  0.00  0.00    -0.336 OA
ENDROOT
BRANCH   3   6
ATOM      6  C   UNL     1      -2.185   5.631  -1.192  0.00  0.00    +0.023 A 
ATOM      7  C   UNL     1      -1.848   4.998  -2.388  0.00  0.00    +0.013 A 
ATOM      8  C   UNL     1      -1.443   3.681  -2.378  0.00  0.00    +0.025 A 
ATOM      9  C   UNL     1      -1.369   2.983  -1.177  0.00  0.00    +0.048 A 
ATOM     10  C   UNL     1      -1.710   3.612   0.015  0.00  0.00    +0.025 A 
ATOM     11  C   UNL     1      -2.111   4.930   0.011  0.00  0.00    +0.013 A 
BRANCH   9  12
ATOM     12  N   UNL     1      -0.959   1.651  -1.170  0.00  0.00    -0.216 N 
ATOM     13  H   UNL     1      -1.610   0.943  -1.046  0.00  0.00    +0.174 HD
BRANCH  12  14
ATOM     14  S   UNL     1       0.642   1.277  -1.373  0.00  0.00    +0.079 S 
ATOM     15  O   UNL     1       0.746  -0.136  -1.261  0.00  0.00    -0.149 OA
ATOM     16  O   UNL     1       1.081   1.984  -2.525  0.00  0.00    -0.149 OA
BRANCH  14  17
ATOM     17  C   UNL     1       1.514   1.957  -0.001  0.00  0.00    +0.146 A 
ATOM     18  C   UNL     1       1.715   1.427   1.230  0.00  0.00    +0.036 A 
ATOM     19  C   UNL     1       2.440   2.148   2.160  0.00  0.00    +0.010 A 
ATOM     20  C   UNL     1       2.929   3.364   1.813  0.00  0.00    +0.047 A 
ATOM     21  S   UNL     1       2.369   3.519   0.125  0.00  0.00    -0.077 S 
ENDBRANCH  14  17
ENDBRANCH  12  14
ENDBRANCH   9  12
ENDBRANCH   3   6
BRANCH   1  23
ATOM     22  C   UNL     1      -2.607  11.170   0.325  0.00  0.00    +0.038 C 
ATOM     23  C   UNL     1      -3.748  10.157   0.210  0.00  0.00    +0.159 C 
BRANCH  23  24
ATOM     24  N   UNL     1      -4.891  10.783  -0.458  0.00  0.00    -0.298 N 
ATOM     25  C   UNL     1      -5.776  11.506   0.257  0.00  0.00    +0.280 C 
ATOM     26  O   UNL     1      -5.626  11.638   1.457  0.00  0.00    -0.267 OA
ATOM     27  H   UNL     1      -5.011  10.678  -1.415  0.00  0.00    +0.150 HD
BRANCH  25  28
ATOM     28  C   UNL     1      -6.921  12.133  -0.413  0.00  0.00    +0.189 A 
ATOM     29  C   UNL     1      -7.888  12.887   0.189  0.00  0.00    +0.054 A 
ATOM     30  C   UNL     1      -8.778  13.281  -0.822  0.00  0.00    +0.042 A 
ATOM     31  C   UNL     1      -8.322  12.757  -1.981  0.00  0.00    +0.196 A 
ATOM     32  O   UNL     1      -7.200  12.070  -1.731  0.00  0.00    -0.458 OA
ENDBRANCH  25  28
ENDBRANCH  23  24
ENDBRANCH   1  23
TORSDOF 7
