REMARK  Name = ZINC48541570
REMARK  9 active torsions:
REMARK  status: ('A' for Active; 'I' for Inactive)
REMARK    1  A    between atoms: C_1  and  C_2
REMARK    2  A    between atoms: C_2  and  C_26
REMARK    3  A    between atoms: C_7  and  N_11
REMARK    4  A    between atoms: N_14  and  C_15
REMARK    5  A    between atoms: C_15  and  C_16
REMARK    6  A    between atoms: C_16  and  C_18
REMARK    7  A    between atoms: C_16  and  N_23
REMARK    8  A    between atoms: N_23  and  C_24
REMARK    9  A    between atoms: N_23  and  C_25
REMARK                            x       y       z     vdW  Elec       q    Type
REMARK                         _______ _______ _______ _____ _____    ______ ____
ROOT
ATOM      1  N   UNL     1       0.151  -5.104   3.070  0.00  0.00    -0.269 N 
ATOM      2  C   UNL     1      -0.771  -6.041   3.368  0.00  0.00    +0.304 C 
ATOM      3  O   UNL     1      -1.839  -6.049   2.788  0.00  0.00    -0.253 OA
ATOM      4  N   UNL     1      -0.508  -6.968   4.310  0.00  0.00    -0.300 N 
ATOM      5  H   UNL     1       1.029  -5.140   3.480  0.00  0.00    +0.156 HD
ATOM      6  H   UNL     1       0.344  -6.962   4.773  0.00  0.00    +0.150 HD
ENDROOT
BRANCH   1  13
ATOM      7  C   UNL     1       0.904   0.094  -1.846  0.00  0.00    +0.104 C 
ATOM      8  C   UNL     1       0.361  -1.254  -1.368  0.00  0.00    +0.248 C 
ATOM      9  O   UNL     1      -0.821  -1.067  -0.567  0.00  0.00    -0.448 OA
ATOM     10  C   UNL     1      -0.778  -2.049   0.381  0.00  0.00    +0.167 A 
ATOM     11  C   UNL     1      -1.759  -2.566   1.212  0.00  0.00    +0.051 A 
ATOM     12  C   UNL     1      -1.452  -3.578   2.102  0.00  0.00    +0.027 A 
ATOM     13  C   UNL     1      -0.159  -4.079   2.166  0.00  0.00    +0.038 A 
ATOM     14  C   UNL     1       0.827  -3.563   1.336  0.00  0.00    +0.073 A 
ATOM     15  C   UNL     1       0.520  -2.550   0.443  0.00  0.00    +0.169 A 
ATOM     16  O   UNL     1       1.290  -1.882  -0.465  0.00  0.00    -0.448 OA
ATOM     17  C   UNL     1       0.068  -2.167  -2.560  0.00  0.00    +0.104 C 
ENDBRANCH   1  13
BRANCH   4  18
ATOM     18  C   UNL     1      -1.511  -7.987   4.634  0.00  0.00    +0.095 C 
BRANCH  18  19
ATOM     19  C   UNL     1      -1.008  -8.844   5.797  0.00  0.00    -0.020 C 
BRANCH  19  20
ATOM     20  C   UNL     1       0.212  -9.615   5.363  0.00  0.00    -0.052 A 
ATOM     21  C   UNL     1       1.477  -9.178   5.709  0.00  0.00    +0.009 A 
ATOM     22  C   UNL     1       2.553  -9.895   5.302  0.00  0.00    +0.045 A 
ATOM     23  S   UNL     1       1.788 -11.232   4.401  0.00  0.00    -0.105 S 
ATOM     24  C   UNL     1       0.085 -10.749   4.632  0.00  0.00    +0.047 A 
ENDBRANCH  19  20
BRANCH  19  25
ATOM     25  N   UNL     1      -2.062  -9.784   6.204  0.00  0.00    +0.382 N 
ATOM     26  C   UNL     1      -1.585 -10.597   7.330  0.00  0.00    -0.096 C 
ATOM     27  C   UNL     1      -3.257  -9.033   6.612  0.00  0.00    -0.096 C 
ATOM     28  H   UNL     1      -2.292 -10.387   5.428  0.00  0.00    -0.082 HD
ENDBRANCH  19  25
ENDBRANCH  18  19
ENDBRANCH   4  18
TORSDOF 5
