REMARK  Name = ZINC59293152
REMARK  14 active torsions:
REMARK  status: ('A' for Active; 'I' for Inactive)
REMARK    1  A    between atoms: C_1  and  C_2
REMARK    2  A    between atoms: C_2  and  C_3
REMARK    3  A    between atoms: C_3  and  C_4
REMARK    4  A    between atoms: C_4  and  O_5
REMARK    5  A    between atoms: O_5  and  C_6
REMARK    6  A    between atoms: C_6  and  C_8
REMARK    7  A    between atoms: C_9  and  N_35
REMARK    8  A    between atoms: C_13  and  C_34
REMARK    9  A    between atoms: C_17  and  C_29
REMARK   10  A    between atoms: C_18  and  C_20
REMARK   11  A    between atoms: C_23  and  N_26
REMARK   12  A    between atoms: C_29  and  O_31
REMARK   13  A    between atoms: O_31  and  C_32
REMARK   14  A    between atoms: C_32  and  C_33
REMARK                            x       y       z     vdW  Elec       q    Type
REMARK                         _______ _______ _______ _____ _____    ______ ____
ROOT
ATOM      1  C   UNL     1       1.905  -4.403  -3.874  0.00  0.00    +0.084 C 
ATOM      2  C   UNL     1       2.330  -5.692  -3.813  0.00  0.00    +0.106 C 
ATOM      3  N   UNL     1       3.173  -6.182  -4.822  0.00  0.00    -0.220 N 
ATOM      4  C   UNL     1       3.905  -7.291  -4.691  0.00  0.00    +0.239 C 
ATOM      5  O   UNL     1       3.922  -7.923  -3.657  0.00  0.00    -0.274 OA
ATOM      6  C   UNL     1       4.715  -7.721  -5.904  0.00  0.00    +0.136 C 
ATOM      7  S   UNL     1       4.073  -6.523  -7.151  0.00  0.00    -0.096 S 
ATOM      8  C   UNL     1       3.265  -5.441  -6.002  0.00  0.00    +0.088 C 
ATOM      9  C   UNL     1       2.842  -4.167  -6.159  0.00  0.00    +0.077 C 
ATOM     10  C   UNL     1       2.336  -3.436  -4.937  0.00  0.00    +0.098 C 
ATOM     11  C   UNL     1       4.398  -9.164  -6.302  0.00  0.00    +0.029 C 
ENDROOT
BRANCH  10  12
ATOM     12  C   UNL     1       3.440  -2.564  -4.396  0.00  0.00    -0.035 A 
ATOM     13  C   UNL     1       4.623  -3.134  -3.964  0.00  0.00    +0.007 A 
ATOM     14  C   UNL     1       5.635  -2.335  -3.468  0.00  0.00    +0.033 A 
ATOM     15  C   UNL     1       5.465  -0.964  -3.404  0.00  0.00    +0.126 A 
ATOM     16  C   UNL     1       4.282  -0.394  -3.836  0.00  0.00    +0.033 A 
ATOM     17  C   UNL     1       3.272  -1.193  -4.336  0.00  0.00    +0.007 A 
BRANCH  15  18
ATOM     18  N   UNL     1       6.548  -0.108  -2.871  0.00  0.00    +0.056 N 
ATOM     19  O   UNL     1       7.582  -0.607  -2.492  0.00  0.00    -0.126 OA
ATOM     20  O   UNL     1       6.399   1.091  -2.815  0.00  0.00    -0.126 OA
ENDBRANCH  15  18
ENDBRANCH  10  12
BRANCH   2  21
ATOM     21  N   UNL     1       1.940  -6.503  -2.779  0.00  0.00    -0.345 N 
ATOM     22  H   UNL     1       1.474  -6.126  -2.016  0.00  0.00    +0.143 HD
ATOM     23  H   UNL     1       2.132  -7.453  -2.810  0.00  0.00    +0.143 HD
ENDBRANCH   2  21
BRANCH   1  24
ATOM     24  C   UNL     1       1.008  -3.953  -2.893  0.00  0.00    +0.339 C 
ATOM     25  O   UNL     1      -0.183  -3.891  -3.138  0.00  0.00    -0.245 OA
BRANCH  24  26
ATOM     26  O   UNL     1       1.467  -3.588  -1.675  0.00  0.00    -0.461 OA
BRANCH  26  27
ATOM     27  C   UNL     1       0.499  -3.140  -0.725  0.00  0.00    +0.232 C 
BRANCH  27  28
ATOM     28  C   UNL     1       1.201  -2.773   0.584  0.00  0.00    +0.041 C 
BRANCH  28  30
ATOM     29  C   UNL     1       0.866  -1.927   2.911  0.00  0.00    +0.004 C 
ATOM     30  C   UNL     1       0.164  -2.293   1.602  0.00  0.00    -0.000 C 
ENDBRANCH  28  30
ENDBRANCH  27  28
ENDBRANCH  26  27
ENDBRANCH  24  26
ENDBRANCH   1  24
BRANCH   9  31
ATOM     31  C   UNL     1       2.866  -3.545  -7.415  0.00  0.00    +0.338 C 
ATOM     32  O   UNL     1       3.274  -4.154  -8.388  0.00  0.00    -0.245 OA
BRANCH  31  33
ATOM     33  O   UNL     1       2.438  -2.271  -7.546  0.00  0.00    -0.462 OA
BRANCH  33  34
ATOM     34  C   UNL     1       2.491  -1.700  -8.855  0.00  0.00    +0.229 C 
ATOM     35  C   UNL     1       1.970  -0.263  -8.807  0.00  0.00    +0.048 C 
ENDBRANCH  33  34
ENDBRANCH  31  33
ENDBRANCH   9  31
TORSDOF 11
