REMARK  Name = ZINC22988942
REMARK  10 active torsions:
REMARK  status: ('A' for Active; 'I' for Inactive)
REMARK    1  A    between atoms: C_1  and  C_2
REMARK    2  A    between atoms: C_6  and  C_33
REMARK    3  A    between atoms: C_7  and  N_8
REMARK    4  A    between atoms: C_9  and  C_11
REMARK    5  A    between atoms: C_11  and  N_12
REMARK    6  A    between atoms: C_18  and  C_20
REMARK    7  A    between atoms: C_20  and  S_21
REMARK    8  A    between atoms: S_21  and  C_22
REMARK    9  A    between atoms: N_26  and  C_27
REMARK   10  A    between atoms: C_27  and  C_28
REMARK                            x       y       z     vdW  Elec       q    Type
REMARK                         _______ _______ _______ _____ _____    ______ ____
ROOT
ATOM      1  N   UNL     1      -4.398  -3.160   7.197  0.00  0.00    +0.387 N 
ATOM      2  C   UNL     1      -4.856  -2.722   5.872  0.00  0.00    -0.059 C 
ATOM      3  C   UNL     1      -3.642  -2.487   4.967  0.00  0.00    +0.089 C 
ATOM      4  N   UNL     1      -2.725  -1.559   5.647  0.00  0.00    -0.304 N 
ATOM      5  C   UNL     1      -2.324  -1.864   7.029  0.00  0.00    +0.089 C 
ATOM      6  C   UNL     1      -3.595  -2.120   7.854  0.00  0.00    -0.059 C 
ATOM      7  C   UNL     1      -2.261  -0.462   5.018  0.00  0.00    +0.226 C 
ATOM      8  O   UNL     1      -2.598  -0.228   3.877  0.00  0.00    -0.275 OA
ATOM      9  H   UNL     1      -3.754  -4.040   7.054  0.00  0.00    -0.081 HD
ENDROOT
BRANCH   1  10
ATOM     10  C   UNL     1      -5.533  -3.560   8.040  0.00  0.00    +0.019 C 
BRANCH  10  12
ATOM     11  N   UNL     1      -5.886  -4.682  10.216  0.00  0.00    -0.287 N 
ATOM     12  C   UNL     1      -5.019  -4.229   9.289  0.00  0.00    +0.201 C 
ATOM     13  O   UNL     1      -3.825  -4.360   9.460  0.00  0.00    -0.278 OA
ATOM     14  H   UNL     1      -6.965  -4.511  10.090  0.00  0.00    +0.155 HD
BRANCH  11  21
ATOM     15  C   UNL     1      -4.154  -6.901   9.802  0.00  0.00    +0.045 C 
ATOM     16  C   UNL     1      -4.566  -6.459  11.182  0.00  0.00    -0.029 A 
ATOM     17  C   UNL     1      -4.097  -7.133  12.293  0.00  0.00    +0.005 A 
ATOM     18  C   UNL     1      -4.479  -6.732  13.559  0.00  0.00    +0.001 A 
ATOM     19  C   UNL     1      -5.327  -5.651  13.719  0.00  0.00    +0.005 A 
ATOM     20  C   UNL     1      -5.795  -4.970  12.613  0.00  0.00    -0.029 A 
ATOM     21  C   UNL     1      -5.413  -5.370  11.339  0.00  0.00    +0.039 A 
ATOM     22  C   UNL     1      -6.719  -3.792  12.788  0.00  0.00    +0.045 C 
ENDBRANCH  11  21
ENDBRANCH  10  12
ENDBRANCH   1  10
BRANCH   7  23
ATOM     23  C   UNL     1      -1.322   0.476   5.733  0.00  0.00    +0.173 C 
BRANCH  23  24
ATOM     24  S   UNL     1      -0.881   1.844   4.633  0.00  0.00    -0.077 S 
BRANCH  24  25
ATOM     25  C   UNL     1       0.190   2.756   5.693  0.00  0.00    +0.192 A 
ATOM     26  N   UNL     1       0.516   2.448   6.927  0.00  0.00    -0.123 NA
ATOM     27  N   UNL     1       1.316   3.334   7.402  0.00  0.00    -0.137 NA
ATOM     28  C   UNL     1       1.550   4.251   6.506  0.00  0.00    +0.226 A 
ATOM     29  N   UNL     1       0.838   3.919   5.387  0.00  0.00    -0.301 N 
BRANCH  29  30
ATOM     30  C   UNL     1       0.785   4.654   4.121  0.00  0.00    +0.199 C 
BRANCH  30  31
ATOM     31  C   UNL     1      -0.417   5.563   4.118  0.00  0.00    +0.125 A 
ATOM     32  C   UNL     1      -0.442   6.835   4.554  0.00  0.00    +0.046 A 
ATOM     33  C   UNL     1      -1.762   7.306   4.367  0.00  0.00    +0.041 A 
ATOM     34  C   UNL     1      -2.464   6.294   3.826  0.00  0.00    +0.195 A 
ATOM     35  O   UNL     1      -1.644   5.241   3.678  0.00  0.00    -0.466 OA
ENDBRANCH  30  31
ENDBRANCH  29  30
ENDBRANCH  24  25
ENDBRANCH  23  24
ENDBRANCH   7  23
TORSDOF 8
