REMARK  Name = ZINC66026354
REMARK  7 active torsions:
REMARK  status: ('A' for Active; 'I' for Inactive)
REMARK    1  A    between atoms: C_1  and  C_2
REMARK    2  A    between atoms: C_2  and  C_3
REMARK    3  A    between atoms: C_6  and  C_9
REMARK    4  A    between atoms: C_9  and  N_10
REMARK    5  A    between atoms: C_11  and  C_13
REMARK    6  A    between atoms: C_13  and  N_14
REMARK    7  A    between atoms: C_18  and  N_24
REMARK                            x       y       z     vdW  Elec       q    Type
REMARK                         _______ _______ _______ _____ _____    ______ ____
ROOT
ATOM      1  C   UNL     1       2.211  -6.303   5.891  0.00  0.00    +0.224 C 
ENDROOT
BRANCH   1   2
ATOM      2  N   UNL     1       2.919  -6.788   7.078  0.00  0.00    -0.265 N 
ATOM      3  C   UNL     1       4.288  -7.040   7.176  0.00  0.00    +0.091 A 
ATOM      4  C   UNL     1       5.342  -6.931   6.283  0.00  0.00    +0.032 A 
ATOM      5  C   UNL     1       6.621  -7.263   6.686  0.00  0.00    +0.035 A 
ATOM      6  C   UNL     1       6.851  -7.704   7.977  0.00  0.00    +0.130 A 
ATOM      7  C   UNL     1       5.805  -7.815   8.873  0.00  0.00    +0.081 A 
ATOM      8  C   UNL     1       4.519  -7.484   8.478  0.00  0.00    +0.159 A 
ATOM      9  O   UNL     1       3.324  -7.492   9.118  0.00  0.00    -0.407 OA
ATOM     10  C   UNL     1       2.369  -7.068   8.276  0.00  0.00    +0.422 A 
ATOM     11  O   UNL     1       1.190  -6.956   8.550  0.00  0.00    -0.223 OA
BRANCH   6  12
ATOM     12  N   UNL     1       8.224  -8.059   8.400  0.00  0.00    +0.057 N 
ATOM     13  O   UNL     1       9.142  -7.963   7.619  0.00  0.00    -0.126 OA
ATOM     14  O   UNL     1       8.429  -8.444   9.528  0.00  0.00    -0.126 OA
ENDBRANCH   6  12
ENDBRANCH   1   2
BRANCH   1  16
ATOM     15  N   UNL     1       1.588  -4.125   4.898  0.00  0.00    -0.314 N 
ATOM     16  C   UNL     1       2.190  -4.796   5.899  0.00  0.00    +0.233 C 
ATOM     17  O   UNL     1       2.716  -4.188   6.807  0.00  0.00    -0.274 OA
ATOM     18  H   UNL     1       1.168  -4.612   4.171  0.00  0.00    +0.149 HD
BRANCH  15  19
ATOM     19  C   UNL     1       1.568  -2.660   4.906  0.00  0.00    +0.107 C 
BRANCH  19  23
ATOM     20  C   UNL     1       0.742  -0.511   1.242  0.00  0.00    -0.011 C 
ATOM     21  C   UNL     1      -0.042  -0.124   2.497  0.00  0.00    +0.004 C 
ATOM     22  C   UNL     1       0.698  -0.630   3.737  0.00  0.00    +0.005 C 
ATOM     23  C   UNL     1       0.828  -2.153   3.666  0.00  0.00    +0.006 C 
ATOM     24  C   UNL     1       1.612  -2.541   2.410  0.00  0.00    +0.005 C 
ATOM     25  C   UNL     1       0.872  -2.034   1.171  0.00  0.00    +0.004 C 
BRANCH  20  27
ATOM     26  C   UNL     1      -0.019   1.526   0.010  0.00  0.00    +0.004 C 
ATOM     27  C   UNL     1       0.002  -0.004   0.002  0.00  0.00    -0.000 C 
ENDBRANCH  20  27
ENDBRANCH  19  23
ENDBRANCH  15  19
ENDBRANCH   1  16
TORSDOF 6
