REMARK  Name = ZINC27580576
REMARK  6 active torsions:
REMARK  status: ('A' for Active; 'I' for Inactive)
REMARK    1  A    between atoms: C_1  and  C_2
REMARK    2  A    between atoms: C_4  and  C_26
REMARK    3  A    between atoms: C_6  and  C_25
REMARK    4  A    between atoms: C_7  and  C_11
REMARK    5  A    between atoms: N_13  and  C_14
REMARK    6  A    between atoms: C_21  and  C_24
REMARK                            x       y       z     vdW  Elec       q    Type
REMARK                         _______ _______ _______ _____ _____    ______ ____
ROOT
ATOM      1  C   UNL     1      -0.025  -1.527  -4.804  0.00  0.00    +0.286 C 
ATOM      2  O   UNL     1      -0.044  -0.508  -5.468  0.00  0.00    -0.266 OA
ATOM      3  N   UNL     1      -0.015  -2.729  -5.414  0.00  0.00    -0.247 N 
ATOM      4  H   UNL     1       0.002  -3.650  -4.814  0.00  0.00    +0.158 HD
ENDROOT
BRANCH   1  11
ATOM      5  C   UNL     1       0.064  -2.830   2.489  0.00  0.00    +0.044 C 
ATOM      6  C   UNL     1       0.041  -2.085   1.179  0.00  0.00    -0.047 A 
ATOM      7  C   UNL     1       0.023  -0.696   1.180  0.00  0.00    +0.007 A 
ATOM      8  C   UNL     1       0.002  -0.004   0.002  0.00  0.00    -0.039 A 
ATOM      9  C   UNL     1      -0.006  -0.699  -1.210  0.00  0.00    +0.027 A 
ATOM     10  C   UNL     1      -0.019  -0.297  -2.616  0.00  0.00    +0.008 A 
ATOM     11  C   UNL     1      -0.012  -1.448  -3.337  0.00  0.00    +0.194 A 
ATOM     12  O   UNL     1       0.010  -2.508  -2.502  0.00  0.00    -0.450 OA
ATOM     13  C   UNL     1       0.018  -2.106  -1.216  0.00  0.00    +0.137 A 
ATOM     14  C   UNL     1       0.038  -2.789  -0.005  0.00  0.00    +0.050 A 
ATOM     15  C   UNL     1      -0.043   1.110  -3.155  0.00  0.00    +0.048 C 
ATOM     16  C   UNL     1      -0.018   1.503   0.010  0.00  0.00    +0.044 C 
ENDBRANCH   1  11
BRANCH   3  17
ATOM     17  C   UNL     1      -0.027  -2.803  -6.798  0.00  0.00    +0.228 A 
ATOM     18  C   UNL     1      -0.020  -3.922  -7.553  0.00  0.00    +0.037 A 
ATOM     19  C   UNL     1      -0.040  -3.452  -8.884  0.00  0.00    +0.089 A 
ATOM     20  N   UNL     1      -0.055  -2.161  -8.819  0.00  0.00    -0.081 NA
ATOM     21  O   UNL     1      -0.055  -1.773  -7.667  0.00  0.00    -0.339 OA
ATOM     22  C   UNL     1      -0.045  -4.367 -10.081  0.00  0.00    +0.059 C 
ATOM     23  C   UNL     1      -0.446  -5.770  -9.607  0.00  0.00    +0.010 C 
ATOM     24  C   UNL     1       0.414  -6.184  -8.411  0.00  0.00    -0.009 C 
ATOM     25  C   UNL     1       0.006  -5.374  -7.172  0.00  0.00    +0.045 C 
ATOM     26  C   UNL     1       0.214  -7.675  -8.133  0.00  0.00    +0.008 C 
ENDBRANCH   3  17
TORSDOF 2
