REMARK  Name = ZINC35686794
REMARK  6 active torsions:
REMARK  status: ('A' for Active; 'I' for Inactive)
REMARK    1  A    between atoms: C_7  and  C_11
REMARK    2  A    between atoms: C_11  and  C_12
REMARK    3  A    between atoms: C_12  and  C_14
REMARK    4  A    between atoms: C_12  and  N_22
REMARK    5  A    between atoms: N_25  and  C_26
REMARK    6  A    between atoms: C_30  and  C_32
REMARK                            x       y       z     vdW  Elec       q    Type
REMARK                         _______ _______ _______ _____ _____    ______ ____
ROOT
ATOM      1  C   UNL     1       0.245  -3.585  -1.448  0.00  0.00    +0.165 C 
ENDROOT
BRANCH   1   2
ATOM      2  C   UNL     1      -0.651  -4.795  -1.416  0.00  0.00    +0.236 C 
ATOM      3  O   UNL     1      -0.188  -5.899  -1.612  0.00  0.00    -0.274 OA
ATOM      4  N   UNL     1      -1.969  -4.652  -1.170  0.00  0.00    -0.300 N 
ATOM      5  C   UNL     1      -2.567  -3.316  -1.051  0.00  0.00    +0.108 C 
ATOM      6  C   UNL     1      -3.752  -3.218  -2.017  0.00  0.00    +0.019 C 
ATOM      7  C   UNL     1      -4.724  -4.369  -1.744  0.00  0.00    +0.003 C 
ATOM      8  C   UNL     1      -4.015  -5.704  -1.982  0.00  0.00    +0.019 C 
ATOM      9  C   UNL     1      -2.835  -5.830  -1.021  0.00  0.00    +0.108 C 
ENDBRANCH   1   2
BRANCH   1  10
ATOM     10  N   UNL     1       1.489  -3.917  -2.147  0.00  0.00    -0.288 N 
ATOM     11  C   UNL     1       1.550  -3.837  -3.490  0.00  0.00    +0.304 C 
ATOM     12  O   UNL     1       0.572  -3.490  -4.123  0.00  0.00    -0.252 OA
ATOM     13  N   UNL     1       2.695  -4.143  -4.133  0.00  0.00    -0.269 N 
ATOM     14  H   UNL     1       2.270  -4.194  -1.641  0.00  0.00    +0.151 HD
ATOM     15  H   UNL     1       3.494  -4.352  -3.626  0.00  0.00    +0.156 HD
BRANCH  13  16
ATOM     16  C   UNL     1       2.729  -4.157  -5.532  0.00  0.00    +0.036 A 
ATOM     17  C   UNL     1       3.507  -5.098  -6.198  0.00  0.00    +0.023 A 
ATOM     18  C   UNL     1       3.545  -5.117  -7.579  0.00  0.00    +0.003 A 
ATOM     19  C   UNL     1       2.812  -4.202  -8.307  0.00  0.00    +0.019 A 
ATOM     20  C   UNL     1       2.028  -3.253  -7.648  0.00  0.00    +0.054 A 
ATOM     21  C   UNL     1       1.985  -3.238  -6.253  0.00  0.00    +0.042 A 
BRANCH  20  22
ATOM     22  C   UNL     1       1.266  -2.303  -8.401  0.00  0.00    +0.099 C 
ATOM     23  N   UNL     1       0.661  -1.549  -8.998  0.00  0.00    -0.191 NA
ENDBRANCH  20  22
ENDBRANCH  13  16
ENDBRANCH   1  10
BRANCH   1  24
ATOM     24  C   UNL     1       0.564  -3.148  -0.017  0.00  0.00    +0.069 C 
BRANCH  24  31
ATOM     25  C   UNL     1      -0.585   1.387  -0.302  0.00  0.00    +0.001 A 
ATOM     26  C   UNL     1       0.521   2.227  -0.297  0.00  0.00    +0.002 A 
ATOM     27  C   UNL     1       1.795   1.710  -0.216  0.00  0.00    +0.026 A 
ATOM     28  C   UNL     1       1.978   0.333  -0.137  0.00  0.00    +0.047 A 
ATOM     29  C   UNL     1       0.855  -0.513  -0.141  0.00  0.00    +0.003 A 
ATOM     30  C   UNL     1      -0.428   0.032  -0.225  0.00  0.00    +0.010 A 
ATOM     31  C   UNL     1       1.376  -1.879  -0.048  0.00  0.00    -0.020 A 
ATOM     32  C   UNL     1       2.714  -1.785   0.005  0.00  0.00    +0.087 A 
ATOM     33  N   UNL     1       3.092  -0.471  -0.047  0.00  0.00    -0.360 N 
ATOM     34  H   UNL     1       4.008  -0.154  -0.024  0.00  0.00    +0.165 HD
ENDBRANCH  24  31
ENDBRANCH   1  24
TORSDOF 6
