REMARK  Name = ZINC39222007
REMARK  10 active torsions:
REMARK  status: ('A' for Active; 'I' for Inactive)
REMARK    1  A    between atoms: C_1  and  C_2
REMARK    2  A    between atoms: C_2  and  C_4
REMARK    3  A    between atoms: C_2  and  N_28
REMARK    4  A    between atoms: C_4  and  O_6
REMARK    5  A    between atoms: O_6  and  C_7
REMARK    6  A    between atoms: C_7  and  C_9
REMARK    7  A    between atoms: C_7  and  C_15
REMARK    8  A    between atoms: N_17  and  C_18
REMARK    9  A    between atoms: C_21  and  N_25
REMARK   10  A    between atoms: C_29  and  C_31
REMARK                            x       y       z     vdW  Elec       q    Type
REMARK                         _______ _______ _______ _____ _____    ______ ____
ROOT
ATOM      1  C   UNL     1       2.630  -0.662   2.613  0.00  0.00    +0.292 C 
ENDROOT
BRANCH   1   2
ATOM      2  C   UNL     1       3.261  -1.996   2.304  0.00  0.00    +0.002 A 
ATOM      3  C   UNL     1       3.914  -2.189   1.101  0.00  0.00    +0.008 A 
ATOM      4  C   UNL     1       4.493  -3.412   0.818  0.00  0.00    +0.000 A 
ATOM      5  C   UNL     1       4.418  -4.442   1.737  0.00  0.00    +0.000 A 
ATOM      6  C   UNL     1       3.765  -4.248   2.940  0.00  0.00    +0.000 A 
ATOM      7  C   UNL     1       3.190  -3.024   3.225  0.00  0.00    +0.008 A 
ENDBRANCH   1   2
BRANCH   1   8
ATOM      8  C   UNL     1       3.693   0.302   3.072  0.00  0.00    +0.263 C 
ATOM      9  O   UNL     1       3.890   1.327   2.454  0.00  0.00    -0.271 OA
ATOM     10  N   UNL     1       4.425   0.026   4.170  0.00  0.00    -0.281 N 
ATOM     11  H   UNL     1       4.224  -0.761   4.701  0.00  0.00    +0.155 HD
BRANCH  10  12
ATOM     12  C   UNL     1       5.474   0.873   4.543  0.00  0.00    +0.052 A 
ATOM     13  C   UNL     1       5.372   2.242   4.332  0.00  0.00    +0.027 A 
ATOM     14  C   UNL     1       6.409   3.076   4.702  0.00  0.00    +0.034 A 
ATOM     15  C   UNL     1       7.549   2.550   5.282  0.00  0.00    +0.128 A 
ATOM     16  C   UNL     1       7.655   1.187   5.493  0.00  0.00    +0.054 A 
ATOM     17  C   UNL     1       6.619   0.348   5.130  0.00  0.00    +0.064 A 
ATOM     18 CL   UNL     1       6.749  -1.362   5.403  0.00  0.00    -0.082 Cl
BRANCH  15  19
ATOM     19  N   UNL     1       8.659   3.446   5.676  0.00  0.00    +0.056 N 
ATOM     20  O   UNL     1       8.568   4.638   5.491  0.00  0.00    -0.126 OA
ATOM     21  O   UNL     1       9.656   2.988   6.183  0.00  0.00    -0.126 OA
ENDBRANCH  15  19
ENDBRANCH  10  12
ENDBRANCH   1   8
BRANCH   1  22
ATOM     22  O   UNL     1       1.998  -0.150   1.438  0.00  0.00    -0.446 OA
BRANCH  22  23
ATOM     23  C   UNL     1       0.713  -0.484   1.242  0.00  0.00    +0.328 C 
ATOM     24  O   UNL     1       0.143  -1.187   2.043  0.00  0.00    -0.249 OA
BRANCH  23  26
ATOM     25  C   UNL     1      -0.032   1.549   0.033  0.00  0.00    +0.040 C 
ATOM     26  C   UNL     1      -0.020   0.019   0.025  0.00  0.00    +0.179 C 
BRANCH  26  27
ATOM     27  N   UNL     1      -1.397  -0.480   0.043  0.00  0.00    -0.296 N 
ATOM     28  C   UNL     1      -2.082  -0.609  -1.110  0.00  0.00    +0.280 C 
ATOM     29  O   UNL     1      -1.557  -0.310  -2.167  0.00  0.00    -0.267 OA
ATOM     30  H   UNL     1      -1.816  -0.718   0.885  0.00  0.00    +0.150 HD
BRANCH  28  31
ATOM     31  C   UNL     1      -3.461  -1.108  -1.093  0.00  0.00    +0.189 A 
ATOM     32  C   UNL     1      -4.262  -1.291  -2.183  0.00  0.00    +0.054 A 
ATOM     33  C   UNL     1      -5.488  -1.781  -1.705  0.00  0.00    +0.042 A 
ATOM     34  C   UNL     1      -5.382  -1.875  -0.361  0.00  0.00    +0.196 A 
ATOM     35  O   UNL     1      -4.158  -1.473   0.004  0.00  0.00    -0.458 OA
ENDBRANCH  28  31
ENDBRANCH  26  27
ENDBRANCH  23  26
ENDBRANCH  22  23
ENDBRANCH   1  22
TORSDOF 9
