REMARK  Name = ZINC32856459
REMARK  10 active torsions:
REMARK  status: ('A' for Active; 'I' for Inactive)
REMARK    1  A    between atoms: C_1  and  C_2
REMARK    2  A    between atoms: C_2  and  C_4
REMARK    3  A    between atoms: C_2  and  O_17
REMARK    4  A    between atoms: C_4  and  C_6
REMARK    5  A    between atoms: C_9  and  N_12
REMARK    6  A    between atoms: N_12  and  S_13
REMARK    7  A    between atoms: S_13  and  C_16
REMARK    8  A    between atoms: O_17  and  C_18
REMARK    9  A    between atoms: C_18  and  C_20
REMARK   10  A    between atoms: C_24  and  N_26
REMARK                            x       y       z     vdW  Elec       q    Type
REMARK                         _______ _______ _______ _____ _____    ______ ____
ROOT
ATOM      1  C   UNL     1      -0.019   1.526   0.010  0.00  0.00    +0.061 C 
ATOM      2  C   UNL     1       0.002  -0.004   0.002  0.00  0.00    +0.244 C 
ENDROOT
BRANCH   2   3
ATOM      3  C   UNL     1       0.731  -0.503   1.223  0.00  0.00    +0.203 C 
ATOM      4  O   UNL     1       1.887  -0.861   1.135  0.00  0.00    -0.288 OA
BRANCH   3   5
ATOM      5  C   UNL     1       0.043  -0.556   2.518  0.00  0.00    +0.021 A 
ATOM      6  C   UNL     1      -1.294  -0.149   2.620  0.00  0.00    +0.013 A 
ATOM      7  C   UNL     1      -1.931  -0.200   3.827  0.00  0.00    +0.027 A 
ATOM      8  C   UNL     1      -1.254  -0.657   4.955  0.00  0.00    +0.074 A 
ATOM      9  C   UNL     1       0.075  -1.063   4.858  0.00  0.00    +0.027 A 
ATOM     10  C   UNL     1       0.718  -1.020   3.654  0.00  0.00    +0.013 A 
BRANCH   8  11
ATOM     11  N   UNL     1      -1.905  -0.707   6.181  0.00  0.00    -0.103 NA
BRANCH  11  12
ATOM     12  S   UNL     1      -1.102  -1.250   7.524  0.00  0.00    +0.059 S 
ATOM     13  O   UNL     1      -0.801  -2.610   7.242  0.00  0.00    -0.154 OA
ATOM     14  O   UNL     1      -0.061  -0.305   7.730  0.00  0.00    -0.154 OA
ATOM     15  C   UNL     1      -2.316  -1.144   8.867  0.00  0.00    +0.220 C 
ENDBRANCH  11  12
ENDBRANCH   8  11
ENDBRANCH   3   5
ENDBRANCH   2   3
BRANCH   2  16
ATOM     16  O   UNL     1       0.671  -0.465  -1.174  0.00  0.00    -0.450 OA
BRANCH  16  17
ATOM     17  C   UNL     1      -0.088  -0.673  -2.267  0.00  0.00    +0.340 C 
ATOM     18  O   UNL     1      -1.285  -0.469  -2.224  0.00  0.00    -0.245 OA
BRANCH  17  19
ATOM     19  C   UNL     1       0.535  -1.149  -3.518  0.00  0.00    +0.061 A 
ATOM     20  C   UNL     1       1.910  -1.390  -3.570  0.00  0.00    +0.016 A 
ATOM     21  C   UNL     1       2.486  -1.835  -4.741  0.00  0.00    +0.023 A 
ATOM     22  C   UNL     1       1.704  -2.042  -5.865  0.00  0.00    +0.071 A 
ATOM     23  C   UNL     1       0.340  -1.805  -5.821  0.00  0.00    +0.145 A 
ATOM     24  C   UNL     1      -0.249  -1.366  -4.654  0.00  0.00    +0.049 A 
ATOM     25 CL   UNL     1       2.436  -2.601  -7.337  0.00  0.00    -0.081 Cl
BRANCH  23  26
ATOM     26  N   UNL     1      -0.489  -2.028  -7.027  0.00  0.00    +0.058 N 
ATOM     27  O   UNL     1      -1.679  -1.822  -6.989  0.00  0.00    -0.126 OA
ATOM     28  O   UNL     1       0.025  -2.418  -8.050  0.00  0.00    -0.126 OA
ENDBRANCH  23  26
ENDBRANCH  17  19
ENDBRANCH  16  17
ENDBRANCH   2  16
TORSDOF 8
