REMARK  Name = ZINC38814897
REMARK  7 active torsions:
REMARK  status: ('A' for Active; 'I' for Inactive)
REMARK    1  A    between atoms: C_1  and  C_2
REMARK    2  A    between atoms: C_4  and  C_15
REMARK    3  A    between atoms: C_5  and  C_14
REMARK    4  A    between atoms: N_7  and  C_8
REMARK    5  A    between atoms: C_18  and  C_20
REMARK    6  A    between atoms: N_22  and  N_23
REMARK    7  A    between atoms: C_24  and  C_25
REMARK                            x       y       z     vdW  Elec       q    Type
REMARK                         _______ _______ _______ _____ _____    ______ ____
ROOT
ATOM      1  C   UNL     1      -2.243  -0.877  -1.252  0.00  0.00    +0.076 C 
ATOM      2  N   UNL     1      -2.188  -0.149  -2.355  0.00  0.00    -0.153 NA
ATOM      3  N   UNL     1      -3.307  -0.035  -2.958  0.00  0.00    -0.148 NA
ATOM      4  C   UNL     1      -4.302  -0.659  -2.375  0.00  0.00    +0.132 C 
ATOM      5  C   UNL     1      -3.695  -1.314  -1.145  0.00  0.00    +0.120 C 
ENDROOT
BRANCH   1   8
ATOM      6  C   UNL     1       0.338   0.790  -0.456  0.00  0.00    +0.035 C 
ATOM      7  C   UNL     1       0.245  -0.736  -0.506  0.00  0.00    +0.124 C 
ATOM      8  C   UNL     1      -1.196  -1.183  -0.379  0.00  0.00    +0.016 C 
ATOM      9  C   UNL     1      -1.272  -1.939   0.747  0.00  0.00    +0.026 C 
ATOM     10  N   UNL     1      -0.071  -2.038   1.363  0.00  0.00    -0.267 N 
ATOM     11  N   UNL     1       0.917  -1.331   0.661  0.00  0.00    -0.246 N 
ATOM     12  C   UNL     1      -2.538  -2.587   1.248  0.00  0.00    +0.062 C 
ATOM     13  H   UNL     1       0.086  -2.533   2.182  0.00  0.00    +0.170 HD
BRANCH  11  14
ATOM     14  C   UNL     1       2.267  -1.214   1.000  0.00  0.00    +0.048 A 
ATOM     15  C   UNL     1       3.124  -0.469   0.200  0.00  0.00    +0.025 A 
ATOM     16  C   UNL     1       4.458  -0.355   0.538  0.00  0.00    +0.002 A 
ATOM     17  C   UNL     1       4.941  -0.983   1.672  0.00  0.00    +0.000 A 
ATOM     18  C   UNL     1       4.091  -1.726   2.470  0.00  0.00    +0.002 A 
ATOM     19  C   UNL     1       2.755  -1.838   2.141  0.00  0.00    +0.025 A 
ENDBRANCH  11  14
ENDBRANCH   1   8
BRANCH   4  20
ATOM     20  C   UNL     1      -5.650  -0.716  -2.802  0.00  0.00    +0.280 C 
ATOM     21  O   UNL     1      -6.469  -1.339  -2.152  0.00  0.00    -0.267 OA
ATOM     22  N   UNL     1      -6.027  -0.079  -3.929  0.00  0.00    -0.202 N 
ATOM     23  H   UNL     1      -5.375   0.418  -4.446  0.00  0.00    +0.178 HD
BRANCH  22  24
ATOM     24  N   UNL     1      -7.362  -0.135  -4.351  0.00  0.00    -0.188 NA
ATOM     25  C   UNL     1      -7.752   0.573  -5.383  0.00  0.00    +0.136 C 
BRANCH  25  26
ATOM     26  C   UNL     1      -6.824   1.339  -6.098  0.00  0.00    +0.000 C 
ATOM     27  C   UNL     1      -7.074   2.152  -7.203  0.00  0.00    +0.004 A 
ATOM     28  C   UNL     1      -8.254   2.454  -7.917  0.00  0.00    +0.010 A 
ATOM     29  C   UNL     1      -8.201   3.299  -8.978  0.00  0.00    +0.001 A 
ATOM     30  C   UNL     1      -7.001   3.885  -9.389  0.00  0.00    +0.002 A 
ATOM     31  C   UNL     1      -5.831   3.640  -8.751  0.00  0.00    +0.026 A 
ATOM     32  C   UNL     1      -5.806   2.767  -7.631  0.00  0.00    +0.043 A 
ATOM     33  N   UNL     1      -4.818   2.374  -6.854  0.00  0.00    -0.380 N 
ATOM     34  C   UNL     1      -5.340   1.463  -5.831  0.00  0.00    +0.150 C 
ATOM     35  H   UNL     1      -3.892   2.647  -6.943  0.00  0.00    +0.160 HD
ENDBRANCH  25  26
ENDBRANCH  22  24
ENDBRANCH   4  20
TORSDOF 5
