REMARK  Name = ZINC13203641
REMARK  9 active torsions:
REMARK  status: ('A' for Active; 'I' for Inactive)
REMARK    1  A    between atoms: C_1  and  C_2
REMARK    2  A    between atoms: C_2  and  C_4
REMARK    3  A    between atoms: C_2  and  S_19
REMARK    4  A    between atoms: N_6  and  C_7
REMARK    5  A    between atoms: C_10  and  N_13
REMARK    6  A    between atoms: S_19  and  C_20
REMARK    7  A    between atoms: C_23  and  C_28
REMARK    8  A    between atoms: N_24  and  C_25
REMARK    9  A    between atoms: C_25  and  C_26
REMARK                            x       y       z     vdW  Elec       q    Type
REMARK                         _______ _______ _______ _____ _____    ______ ____
ROOT
ATOM      1  C   UNL     1      -1.083   5.838   2.837  0.00  0.00    +0.029 C 
ATOM      2  C   UNL     1       0.326   5.245   2.779  0.00  0.00    +0.137 C 
ENDROOT
BRANCH   2   3
ATOM      3  C   UNL     1       1.338   6.360   2.719  0.00  0.00    +0.230 C 
ATOM      4  O   UNL     1       1.764   6.736   1.648  0.00  0.00    -0.274 OA
ATOM      5  N   UNL     1       1.769   6.940   3.857  0.00  0.00    -0.285 N 
ATOM      6  H   UNL     1       1.373   6.694   4.707  0.00  0.00    +0.155 HD
BRANCH   5   7
ATOM      7  C   UNL     1       2.789   7.899   3.811  0.00  0.00    +0.034 A 
ATOM      8  C   UNL     1       3.800   7.794   2.864  0.00  0.00    +0.025 A 
ATOM      9  C   UNL     1       4.802   8.742   2.816  0.00  0.00    +0.025 A 
ATOM     10  C   UNL     1       4.806   9.795   3.721  0.00  0.00    +0.030 A 
ATOM     11  C   UNL     1       3.799   9.897   4.672  0.00  0.00    +0.025 A 
ATOM     12  C   UNL     1       2.794   8.952   4.717  0.00  0.00    +0.025 A 
BRANCH  10  13
ATOM     13  N   UNL     1       5.825  10.753   3.675  0.00  0.00    -0.330 N 
ATOM     14  C   UNL     1       5.270  12.105   3.532  0.00  0.00    +0.105 C 
ATOM     15  C   UNL     1       6.398  13.134   3.632  0.00  0.00    +0.019 C 
ATOM     16  C   UNL     1       7.427  12.865   2.530  0.00  0.00    +0.003 C 
ATOM     17  C   UNL     1       7.954  11.434   2.672  0.00  0.00    +0.019 C 
ATOM     18  C   UNL     1       6.780  10.454   2.601  0.00  0.00    +0.105 C 
ENDBRANCH  10  13
ENDBRANCH   5   7
ENDBRANCH   2   3
BRANCH   2  19
ATOM     19  S   UNL     1       0.483   4.208   1.303  0.00  0.00    -0.073 S 
BRANCH  19  20
ATOM     20  C   UNL     1      -0.674   2.939   1.696  0.00  0.00    +0.193 A 
ATOM     21  N   UNL     1      -1.404   2.861   2.785  0.00  0.00    -0.122 NA
ATOM     22  N   UNL     1      -2.136   1.805   2.752  0.00  0.00    -0.128 NA
ATOM     23  C   UNL     1      -1.923   1.146   1.635  0.00  0.00    +0.172 A 
ATOM     24  N   UNL     1      -0.982   1.855   0.922  0.00  0.00    -0.291 N 
BRANCH  23  25
ATOM     25  C   UNL     1      -2.568  -0.112   1.224  0.00  0.00    +0.056 A 
ATOM     26  C   UNL     1      -3.282  -1.005   1.982  0.00  0.00    +0.019 A 
ATOM     27  C   UNL     1      -3.801  -2.124   1.370  0.00  0.00    +0.008 A 
ATOM     28  C   UNL     1      -3.582  -2.315   0.043  0.00  0.00    +0.046 A 
ATOM     29  S   UNL     1      -2.618  -0.876  -0.389  0.00  0.00    -0.094 S 
ENDBRANCH  23  25
BRANCH  24  30
ATOM     30  C   UNL     1      -0.422   1.515  -0.389  0.00  0.00    +0.250 C 
BRANCH  30  31
ATOM     31  C   UNL     1      -1.266   2.136  -1.471  0.00  0.00    +0.375 C 
ATOM     32  O   UNL     1      -2.236   2.795  -1.178  0.00  0.00    -0.244 OA
ATOM     33  O   UNL     1      -0.942   1.957  -2.761  0.00  0.00    -0.244 OA
ENDBRANCH  30  31
ENDBRANCH  24  30
ENDBRANCH  19  20
ENDBRANCH   2  19
TORSDOF 8
