REMARK  Name = ZINC54727328
REMARK  10 active torsions:
REMARK  status: ('A' for Active; 'I' for Inactive)
REMARK    1  A    between atoms: C_1  and  C_2
REMARK    2  A    between atoms: C_4  and  C_25
REMARK    3  A    between atoms: N_6  and  C_8
REMARK    4  A    between atoms: C_8  and  C_9
REMARK    5  A    between atoms: C_8  and  C_10
REMARK    6  A    between atoms: C_8  and  C_11
REMARK    7  A    between atoms: C_11  and  N_12
REMARK    8  A    between atoms: N_15  and  N_16
REMARK    9  A    between atoms: N_16  and  C_17
REMARK   10  A    between atoms: C_17  and  C_24
REMARK                            x       y       z     vdW  Elec       q    Type
REMARK                         _______ _______ _______ _____ _____    ______ ____
ROOT
ATOM      1  N   UNL     1      -0.750  -2.466   3.616  0.00  0.00    -0.300 N 
ATOM      2  C   UNL     1      -1.628  -2.151   4.588  0.00  0.00    +0.313 C 
ATOM      3  O   UNL     1      -1.281  -1.449   5.518  0.00  0.00    -0.252 OA
ATOM      4  N   UNL     1      -2.893  -2.615   4.529  0.00  0.00    -0.234 N 
ATOM      5  H   UNL     1      -1.027  -3.026   2.874  0.00  0.00    +0.150 HD
ATOM      6  H   UNL     1      -3.525  -2.388   5.229  0.00  0.00    +0.171 HD
ENDROOT
BRANCH   4   7
ATOM      7  N   UNL     1      -3.284  -3.403   3.485  0.00  0.00    -0.232 NA
ATOM      8  H   UNL     1      -2.689  -4.215   3.403  0.00  0.00    +0.145 HD
BRANCH   7   9
ATOM      9  C   UNL     1      -4.693  -3.794   3.619  0.00  0.00    +0.054 C 
ATOM     10  C   UNL     1      -4.883  -4.484   4.969  0.00  0.00    +0.047 C 
ATOM     11  C   UNL     1      -6.058  -5.500   4.895  0.00  0.00    +0.168 C 
ATOM     12  S   UNL     1      -5.757  -6.196   3.211  0.00  0.00    -0.029 S 
ATOM     13  O   UNL     1      -4.736  -7.181   3.288  0.00  0.00    -0.174 OA
ATOM     14  O   UNL     1      -7.003  -6.520   2.610  0.00  0.00    -0.174 OA
ATOM     15  C   UNL     1      -5.077  -4.680   2.417  0.00  0.00    +0.189 C 
ATOM     16  C   UNL     1      -5.556  -2.531   3.592  0.00  0.00    +0.031 C 
ENDBRANCH   7   9
ENDBRANCH   4   7
BRANCH   1  17
ATOM     17  C   UNL     1       0.625  -1.963   3.679  0.00  0.00    +0.093 C 
BRANCH  17  18
ATOM     18  C   UNL     1       1.408  -2.463   2.464  0.00  0.00    -0.055 C 
ATOM     19  C   UNL     1       1.425  -3.993   2.463  0.00  0.00    -0.008 C 
ATOM     20  C   UNL     1       2.843  -1.937   2.530  0.00  0.00    -0.008 C 
BRANCH  18  26
ATOM     21  C   UNL     1      -0.019   1.526   0.010  0.00  0.00    +0.005 C 
ATOM     22  C   UNL     1       0.002  -0.004   0.002  0.00  0.00    -0.031 C 
ATOM     23  C   UNL     1       0.724  -0.499  -1.255  0.00  0.00    +0.003 C 
ATOM     24  C   UNL     1       0.808  -2.027  -1.215  0.00  0.00    -0.031 C 
ATOM     25  C   UNL     1       1.518  -2.460   0.070  0.00  0.00    -0.075 C 
ATOM     26  N   UNL     1       0.765  -1.980   1.235  0.00  0.00    +0.384 N 
ATOM     27  C   UNL     1       0.742  -0.512   1.241  0.00  0.00    -0.075 C 
ATOM     28  C   UNL     1       1.595  -2.527  -2.428  0.00  0.00    +0.005 C 
ATOM     29  H   UNL     1      -0.180  -2.330   1.191  0.00  0.00    -0.081 HD
ENDBRANCH  18  26
ENDBRANCH  17  18
ENDBRANCH   1  17
TORSDOF 5
