REMARK  Name = ZINC36096785
REMARK  7 active torsions:
REMARK  status: ('A' for Active; 'I' for Inactive)
REMARK    1  A    between atoms: C_3  and  C_6
REMARK    2  A    between atoms: C_6  and  C_8
REMARK    3  A    between atoms: C_10  and  C_22
REMARK    4  A    between atoms: C_16  and  C_17
REMARK    5  A    between atoms: C_16  and  O_21
REMARK    6  A    between atoms: C_25  and  O_31
REMARK    7  A    between atoms: C_26  and  N_28
REMARK                            x       y       z     vdW  Elec       q    Type
REMARK                         _______ _______ _______ _____ _____    ______ ____
ROOT
ATOM      1  C   UNL     1       4.771   1.269  -0.290  0.00  0.00    +0.144 C 
ATOM      2  C   UNL     1       6.050   1.209   0.552  0.00  0.00    +0.118 C 
ATOM      3  N   UNL     1       7.084   2.026  -0.085  0.00  0.00    -0.319 N 
ATOM      4  C   UNL     1       7.109   2.209  -1.413  0.00  0.00    +0.133 C 
ATOM      5  S   UNL     1       8.358   3.166  -2.088  0.00  0.00    -0.019 S 
ATOM      6  N   UNL     1       6.194   1.671  -2.234  0.00  0.00    -0.291 N 
ATOM      7  C   UNL     1       5.104   0.832  -1.721  0.00  0.00    +0.241 C 
ATOM      8  H   UNL     1       7.765   2.444   0.465  0.00  0.00    +0.148 HD
ATOM      9  H   UNL     1       6.252   1.841  -3.187  0.00  0.00    +0.151 HD
ENDROOT
BRANCH   2  10
ATOM     10  C   UNL     1       5.768   1.739   1.935  0.00  0.00    -0.024 A 
ATOM     11  C   UNL     1       5.414   0.868   2.949  0.00  0.00    +0.009 A 
ATOM     12  C   UNL     1       5.154   1.351   4.216  0.00  0.00    +0.048 A 
ATOM     13  C   UNL     1       5.250   2.711   4.472  0.00  0.00    +0.147 A 
ATOM     14  C   UNL     1       5.605   3.583   3.453  0.00  0.00    +0.168 A 
ATOM     15  C   UNL     1       5.868   3.094   2.188  0.00  0.00    +0.042 A 
BRANCH  14  16
ATOM     16  N   UNL     1       5.707   5.035   3.722  0.00  0.00    +0.060 N 
ATOM     17  O   UNL     1       6.017   5.794   2.834  0.00  0.00    -0.126 OA
ATOM     18  O   UNL     1       5.481   5.461   4.830  0.00  0.00    -0.126 OA
ENDBRANCH  14  16
BRANCH  13  19
ATOM     19  O   UNL     1       4.995   3.189   5.718  0.00  0.00    -0.504 OA
ATOM     20  H   UNL     1       5.772   3.228   6.292  0.00  0.00    +0.292 HD
ENDBRANCH  13  19
ENDBRANCH   2  10
BRANCH   7  21
ATOM     21  C   UNL     1       3.867   0.992  -2.606  0.00  0.00    +0.436 C 
ATOM     22  F   UNL     1       3.466   2.333  -2.609  0.00  0.00    -0.166 F 
ATOM     23  F   UNL     1       4.172   0.593  -3.911  0.00  0.00    -0.166 F 
ATOM     24  F   UNL     1       2.830   0.198  -2.106  0.00  0.00    -0.166 F 
ENDBRANCH   7  21
BRANCH   1  25
ATOM     25  C   UNL     1       4.239   2.679  -0.302  0.00  0.00    +0.179 C 
ATOM     26  O   UNL     1       4.992   3.610  -0.503  0.00  0.00    -0.291 OA
BRANCH  25  29
ATOM     27  C   UNL     1       0.830   4.038   0.191  0.00  0.00    +0.008 A 
ATOM     28  C   UNL     1       2.177   4.126  -0.050  0.00  0.00    +0.019 A 
ATOM     29  C   UNL     1       2.865   2.916  -0.080  0.00  0.00    +0.055 A 
ATOM     30  S   UNL     1       1.558   1.746   0.235  0.00  0.00    -0.094 S 
ATOM     31  C   UNL     1       0.271   2.815   0.380  0.00  0.00    +0.046 A 
ENDBRANCH  25  29
ENDBRANCH   1  25
BRANCH   7  32
ATOM     32  O   UNL     1       5.517  -0.536  -1.719  0.00  0.00    -0.364 OA
ATOM     33  H   UNL     1       5.744  -0.880  -2.594  0.00  0.00    +0.212 HD
ENDBRANCH   7  32
TORSDOF 7
