REMARK  Name = ZINC15143956
REMARK  12 active torsions:
REMARK  status: ('A' for Active; 'I' for Inactive)
REMARK    1  A    between atoms: C_1  and  C_2
REMARK    2  A    between atoms: C_2  and  C_3
REMARK    3  A    between atoms: C_3  and  N_53
REMARK    4  A    between atoms: C_4  and  C_5
REMARK    5  A    between atoms: C_4  and  N_53
REMARK    6  A    between atoms: N_7  and  C_8
REMARK    7  A    between atoms: C_16  and  C_17
REMARK    8  A    between atoms: C_16  and  N_53
REMARK    9  A    between atoms: N_19  and  N_20
REMARK   10  A    between atoms: C_21  and  C_23
REMARK   11  A    between atoms: C_23  and  C_24
REMARK   12  A    between atoms: C_26  and  C_29
REMARK                            x       y       z     vdW  Elec       q    Type
REMARK                         _______ _______ _______ _____ _____    ______ ____
ROOT
ATOM      1  N   UNL     1       1.557   1.124   0.433  0.00  0.00    +0.391 N 
ATOM      2  H   UNL     1       1.110   0.433  -0.181  0.00  0.00    -0.080 HD
ENDROOT
BRANCH   1   3
ATOM      3  C   UNL     1       1.333   0.731   1.841  0.00  0.00    -0.078 C 
BRANCH   3   5
ATOM      4  C   UNL     1      -0.326  -0.287   3.407  0.00  0.00    +0.002 C 
ATOM      5  C   UNL     1      -0.115   0.262   1.995  0.00  0.00    -0.022 C 
ENDBRANCH   3   5
ENDBRANCH   1   3
BRANCH   1   6
ATOM      6  C   UNL     1       0.959   2.451   0.178  0.00  0.00    +0.020 C 
BRANCH   6   7
ATOM      7  C   UNL     1       0.748   2.607  -1.306  0.00  0.00    +0.201 C 
ATOM      8  O   UNL     1       0.976   1.679  -2.052  0.00  0.00    -0.278 OA
ATOM      9  N   UNL     1       0.311   3.781  -1.804  0.00  0.00    -0.286 N 
ATOM     10  H   UNL     1       0.205   4.547  -1.219  0.00  0.00    +0.155 HD
BRANCH   9  11
ATOM     11  C   UNL     1       0.011   3.894  -3.167  0.00  0.00    +0.052 A 
ATOM     12  C   UNL     1      -0.248   2.756  -3.920  0.00  0.00    +0.026 A 
ATOM     13  C   UNL     1      -0.544   2.870  -5.264  0.00  0.00    +0.022 A 
ATOM     14  C   UNL     1      -0.583   4.118  -5.862  0.00  0.00    +0.042 A 
ATOM     15  C   UNL     1      -0.326   5.254  -5.115  0.00  0.00    +0.041 A 
ATOM     16  C   UNL     1      -0.035   5.146  -3.768  0.00  0.00    +0.064 A 
ATOM     17 CL   UNL     1       0.280   6.573  -2.830  0.00  0.00    -0.082 Cl
ATOM     18 CL   UNL     1      -0.956   4.258  -7.551  0.00  0.00    -0.083 Cl
ENDBRANCH   9  11
ENDBRANCH   6   7
ENDBRANCH   1   6
BRANCH   1  19
ATOM     19  C   UNL     1       3.006   1.158   0.143  0.00  0.00    +0.021 C 
BRANCH  19  20
ATOM     20  C   UNL     1       3.546  -0.248   0.197  0.00  0.00    +0.213 C 
ATOM     21  O   UNL     1       2.807  -1.171   0.465  0.00  0.00    -0.276 OA
ATOM     22  N   UNL     1       4.850  -0.479  -0.053  0.00  0.00    -0.236 N 
ATOM     23  H   UNL     1       5.441   0.260  -0.268  0.00  0.00    +0.173 HD
BRANCH  22  24
ATOM     24  N   UNL     1       5.352  -1.786  -0.003  0.00  0.00    -0.234 N 
ATOM     25  C   UNL     1       6.656  -2.017  -0.253  0.00  0.00    +0.235 C 
ATOM     26  O   UNL     1       7.395  -1.093  -0.522  0.00  0.00    -0.274 OA
ATOM     27  H   UNL     1       4.761  -2.524   0.212  0.00  0.00    +0.173 HD
BRANCH  25  28
ATOM     28  C   UNL     1       7.196  -3.422  -0.199  0.00  0.00    +0.160 C 
BRANCH  28  29
ATOM     29  C   UNL     1       8.670  -3.407  -0.515  0.00  0.00    +0.087 A 
ATOM     30  N   UNL     1       9.688  -3.274   0.304  0.00  0.00    -0.249 NA
ATOM     31  C   UNL     1      10.929  -3.286  -0.135  0.00  0.00    +0.046 A 
ATOM     32  C   UNL     1      11.140  -3.429  -1.468  0.00  0.00    +0.070 A 
ATOM     33  S   UNL     1       9.457  -3.553  -2.056  0.00  0.00    -0.080 S 
ATOM     34  C   UNL     1      12.086  -3.139   0.818  0.00  0.00    +0.066 C 
ENDBRANCH  28  29
ENDBRANCH  25  28
ENDBRANCH  22  24
ENDBRANCH  19  20
ENDBRANCH   1  19
TORSDOF 10
