REMARK  Name = ZINC21459123
REMARK  7 active torsions:
REMARK  status: ('A' for Active; 'I' for Inactive)
REMARK    1  A    between atoms: C_1  and  C_2
REMARK    2  A    between atoms: C_2  and  C_26
REMARK    3  A    between atoms: N_5  and  N_9
REMARK    4  A    between atoms: C_10  and  C_12
REMARK    5  A    between atoms: C_12  and  S_13
REMARK    6  A    between atoms: S_13  and  C_14
REMARK    7  A    between atoms: N_19  and  C_20
REMARK                            x       y       z     vdW  Elec       q    Type
REMARK                         _______ _______ _______ _____ _____    ______ ____
ROOT
ATOM      1  N   UNL     1       3.517   0.983  -0.027  0.00  0.00    -0.223 N 
ATOM      2  C   UNL     1       4.147   1.356  -1.158  0.00  0.00    +0.240 C 
ATOM      3  O   UNL     1       3.506   1.572  -2.165  0.00  0.00    -0.273 OA
ATOM      4  H   UNL     1       4.098   0.787   0.887  0.00  0.00    +0.174 HD
ENDROOT
BRANCH   1   9
ATOM      5  C   UNL     1      -0.662  -0.558   1.264  0.00  0.00    +0.047 C 
ATOM      6  C   UNL     1       0.002  -0.004   0.002  0.00  0.00    +0.137 C 
ATOM      7  C   UNL     1       1.480  -0.340  -0.014  0.00  0.00    +0.267 C 
ATOM      8  O   UNL     1       1.980  -1.445  -0.024  0.00  0.00    -0.271 OA
ATOM      9  N   UNL     1       2.123   0.844  -0.014  0.00  0.00    -0.137 N 
ATOM     10  C   UNL     1       1.266   1.871   0.000  0.00  0.00    +0.327 C 
ATOM     11  O   UNL     1       1.608   3.037   0.003  0.00  0.00    -0.251 OA
ATOM     12  N   UNL     1      -0.018   1.469   0.010  0.00  0.00    -0.280 N 
ATOM     13  H   UNL     1      -0.978   2.006   0.022  0.00  0.00    +0.152 HD
BRANCH   6  14
ATOM     14  C   UNL     1      -0.679  -0.537  -1.232  0.00  0.00    -0.015 A 
ATOM     15  C   UNL     1      -0.255  -1.724  -1.798  0.00  0.00    +0.006 A 
ATOM     16  C   UNL     1      -0.883  -2.216  -2.927  0.00  0.00    +0.000 A 
ATOM     17  C   UNL     1      -1.930  -1.514  -3.496  0.00  0.00    +0.000 A 
ATOM     18  C   UNL     1      -2.350  -0.323  -2.933  0.00  0.00    +0.000 A 
ATOM     19  C   UNL     1      -1.726   0.165  -1.801  0.00  0.00    +0.006 A 
ENDBRANCH   6  14
ENDBRANCH   1   9
BRANCH   2  20
ATOM     20  C   UNL     1       5.646   1.506  -1.172  0.00  0.00    +0.173 C 
BRANCH  20  21
ATOM     21  S   UNL     1       6.188   2.015  -2.827  0.00  0.00    -0.088 S 
BRANCH  21  22
ATOM     22  C   UNL     1       7.939   2.144  -2.681  0.00  0.00    +0.160 A 
ATOM     23  N   UNL     1       8.709   1.929  -1.632  0.00  0.00    -0.133 NA
ATOM     24  N   UNL     1      10.071   2.089  -1.738  0.00  0.00    -0.125 NA
ATOM     25  C   UNL     1      10.601   2.458  -2.888  0.00  0.00    +0.183 A 
ATOM     26  S   UNL     1       9.148   2.595  -3.917  0.00  0.00    -0.025 S 
ATOM     27  N   UNL     1      11.934   2.676  -3.213  0.00  0.00    -0.319 N 
ATOM     28  H   UNL     1      12.209   2.984  -4.233  0.00  0.00    +0.148 HD
BRANCH  27  29
ATOM     29  C   UNL     1      12.975   2.497  -2.198  0.00  0.00    +0.072 C 
ATOM     30  C   UNL     1      13.117   3.782  -1.379  0.00  0.00    +0.022 C 
ATOM     31  C   UNL     1      14.204   3.594  -0.319  0.00  0.00    +0.002 C 
ATOM     32  C   UNL     1      15.534   3.276  -1.004  0.00  0.00    +0.000 C 
ATOM     33  C   UNL     1      15.393   1.991  -1.822  0.00  0.00    +0.002 C 
ATOM     34  C   UNL     1      14.306   2.179  -2.882  0.00  0.00    +0.022 C 
ENDBRANCH  27  29
ENDBRANCH  21  22
ENDBRANCH  20  21
ENDBRANCH   2  20
TORSDOF 6
