REMARK  Name = ZINC29242880
REMARK  9 active torsions:
REMARK  status: ('A' for Active; 'I' for Inactive)
REMARK    1  A    between atoms: C_1  and  C_2
REMARK    2  A    between atoms: C_5  and  S_8
REMARK    3  A    between atoms: S_8  and  N_11
REMARK    4  A    between atoms: N_11  and  C_12
REMARK    5  A    between atoms: C_15  and  C_33
REMARK    6  A    between atoms: N_16  and  C_19
REMARK    7  A    between atoms: C_19  and  C_20
REMARK    8  A    between atoms: N_22  and  C_23
REMARK    9  A    between atoms: C_23  and  C_24
REMARK                            x       y       z     vdW  Elec       q    Type
REMARK                         _______ _______ _______ _____ _____    ______ ____
ROOT
ATOM      1  C   UNL     1      -2.534   0.322  -2.603  0.00  0.00    +0.112 A 
ATOM      2  C   UNL     1      -2.070   1.542  -3.009  0.00  0.00    +0.031 A 
ATOM      3  C   UNL     1      -0.858   2.022  -2.492  0.00  0.00    +0.023 A 
ATOM      4  C   UNL     1      -0.161   1.279  -1.601  0.00  0.00    +0.020 A 
ATOM      5  N   UNL     1      -0.621   0.065  -1.196  0.00  0.00    -0.302 N 
ATOM      6  C   UNL     1      -1.778  -0.428  -1.675  0.00  0.00    +0.274 A 
ATOM      7  O   UNL     1      -2.176  -1.522  -1.306  0.00  0.00    -0.266 OA
ATOM      8  C   UNL     1       1.140   1.804  -1.052  0.00  0.00    +0.063 C 
ENDROOT
BRANCH   1   9
ATOM      9  N   UNL     1      -3.741  -0.180  -3.104  0.00  0.00    -0.211 N 
ATOM     10  H   UNL     1      -4.150  -1.123  -2.712  0.00  0.00    +0.174 HD
BRANCH   9  11
ATOM     11  S   UNL     1      -4.553   0.645  -4.288  0.00  0.00    +0.072 S 
ATOM     12  O   UNL     1      -5.693  -0.136  -4.619  0.00  0.00    -0.150 OA
ATOM     13  O   UNL     1      -4.654   1.992  -3.848  0.00  0.00    -0.150 OA
BRANCH  11  18
ATOM     14  C   UNL     1      -1.017   0.692  -9.177  0.00  0.00    +0.044 C 
ATOM     15  C   UNL     1      -1.901   0.680  -7.956  0.00  0.00    -0.050 A 
ATOM     16  C   UNL     1      -2.714  -0.408  -7.702  0.00  0.00    +0.005 A 
ATOM     17  C   UNL     1      -3.524  -0.419  -6.582  0.00  0.00    +0.029 A 
ATOM     18  C   UNL     1      -3.520   0.659  -5.716  0.00  0.00    +0.109 A 
ATOM     19  C   UNL     1      -2.711   1.749  -5.973  0.00  0.00    +0.029 A 
ATOM     20  C   UNL     1      -1.897   1.758  -7.091  0.00  0.00    +0.005 A 
ENDBRANCH  11  18
ENDBRANCH   9  11
ENDBRANCH   1   9
BRANCH   5  21
ATOM     21  C   UNL     1       0.155  -0.717  -0.230  0.00  0.00    +0.220 C 
BRANCH  21  22
ATOM     22  C   UNL     1      -0.280  -0.363   1.169  0.00  0.00    +0.233 C 
ATOM     23  O   UNL     1      -1.152   0.462   1.342  0.00  0.00    -0.274 OA
ATOM     24  N   UNL     1       0.301  -0.963   2.227  0.00  0.00    -0.314 N 
ATOM     25  H   UNL     1       1.092  -1.710   2.070  0.00  0.00    +0.149 HD
BRANCH  24  26
ATOM     26  C   UNL     1      -0.122  -0.618   3.587  0.00  0.00    +0.107 C 
BRANCH  26  27
ATOM     27  C   UNL     1       0.689  -1.435   4.595  0.00  0.00    +0.009 C 
ATOM     28  C   UNL     1       0.359  -2.921   4.430  0.00  0.00    +0.024 C 
ATOM     29  C   UNL     1       1.198  -3.738   5.418  0.00  0.00    +0.108 C 
ATOM     30  N   UNL     1       0.974  -3.217   6.773  0.00  0.00    -0.305 N 
ATOM     31  C   UNL     1       1.175  -1.783   7.020  0.00  0.00    +0.108 C 
ATOM     32  C   UNL     1       0.337  -0.987   6.015  0.00  0.00    +0.024 C 
ATOM     33  C   UNL     1       0.584  -4.056   7.790  0.00  0.00    +0.151 C 
ATOM     34  N   UNL     1       0.485  -3.601   9.008  0.00  0.00    -0.375 N 
ATOM     35  N   UNL     1       0.299  -5.374   7.524  0.00  0.00    -0.333 N 
ATOM     36  H   UNL     1       0.173  -4.271   9.822  0.00  0.00    +0.158 HD
ATOM     37  H   UNL     1      -0.013  -6.044   8.338  0.00  0.00    +0.145 HD
ATOM     38  H   UNL     1       0.382  -5.757   6.496  0.00  0.00    +0.145 HD
ATOM     39  H   UNL     1       0.714  -2.546   9.221  0.00  0.00    +0.158 HD
ENDBRANCH  26  27
ENDBRANCH  24  26
ENDBRANCH  21  22
ENDBRANCH   5  21
TORSDOF 7
