REMARK  Name = ZINC36586976
REMARK  17 active torsions:
REMARK  status: ('A' for Active; 'I' for Inactive)
REMARK    1  A    between atoms: C_1  and  C_2
REMARK    2  A    between atoms: C_2  and  C_3
REMARK    3  A    between atoms: C_3  and  C_4
REMARK    4  A    between atoms: C_5  and  C_6
REMARK    5  A    between atoms: C_6  and  C_8
REMARK    6  A    between atoms: C_6  and  N_22
REMARK    7  A    between atoms: N_10  and  C_11
REMARK    8  A    between atoms: C_11  and  S_12
REMARK    9  A    between atoms: S_12  and  C_15
REMARK   10  A    between atoms: C_18  and  C_21
REMARK   11  A    between atoms: N_22  and  C_33
REMARK   12  A    between atoms: C_23  and  C_25
REMARK   13  A    between atoms: C_29  and  O_32
REMARK   14  A    between atoms: C_30  and  O_31
REMARK   15  A    between atoms: C_33  and  C_34
REMARK   16  A    between atoms: C_33  and  C_35
REMARK   17  A    between atoms: C_33  and  C_36
REMARK                            x       y       z     vdW  Elec       q    Type
REMARK                         _______ _______ _______ _____ _____    ______ ____
ROOT
ATOM      1  C   UNL     1       1.808  -4.862  -0.954  0.00  0.00    +0.186 C 
ENDROOT
BRANCH   1   2
ATOM      2  C   UNL     1       1.423  -6.270  -1.329  0.00  0.00    +0.239 C 
ATOM      3  O   UNL     1       0.628  -6.883  -0.648  0.00  0.00    -0.273 OA
ATOM      4  N   UNL     1       1.964  -6.848  -2.420  0.00  0.00    -0.294 N 
ATOM      5  H   UNL     1       2.600  -6.358  -2.964  0.00  0.00    +0.150 HD
BRANCH   4   6
ATOM      6  C   UNL     1       1.590  -8.217  -2.784  0.00  0.00    +0.278 C 
BRANCH   6   7
ATOM      7  S   UNL     1       0.248  -8.173  -4.004  0.00  0.00    +0.013 S 
ATOM      8  O   UNL     1      -0.083  -9.493  -4.415  0.00  0.00    -0.168 OA
ATOM      9  O   UNL     1      -0.765  -7.269  -3.586  0.00  0.00    -0.168 OA
BRANCH   7  10
ATOM     10  C   UNL     1       0.959  -7.423  -5.431  0.00  0.00    +0.090 A 
ATOM     11  C   UNL     1       0.912  -6.050  -5.586  0.00  0.00    +0.027 A 
ATOM     12  C   UNL     1       1.470  -5.461  -6.706  0.00  0.00    +0.005 A 
ATOM     13  C   UNL     1       2.074  -6.245  -7.670  0.00  0.00    -0.050 A 
ATOM     14  C   UNL     1       2.122  -7.618  -7.515  0.00  0.00    +0.005 A 
ATOM     15  C   UNL     1       1.569  -8.207  -6.393  0.00  0.00    +0.027 A 
ATOM     16  C   UNL     1       2.681  -5.604  -8.892  0.00  0.00    +0.044 C 
ENDBRANCH   7  10
ENDBRANCH   6   7
ENDBRANCH   4   6
ENDBRANCH   1   2
BRANCH   1  17
ATOM     17  N   UNL     1       0.923  -4.381   0.111  0.00  0.00    -0.277 N 
ATOM     18  C   UNL     1       1.426  -4.103   1.330  0.00  0.00    +0.252 C 
ATOM     19  O   UNL     1       2.625  -3.963   1.476  0.00  0.00    -0.270 OA
BRANCH  18  20
ATOM     20  C   UNL     1       0.521  -3.969   2.488  0.00  0.00    +0.082 A 
ATOM     21  C   UNL     1      -0.851  -3.789   2.290  0.00  0.00    +0.017 A 
ATOM     22  C   UNL     1      -1.693  -3.665   3.373  0.00  0.00    +0.005 A 
ATOM     23  C   UNL     1      -1.187  -3.718   4.662  0.00  0.00    +0.049 A 
ATOM     24  C   UNL     1       0.169  -3.896   4.874  0.00  0.00    +0.159 A 
ATOM     25  C   UNL     1       1.031  -4.028   3.790  0.00  0.00    +0.171 A 
BRANCH  25  26
ATOM     26  O   UNL     1       2.361  -4.209   3.994  0.00  0.00    -0.503 OA
ATOM     27  H   UNL     1       2.866  -3.386   4.045  0.00  0.00    +0.292 HD
ENDBRANCH  25  26
BRANCH  24  28
ATOM     28  O   UNL     1       0.658  -3.946   6.142  0.00  0.00    -0.503 OA
ATOM     29  H   UNL     1       0.683  -4.836   6.519  0.00  0.00    +0.292 HD
ENDBRANCH  24  28
ENDBRANCH  18  20
BRANCH  17  30
ATOM     30  C   UNL     1      -0.507  -4.202  -0.150  0.00  0.00    +0.030 C 
ATOM     31  C   UNL     1      -0.809  -4.563  -1.606  0.00  0.00    +0.031 C 
ATOM     32  C   UNL     1      -1.313  -5.113   0.778  0.00  0.00    +0.031 C 
ATOM     33  C   UNL     1      -0.894  -2.744   0.104  0.00  0.00    +0.031 C 
ENDBRANCH  17  30
ENDBRANCH   1  17
BRANCH   1  35
ATOM     34  C   UNL     1       1.105  -2.793  -2.045  0.00  0.00    -0.029 C 
ATOM     35  C   UNL     1       1.675  -3.967  -2.159  0.00  0.00    +0.000 C 
BRANCH  34  36
ATOM     36  C   UNL     1       1.044  -1.866  -3.231  0.00  0.00    +0.027 C 
BRANCH  36  38
ATOM     37  C   UNL     1      -0.471  -0.520  -4.692  0.00  0.00    +0.004 C 
ATOM     38  C   UNL     1      -0.409  -1.462  -3.488  0.00  0.00    +0.001 C 
ENDBRANCH  36  38
ENDBRANCH  34  36
ENDBRANCH   1  35
TORSDOF 12
