REMARK  Name = ZINC63270815
REMARK  6 active torsions:
REMARK  status: ('A' for Active; 'I' for Inactive)
REMARK    1  A    between atoms: C_7  and  C_10
REMARK    2  A    between atoms: C_10  and  C_11
REMARK    3  A    between atoms: C_11  and  N_12
REMARK    4  A    between atoms: C_13  and  C_15
REMARK    5  A    between atoms: C_18  and  C_22
REMARK    6  A    between atoms: C_22  and  C_23
REMARK                            x       y       z     vdW  Elec       q    Type
REMARK                         _______ _______ _______ _____ _____    ______ ____
ROOT
ATOM      1  C   UNL     1      -1.752  -6.557  -2.622  0.00  0.00    +0.297 C 
ATOM      2  N   UNL     1      -1.095  -7.743  -2.013  0.00  0.00    -0.265 NA
ATOM      3  C   UNL     1      -2.253  -8.559  -1.559  0.00  0.00    +0.154 C 
ATOM      4  N   UNL     1      -3.233  -7.548  -1.098  0.00  0.00    -0.181 NA
ATOM      5  O   UNL     1      -2.888  -6.289  -1.779  0.00  0.00    -0.270 OA
ATOM      6  H   UNL     1      -0.546  -8.243  -2.696  0.00  0.00    +0.126 HD
ATOM      7  H   UNL     1      -3.196  -7.439  -0.096  0.00  0.00    +0.156 HD
ENDROOT
BRANCH   1   9
ATOM      8  N   UNL     1      -0.458  -4.798  -1.460  0.00  0.00    -0.312 N 
ATOM      9  C   UNL     1      -0.811  -5.380  -2.623  0.00  0.00    +0.259 C 
ATOM     10  O   UNL     1      -0.371  -4.957  -3.671  0.00  0.00    -0.271 OA
ATOM     11  H   UNL     1      -0.810  -5.136  -0.622  0.00  0.00    +0.149 HD
BRANCH   8  12
ATOM     12  C   UNL     1       0.457  -3.653  -1.462  0.00  0.00    +0.108 C 
BRANCH  12  13
ATOM     13  C   UNL     1       0.691  -3.186  -0.024  0.00  0.00    +0.052 C 
BRANCH  13  20
ATOM     14  C   UNL     1      -0.016   1.348   0.009  0.00  0.00    +0.001 A 
ATOM     15  C   UNL     1       1.166   2.101   0.002  0.00  0.00    +0.002 A 
ATOM     16  C   UNL     1       2.391   1.535  -0.013  0.00  0.00    +0.026 A 
ATOM     17  C   UNL     1       2.529   0.120  -0.022  0.00  0.00    +0.043 A 
ATOM     18  N   UNL     1       3.587  -0.654  -0.037  0.00  0.00    -0.380 N 
ATOM     19  C   UNL     1       3.143  -2.053  -0.041  0.00  0.00    +0.144 C 
ATOM     20  C   UNL     1       1.631  -2.008  -0.025  0.00  0.00    -0.040 C 
ATOM     21  C   UNL     1       1.295  -0.698  -0.014  0.00  0.00    -0.001 A 
ATOM     22  C   UNL     1       0.002  -0.004   0.002  0.00  0.00    +0.010 A 
ATOM     23  H   UNL     1       4.509  -0.353  -0.045  0.00  0.00    +0.160 HD
ENDBRANCH  13  20
ENDBRANCH  12  13
ENDBRANCH   8  12
ENDBRANCH   1   9
BRANCH   3  24
ATOM     24  C   UNL     1      -1.844  -9.481  -0.408  0.00  0.00    +0.070 C 
BRANCH  24  25
ATOM     25  C   UNL     1      -2.999 -10.380  -0.050  0.00  0.00    -0.039 C 
ATOM     26  C   UNL     1      -3.217 -11.639  -0.494  0.00  0.00    -0.001 A 
ATOM     27  C   UNL     1      -2.474 -12.513  -1.410  0.00  0.00    +0.010 A 
ATOM     28  C   UNL     1      -2.953 -13.751  -1.669  0.00  0.00    +0.001 A 
ATOM     29  C   UNL     1      -4.139 -14.219  -1.087  0.00  0.00    +0.002 A 
ATOM     30  C   UNL     1      -4.877 -13.475  -0.236  0.00  0.00    +0.026 A 
ATOM     31  C   UNL     1      -4.466 -12.157   0.108  0.00  0.00    +0.043 A 
ATOM     32  N   UNL     1      -5.000 -11.254   0.894  0.00  0.00    -0.380 N 
ATOM     33  C   UNL     1      -4.145 -10.061   0.884  0.00  0.00    +0.144 C 
ATOM     34  H   UNL     1      -5.820 -11.358   1.401  0.00  0.00    +0.160 HD
ENDBRANCH  24  25
ENDBRANCH   3  24
TORSDOF 6
