REMARK  Name = ZINC13281029
REMARK  9 active torsions:
REMARK  status: ('A' for Active; 'I' for Inactive)
REMARK    1  A    between atoms: C_1  and  C_2
REMARK    2  A    between atoms: C_5  and  C_8
REMARK    3  A    between atoms: C_11  and  S_16
REMARK    4  A    between atoms: N_12  and  C_13
REMARK    5  A    between atoms: C_13  and  C_14
REMARK    6  A    between atoms: S_16  and  C_17
REMARK    7  A    between atoms: C_17  and  C_18
REMARK    8  A    between atoms: N_20  and  C_21
REMARK    9  A    between atoms: C_26  and  N_27
REMARK                            x       y       z     vdW  Elec       q    Type
REMARK                         _______ _______ _______ _____ _____    ______ ____
ROOT
ATOM      1  C   UNL     1       0.574   5.025   2.952  0.00  0.00    +0.173 C 
ENDROOT
BRANCH   1   2
ATOM      2  C   UNL     1       1.680   6.048   2.909  0.00  0.00    +0.228 C 
ATOM      3  O   UNL     1       2.578   5.937   2.100  0.00  0.00    -0.275 OA
ATOM      4  N   UNL     1       1.672   7.085   3.769  0.00  0.00    -0.283 N 
ATOM      5  H   UNL     1       0.997   7.134   4.464  0.00  0.00    +0.155 HD
BRANCH   4   6
ATOM      6  C   UNL     1       2.638   8.094   3.660  0.00  0.00    +0.068 A 
ATOM      7  C   UNL     1       3.245   8.343   2.435  0.00  0.00    +0.075 A 
ATOM      8  C   UNL     1       4.196   9.344   2.333  0.00  0.00    +0.164 A 
ATOM      9  C   UNL     1       4.548  10.087   3.451  0.00  0.00    +0.164 A 
ATOM     10  C   UNL     1       3.947   9.835   4.672  0.00  0.00    +0.084 A 
ATOM     11  C   UNL     1       2.993   8.838   4.776  0.00  0.00    +0.151 A 
ATOM     12  O   UNL     1       5.492  11.067   3.339  0.00  0.00    -0.488 OA
ATOM     13  C   UNL     1       5.117  12.210   2.568  0.00  0.00    +0.232 C 
ATOM     14  C   UNL     1       5.358  11.964   1.087  0.00  0.00    +0.082 C 
ATOM     15  C   UNL     1       4.474  10.857   0.533  0.00  0.00    +0.232 C 
ATOM     16  O   UNL     1       4.796   9.602   1.135  0.00  0.00    -0.488 OA
BRANCH  11  17
ATOM     17  N   UNL     1       2.348   8.567   6.080  0.00  0.00    +0.058 N 
ATOM     18  O   UNL     1       2.579   9.286   7.035  0.00  0.00    -0.126 OA
ATOM     19  O   UNL     1       1.586   7.623   6.198  0.00  0.00    -0.126 OA
ENDBRANCH  11  17
ENDBRANCH   4   6
ENDBRANCH   1   2
BRANCH   1  20
ATOM     20  S   UNL     1       0.867   3.767   1.683  0.00  0.00    -0.077 S 
BRANCH  20  24
ATOM     21  C   UNL     1      -2.010   1.126   1.821  0.00  0.00    +0.165 A 
ATOM     22  N   UNL     1      -2.343   1.965   2.775  0.00  0.00    -0.128 NA
ATOM     23  N   UNL     1      -1.476   2.911   2.849  0.00  0.00    -0.122 NA
ATOM     24  C   UNL     1      -0.533   2.731   1.951  0.00  0.00    +0.193 A 
ATOM     25  N   UNL     1      -0.843   1.593   1.262  0.00  0.00    -0.291 N 
BRANCH  21  30
ATOM     26  C   UNL     1      -4.890  -3.609   0.273  0.00  0.00    +0.044 C 
ATOM     27  C   UNL     1      -4.136  -2.369   0.679  0.00  0.00    -0.050 A 
ATOM     28  C   UNL     1      -4.391  -1.776   1.903  0.00  0.00    +0.004 A 
ATOM     29  C   UNL     1      -3.704  -0.641   2.280  0.00  0.00    +0.012 A 
ATOM     30  C   UNL     1      -2.749  -0.090   1.424  0.00  0.00    +0.019 A 
ATOM     31  C   UNL     1      -2.500  -0.690   0.188  0.00  0.00    +0.012 A 
ATOM     32  C   UNL     1      -3.190  -1.828  -0.175  0.00  0.00    +0.004 A 
ENDBRANCH  21  30
BRANCH  25  33
ATOM     33  C   UNL     1      -0.086   0.992   0.162  0.00  0.00    +0.250 C 
BRANCH  33  34
ATOM     34  C   UNL     1      -0.659   1.453  -1.154  0.00  0.00    +0.375 C 
ATOM     35  O   UNL     1      -1.603   2.208  -1.170  0.00  0.00    -0.244 OA
ATOM     36  O   UNL     1      -0.121   1.027  -2.307  0.00  0.00    -0.244 OA
ENDBRANCH  33  34
ENDBRANCH  25  33
ENDBRANCH  20  24
ENDBRANCH   1  20
TORSDOF 8
