REMARK  Name = ZINC20421593
REMARK  7 active torsions:
REMARK  status: ('A' for Active; 'I' for Inactive)
REMARK    1  A    between atoms: C_1  and  C_2
REMARK    2  A    between atoms: C_3  and  C_29
REMARK    3  A    between atoms: C_4  and  C_14
REMARK    4  A    between atoms: C_17  and  N_23
REMARK    5  A    between atoms: C_18  and  N_20
REMARK    6  A    between atoms: C_29  and  O_31
REMARK    7  A    between atoms: O_31  and  C_32
REMARK                            x       y       z     vdW  Elec       q    Type
REMARK                         _______ _______ _______ _____ _____    ______ ____
ROOT
ATOM      1  C   UNL     1       5.421   2.352   2.846  0.00  0.00    +0.061 C 
ATOM      2  C   UNL     1       4.114   1.654   2.575  0.00  0.00    +0.016 C 
ATOM      3  C   UNL     1       3.959   0.366   2.926  0.00  0.00    +0.065 C 
ATOM      4  C   UNL     1       2.670  -0.359   2.678  0.00  0.00    +0.092 C 
ATOM      5  C   UNL     1       1.827   0.367   1.659  0.00  0.00    +0.024 C 
ATOM      6  C   UNL     1       2.072   1.660   1.358  0.00  0.00    +0.015 C 
ATOM      7  N   UNL     1       3.093   2.335   1.972  0.00  0.00    -0.321 N 
ATOM      8  C   UNL     1       1.237   2.392   0.337  0.00  0.00    +0.051 C 
ATOM      9  C   UNL     1      -0.185   1.826   0.335  0.00  0.00    +0.014 C 
ATOM     10  C   UNL     1      -0.110   0.327   0.024  0.00  0.00    +0.080 C 
ATOM     11  C   UNL     1       0.783  -0.338   1.036  0.00  0.00    +0.162 C 
ATOM     12  O   UNL     1       0.599  -1.505   1.319  0.00  0.00    -0.292 OA
ATOM     13  H   UNL     1       3.087   3.435   1.977  0.00  0.00    +0.152 HD
ENDROOT
BRANCH   4  14
ATOM     14  C   UNL     1       1.903  -0.461   3.971  0.00  0.00    -0.033 A 
ATOM     15  C   UNL     1       1.497   0.689   4.624  0.00  0.00    +0.006 A 
ATOM     16  C   UNL     1       0.794   0.599   5.810  0.00  0.00    +0.026 A 
ATOM     17  C   UNL     1       0.496  -0.647   6.346  0.00  0.00    +0.060 A 
ATOM     18  C   UNL     1       0.906  -1.799   5.688  0.00  0.00    +0.147 A 
ATOM     19  C   UNL     1       1.603  -1.703   4.500  0.00  0.00    +0.039 A 
BRANCH  17  20
ATOM     20  N   UNL     1      -0.214  -0.741   7.546  0.00  0.00    -0.324 N 
ATOM     21  C   UNL     1      -1.567  -0.185   7.402  0.00  0.00    +0.133 C 
ATOM     22  C   UNL     1      -2.328  -0.362   8.718  0.00  0.00    +0.178 C 
ATOM     23  O   UNL     1      -1.595   0.264   9.775  0.00  0.00    -0.377 OA
ATOM     24  C   UNL     1      -0.273  -0.254   9.943  0.00  0.00    +0.178 C 
ATOM     25  C   UNL     1       0.509  -0.075   8.639  0.00  0.00    +0.133 C 
ENDBRANCH  17  20
BRANCH  18  26
ATOM     26  N   UNL     1       0.590  -3.129   6.256  0.00  0.00    +0.058 N 
ATOM     27  O   UNL     1       0.950  -4.139   5.678  0.00  0.00    -0.126 OA
ATOM     28  O   UNL     1      -0.029  -3.213   7.301  0.00  0.00    -0.126 OA
ENDBRANCH  18  26
ENDBRANCH   4  14
BRANCH   3  29
ATOM     29  C   UNL     1       5.033  -0.320   3.541  0.00  0.00    +0.337 C 
ATOM     30  O   UNL     1       6.122   0.216   3.637  0.00  0.00    -0.245 OA
BRANCH  29  31
ATOM     31  O   UNL     1       4.851  -1.567   4.021  0.00  0.00    -0.465 OA
ATOM     32  C   UNL     1       5.979  -2.200   4.629  0.00  0.00    +0.280 C 
ENDBRANCH  29  31
ENDBRANCH   3  29
TORSDOF 5
