REMARK  Name = ZINC63831359
REMARK  4 active torsions:
REMARK  status: ('A' for Active; 'I' for Inactive)
REMARK    1  A    between atoms: C_1  and  N_2
REMARK    2  A    between atoms: C_3  and  C_27
REMARK    3  A    between atoms: C_5  and  C_15
REMARK    4  A    between atoms: N_17  and  C_18
REMARK                            x       y       z     vdW  Elec       q    Type
REMARK                         _______ _______ _______ _____ _____    ______ ____
ROOT
ATOM      1  C   UNL     1      -0.018   1.461   0.010  0.00  0.00    +0.133 C 
ATOM      2  N   UNL     1       0.002  -0.004   0.002  0.00  0.00    -0.292 N 
ATOM      3  C   UNL     1      -1.260  -0.740   0.004  0.00  0.00    +0.122 C 
ATOM      4  C   UNL     1      -1.179  -1.962   0.916  0.00  0.00    +0.130 C 
ATOM      5  C   UNL     1       0.049  -2.770   0.591  0.00  0.00    -0.021 A 
ATOM      6  C   UNL     1       0.041  -4.143   0.716  0.00  0.00    +0.005 A 
ATOM      7  C   UNL     1       1.182  -4.870   0.427  0.00  0.00    +0.000 A 
ATOM      8  C   UNL     1       2.336  -4.228   0.013  0.00  0.00    +0.001 A 
ATOM      9  C   UNL     1       2.356  -2.854  -0.121  0.00  0.00    +0.013 A 
ATOM     10  C   UNL     1       1.206  -2.119   0.162  0.00  0.00    +0.041 A 
ATOM     11  C   UNL     1       1.183  -0.651  -0.013  0.00  0.00    +0.247 C 
ATOM     12  O   UNL     1       2.219  -0.033  -0.164  0.00  0.00    -0.270 OA
ENDROOT
BRANCH   3  13
ATOM     13  C   UNL     1      -1.572  -1.192  -1.399  0.00  0.00    -0.026 A 
ATOM     14  C   UNL     1      -0.561  -1.666  -2.214  0.00  0.00    +0.005 A 
ATOM     15  C   UNL     1      -0.847  -2.080  -3.501  0.00  0.00    +0.000 A 
ATOM     16  C   UNL     1      -2.145  -2.020  -3.974  0.00  0.00    +0.000 A 
ATOM     17  C   UNL     1      -3.156  -1.546  -3.160  0.00  0.00    +0.000 A 
ATOM     18  C   UNL     1      -2.871  -1.136  -1.871  0.00  0.00    +0.005 A 
ENDBRANCH   3  13
BRANCH   4  19
ATOM     19  C   UNL     1      -1.111  -1.510   2.352  0.00  0.00    +0.225 C 
ATOM     20  O   UNL     1      -1.126  -0.326   2.616  0.00  0.00    -0.275 OA
ATOM     21  N   UNL     1      -1.033  -2.420   3.342  0.00  0.00    -0.278 N 
ATOM     22  H   UNL     1      -1.022  -3.367   3.131  0.00  0.00    +0.152 HD
BRANCH  21  23
ATOM     23  C   UNL     1      -0.967  -1.981   4.738  0.00  0.00    +0.269 C 
ATOM     24  N   UNL     1       0.391  -1.524   5.059  0.00  0.00    -0.348 N 
ATOM     25  C   UNL     1       0.843  -2.283   6.014  0.00  0.00    +0.061 A 
ATOM     26  C   UNL     1       2.118  -2.316   6.746  0.00  0.00    +0.027 A 
ATOM     27  C   UNL     1       2.307  -3.239   7.710  0.00  0.00    +0.002 A 
ATOM     28  C   UNL     1       1.327  -4.187   8.055  0.00  0.00    +0.002 A 
ATOM     29  C   UNL     1       0.126  -4.245   7.447  0.00  0.00    +0.027 A 
ATOM     30  C   UNL     1      -0.194  -3.286   6.380  0.00  0.00    +0.061 A 
ATOM     31  N   UNL     1      -1.247  -3.109   5.636  0.00  0.00    -0.348 N 
ATOM     32  H   UNL     1       0.865  -0.791   4.635  0.00  0.00    +0.163 HD
ATOM     33  H   UNL     1      -2.066  -3.626   5.668  0.00  0.00    +0.163 HD
ENDBRANCH  21  23
ENDBRANCH   4  19
TORSDOF 3
