REMARK  Name = ZINC10860142
REMARK  10 active torsions:
REMARK  status: ('A' for Active; 'I' for Inactive)
REMARK    1  A    between atoms: C_1  and  C_2
REMARK    2  A    between atoms: C_2  and  C_3
REMARK    3  A    between atoms: C_2  and  C_4
REMARK    4  A    between atoms: C_4  and  C_5
REMARK    5  A    between atoms: C_5  and  C_7
REMARK    6  A    between atoms: C_5  and  N_23
REMARK    7  A    between atoms: C_7  and  O_9
REMARK    8  A    between atoms: O_9  and  C_10
REMARK    9  A    between atoms: C_10  and  C_11
REMARK   10  A    between atoms: C_20  and  O_22
REMARK                            x       y       z     vdW  Elec       q    Type
REMARK                         _______ _______ _______ _____ _____    ______ ____
ROOT
ATOM      1  C   UNL     1      -2.154   8.604   0.068  0.00  0.00    +0.329 C 
ATOM      2  O   UNL     1      -3.275   8.154   0.075  0.00  0.00    -0.249 OA
ENDROOT
BRANCH   1   3
ATOM      3  C   UNL     1      -1.940  10.096   0.074  0.00  0.00    +0.193 C 
BRANCH   3   4
ATOM      4  N   UNL     1      -3.239  10.775   0.089  0.00  0.00    -0.220 N 
ATOM      5  C   UNL     1      -4.176  10.646  -0.866  0.00  0.00    +0.255 C 
ATOM      6  O   UNL     1      -4.083   9.958  -1.863  0.00  0.00    -0.270 OA
ATOM      7  C   UNL     1      -5.341  11.479  -0.499  0.00  0.00    +0.049 A 
ATOM      8  C   UNL     1      -6.571  11.734  -1.083  0.00  0.00    +0.014 A 
ATOM      9  C   UNL     1      -7.461  12.597  -0.462  0.00  0.00    +0.001 A 
ATOM     10  C   UNL     1      -7.130  13.202   0.736  0.00  0.00    +0.001 A 
ATOM     11  C   UNL     1      -5.903  12.956   1.332  0.00  0.00    +0.014 A 
ATOM     12  C   UNL     1      -5.003  12.096   0.723  0.00  0.00    +0.049 A 
ATOM     13  C   UNL     1      -3.647  11.614   1.058  0.00  0.00    +0.255 C 
ATOM     14  O   UNL     1      -3.008  11.923   2.044  0.00  0.00    -0.270 OA
ENDBRANCH   3   4
BRANCH   3  15
ATOM     15  C   UNL     1      -1.166  10.505  -1.181  0.00  0.00    +0.037 C 
BRANCH  15  17
ATOM     16  C   UNL     1       0.112  12.262   0.054  0.00  0.00    +0.007 C 
ATOM     17  C   UNL     1      -0.840  11.999  -1.114  0.00  0.00    -0.015 C 
ATOM     18  C   UNL     1      -0.176  12.435  -2.422  0.00  0.00    +0.007 C 
ENDBRANCH  15  17
ENDBRANCH   3  15
ENDBRANCH   1   3
BRANCH   1  19
ATOM     19  O   UNL     1      -1.098   7.775   0.053  0.00  0.00    -0.459 OA
BRANCH  19  20
ATOM     20  C   UNL     1      -1.379   6.350   0.048  0.00  0.00    +0.268 C 
BRANCH  20  21
ATOM     21  C   UNL     1      -0.082   5.583   0.032  0.00  0.00    +0.007 A 
ATOM     22  C   UNL     1       1.112   6.231   0.025  0.00  0.00    +0.099 A 
ATOM     23  C   UNL     1       2.312   5.490   0.009  0.00  0.00    +0.338 A 
ATOM     24  O   UNL     1       3.375   6.083   0.003  0.00  0.00    -0.245 OA
ATOM     25  O   UNL     1       2.312   4.148   0.002  0.00  0.00    -0.422 OA
ATOM     26  C   UNL     1       1.160   3.443   0.009  0.00  0.00    +0.143 A 
ATOM     27  C   UNL     1      -0.075   4.119   0.024  0.00  0.00    +0.024 A 
ATOM     28  C   UNL     1      -1.271   3.392   0.032  0.00  0.00    +0.015 A 
ATOM     29  C   UNL     1      -1.236   2.028   0.019  0.00  0.00    +0.046 A 
ATOM     30  C   UNL     1      -0.016   1.353   0.009  0.00  0.00    +0.120 A 
ATOM     31  C   UNL     1       1.177   2.057   0.002  0.00  0.00    +0.092 A 
BRANCH  30  32
ATOM     32  O   UNL     1       0.002  -0.004   0.002  0.00  0.00    -0.507 OA
ATOM     33  H   UNL     1       0.016  -0.402   0.883  0.00  0.00    +0.292 HD
ENDBRANCH  30  32
ENDBRANCH  20  21
ENDBRANCH  19  20
ENDBRANCH   1  19
TORSDOF 8
