REMARK  Name = ZINC08914306
REMARK  13 active torsions:
REMARK  status: ('A' for Active; 'I' for Inactive)
REMARK    1  A    between atoms: C_1  and  C_2
REMARK    2  A    between atoms: C_2  and  C_3
REMARK    3  A    between atoms: C_3  and  C_4
REMARK    4  A    between atoms: C_4  and  O_5
REMARK    5  A    between atoms: O_5  and  C_6
REMARK    6  A    between atoms: C_9  and  C_12
REMARK    7  A    between atoms: C_13  and  C_23
REMARK    8  A    between atoms: N_15  and  C_17
REMARK    9  A    between atoms: C_25  and  C_32
REMARK   10  A    between atoms: C_26  and  C_31
REMARK   11  A    between atoms: C_32  and  O_34
REMARK   12  A    between atoms: O_34  and  C_35
REMARK   13  A    between atoms: C_35  and  C_36
REMARK                            x       y       z     vdW  Elec       q    Type
REMARK                         _______ _______ _______ _____ _____    ______ ____
ROOT
ATOM      1  C   UNL     1       2.373   0.550   0.076  0.00  0.00    +0.098 A 
ATOM      2  C   UNL     1       1.512  -0.519  -0.241  0.00  0.00    +0.023 A 
ATOM      3  C   UNL     1       0.242  -0.094  -0.068  0.00  0.00    +0.121 A 
ATOM      4  N   UNL     1       0.288   1.199   0.345  0.00  0.00    -0.239 N 
ATOM      5  N   UNL     1       1.633   1.580   0.428  0.00  0.00    -0.166 NA
ENDROOT
BRANCH   2   6
ATOM      6  C   UNL     1       1.934  -1.893  -0.694  0.00  0.00    +0.147 C 
ATOM      7  C   UNL     1       2.092  -1.860  -2.201  0.00  0.00    +0.078 C 
ATOM      8  C   UNL     1       1.347  -2.720  -2.930  0.00  0.00    +0.021 C 
ATOM      9  N   UNL     1       0.482  -3.588  -2.328  0.00  0.00    -0.273 N 
ATOM     10  C   UNL     1       0.304  -3.660  -1.002  0.00  0.00    +0.304 C 
ATOM     11  O   UNL     1      -0.490  -4.466  -0.559  0.00  0.00    -0.252 OA
ATOM     12  N   UNL     1       0.976  -2.866  -0.145  0.00  0.00    -0.288 N 
ATOM     13  C   UNL     1       1.473  -2.721  -4.431  0.00  0.00    +0.061 C 
ATOM     14  H   UNL     1      -0.116  -4.280  -2.938  0.00  0.00    +0.156 HD
ATOM     15  H   UNL     1       0.822  -2.933   0.943  0.00  0.00    +0.151 HD
BRANCH   7  16
ATOM     16  C   UNL     1       2.988  -0.960  -2.823  0.00  0.00    +0.339 C 
ATOM     17  O   UNL     1       4.179  -1.211  -2.853  0.00  0.00    -0.245 OA
BRANCH  16  18
ATOM     18  O   UNL     1       2.524   0.175  -3.384  0.00  0.00    -0.462 OA
BRANCH  18  19
ATOM     19  C   UNL     1       3.492   1.070  -3.937  0.00  0.00    +0.229 C 
ATOM     20  C   UNL     1       2.795   2.348  -4.408  0.00  0.00    +0.048 C 
ENDBRANCH  18  19
ENDBRANCH  16  18
ENDBRANCH   7  16
ENDBRANCH   2   6
BRANCH   1  24
ATOM     21  C   UNL     1       6.624   0.465  -0.075  0.00  0.00    +0.121 A 
ATOM     22  C   UNL     1       5.935   1.564  -0.569  0.00  0.00    +0.046 A 
ATOM     23  C   UNL     1       4.557   1.595  -0.521  0.00  0.00    +0.013 A 
ATOM     24  C   UNL     1       3.856   0.520   0.023  0.00  0.00    +0.003 A 
ATOM     25  C   UNL     1       4.551  -0.580   0.523  0.00  0.00    +0.013 A 
ATOM     26  C   UNL     1       5.928  -0.607   0.468  0.00  0.00    +0.046 A 
BRANCH  21  27
ATOM     27  O   UNL     1       7.981   0.438  -0.123  0.00  0.00    -0.492 OA
BRANCH  27  28
ATOM     28  C   UNL     1       8.626  -0.724   0.403  0.00  0.00    +0.229 C 
BRANCH  28  29
ATOM     29  C   UNL     1      10.142  -0.573   0.263  0.00  0.00    +0.041 C 
BRANCH  29  31
ATOM     30  C   UNL     1      12.349  -1.666   0.686  0.00  0.00    +0.004 C 
ATOM     31  C   UNL     1      10.833  -1.817   0.826  0.00  0.00    -0.000 C 
ENDBRANCH  29  31
ENDBRANCH  28  29
ENDBRANCH  27  28
ENDBRANCH  21  27
ENDBRANCH   1  24
BRANCH   4  32
ATOM     32  C   UNL     1      -0.817   2.011   0.632  0.00  0.00    +0.065 A 
ATOM     33  C   UNL     1      -2.104   1.509   0.496  0.00  0.00    +0.028 A 
ATOM     34  C   UNL     1      -3.192   2.310   0.784  0.00  0.00    +0.002 A 
ATOM     35  C   UNL     1      -2.999   3.616   1.198  0.00  0.00    +0.000 A 
ATOM     36  C   UNL     1      -1.719   4.121   1.329  0.00  0.00    +0.002 A 
ATOM     37  C   UNL     1      -0.628   3.323   1.048  0.00  0.00    +0.028 A 
ENDBRANCH   4  32
TORSDOF 10
