REMARK  Name = ZINC02793775
REMARK  5 active torsions:
REMARK  status: ('A' for Active; 'I' for Inactive)
REMARK    1  A    between atoms: C_3  and  O_24
REMARK    2  A    between atoms: C_6  and  C_7
REMARK    3  A    between atoms: C_13  and  C_15
REMARK    4  A    between atoms: C_18  and  N_21
REMARK    5  A    between atoms: O_24  and  C_25
REMARK                            x       y       z     vdW  Elec       q    Type
REMARK                         _______ _______ _______ _____ _____    ______ ____
ROOT
ATOM      1  C   UNL     1      -1.271  -0.765   0.011  0.00  0.00    +0.080 A 
ATOM      2  C   UNL     1      -1.258  -2.132   0.008  0.00  0.00    +0.076 A 
ATOM      3  S   UNL     1      -3.012  -2.480   0.021  0.00  0.00    -0.060 S 
ATOM      4  C   UNL     1      -3.576  -0.783   0.028  0.00  0.00    +0.165 A 
ATOM      5  N   UNL     1      -2.432  -0.126   0.026  0.00  0.00    -0.225 NA
ATOM      6  N   UNL     1      -4.874  -0.289   0.039  0.00  0.00    -0.261 N 
ATOM      7  C   UNL     1      -5.919  -1.140   0.045  0.00  0.00    +0.250 C 
ATOM      8  O   UNL     1      -5.726  -2.340   0.042  0.00  0.00    -0.270 OA
ATOM      9  H   UNL     1      -5.028   0.669   0.041  0.00  0.00    +0.157 HD
ENDROOT
BRANCH   1  15
ATOM     10  C   UNL     1      -0.017   1.390   0.010  0.00  0.00    +0.013 A 
ATOM     11  C   UNL     1       1.169   2.094   0.002  0.00  0.00    +0.046 A 
ATOM     12  C   UNL     1       2.380   1.417  -0.013  0.00  0.00    +0.127 A 
ATOM     13  C   UNL     1       2.403   0.029  -0.021  0.00  0.00    +0.046 A 
ATOM     14  C   UNL     1       1.220  -0.682  -0.014  0.00  0.00    +0.013 A 
ATOM     15  C   UNL     1       0.002  -0.004   0.002  0.00  0.00    +0.001 A 
BRANCH  12  16
ATOM     16  O   UNL     1       3.547   2.113  -0.021  0.00  0.00    -0.434 OA
BRANCH  16  17
ATOM     17  C   UNL     1       4.757   1.353  -0.036  0.00  0.00    +0.541 C 
ATOM     18  F   UNL     1       4.812   0.540   1.101  0.00  0.00    -0.166 F 
ATOM     19  F   UNL     1       4.790   0.553  -1.183  0.00  0.00    -0.166 F 
ENDBRANCH  16  17
ENDBRANCH  12  16
ENDBRANCH   1  15
BRANCH   7  20
ATOM     20  C   UNL     1      -7.300  -0.613   0.056  0.00  0.00    +0.037 A 
ATOM     21  C   UNL     1      -7.525   0.764   0.054  0.00  0.00    +0.015 A 
ATOM     22  C   UNL     1      -8.817   1.249   0.064  0.00  0.00    +0.033 A 
ATOM     23  C   UNL     1      -9.888   0.373   0.076  0.00  0.00    +0.126 A 
ATOM     24  C   UNL     1      -9.671  -0.994   0.079  0.00  0.00    +0.033 A 
ATOM     25  C   UNL     1      -8.385  -1.492   0.063  0.00  0.00    +0.015 A 
BRANCH  23  26
ATOM     26  N   UNL     1     -11.271   0.900   0.088  0.00  0.00    +0.056 N 
ATOM     27  O   UNL     1     -11.463   2.094   0.086  0.00  0.00    -0.126 OA
ATOM     28  O   UNL     1     -12.208   0.137   0.099  0.00  0.00    -0.126 OA
ENDBRANCH  23  26
ENDBRANCH   7  20
TORSDOF 5
