REMARK  Name = ZINC67160996
REMARK  11 active torsions:
REMARK  status: ('A' for Active; 'I' for Inactive)
REMARK    1  A    between atoms: C_1  and  N_2
REMARK    2  A    between atoms: N_2  and  C_3
REMARK    3  A    between atoms: N_2  and  C_4
REMARK    4  A    between atoms: C_4  and  C_6
REMARK    5  A    between atoms: C_4  and  C_26
REMARK    6  A    between atoms: C_6  and  N_7
REMARK    7  A    between atoms: C_8  and  C_10
REMARK    8  A    between atoms: C_10  and  C_11
REMARK    9  A    between atoms: C_11  and  C_12
REMARK   10  A    between atoms: C_12  and  C_13
REMARK   11  A    between atoms: C_13  and  C_14
REMARK                            x       y       z     vdW  Elec       q    Type
REMARK                         _______ _______ _______ _____ _____    ______ ____
ROOT
ATOM      1  N   UNL     1      -1.766   1.531  -1.169  0.00  0.00    -0.317 N 
ATOM      2  C   UNL     1      -2.260   2.263  -2.188  0.00  0.00    +0.213 C 
ATOM      3  O   UNL     1      -2.935   1.732  -3.045  0.00  0.00    -0.276 OA
ATOM      4  H   UNL     1      -1.227   1.956  -0.484  0.00  0.00    +0.149 HD
ENDROOT
BRANCH   1   5
ATOM      5  C   UNL     1      -2.044   0.095  -1.098  0.00  0.00    +0.093 C 
BRANCH   5   6
ATOM      6  C   UNL     1      -1.282  -0.514   0.081  0.00  0.00    -0.021 C 
BRANCH   6   7
ATOM      7  C   UNL     1      -1.799   0.071   1.370  0.00  0.00    -0.052 A 
ATOM      8  C   UNL     1      -1.112   1.091   2.002  0.00  0.00    +0.009 A 
ATOM      9  C   UNL     1      -1.605   1.595   3.160  0.00  0.00    +0.045 A 
ATOM     10  S   UNL     1      -3.082   0.620   3.389  0.00  0.00    -0.105 S 
ATOM     11  C   UNL     1      -2.947  -0.390   1.923  0.00  0.00    +0.047 A 
ENDBRANCH   6   7
BRANCH   6  13
ATOM     12  C   UNL     1      -0.983  -2.539  -1.170  0.00  0.00    -0.096 C 
ATOM     13  N   UNL     1      -1.477  -1.970   0.091  0.00  0.00    +0.382 N 
ATOM     14  C   UNL     1      -0.736  -2.556   1.216  0.00  0.00    -0.096 C 
ATOM     15  H   UNL     1      -2.460  -2.177   0.192  0.00  0.00    -0.082 HD
ENDBRANCH   6  13
ENDBRANCH   5   6
ENDBRANCH   1   5
BRANCH   2  16
ATOM     16  C   UNL     1      -1.974   3.741  -2.262  0.00  0.00    +0.096 C 
BRANCH  16  17
ATOM     17  C   UNL     1      -2.646   4.329  -3.504  0.00  0.00    +0.009 C 
BRANCH  17  18
ATOM     18  C   UNL     1      -2.355   5.829  -3.579  0.00  0.00    +0.002 C 
BRANCH  18  19
ATOM     19  C   UNL     1      -3.027   6.417  -4.822  0.00  0.00    +0.016 C 
BRANCH  19  20
ATOM     20  C   UNL     1      -2.736   7.917  -4.897  0.00  0.00    +0.069 C 
ATOM     21  C   UNL     1      -3.354   8.531  -6.128  0.00  0.00    +0.108 C 
ATOM     22  C   UNL     1      -4.858   8.826  -5.834  0.00  0.00    +0.105 C 
ATOM     23  C   UNL     1      -4.859   9.772  -4.635  0.00  0.00    +0.093 C 
ATOM     24  S   UNL     1      -3.635   8.841  -3.565  0.00  0.00    -0.154 S 
ATOM     25  N   UNL     1      -5.269   9.271  -7.146  0.00  0.00    -0.294 N 
ATOM     26  C   UNL     1      -4.507   8.556  -8.028  0.00  0.00    +0.300 C 
ATOM     27  O   UNL     1      -4.746   8.482  -9.218  0.00  0.00    -0.253 OA
ATOM     28  N   UNL     1      -3.464   7.926  -7.422  0.00  0.00    -0.294 N 
ATOM     29  H   UNL     1      -5.943   9.936  -7.357  0.00  0.00    +0.151 HD
ATOM     30  H   UNL     1      -2.910   7.222  -7.794  0.00  0.00    +0.151 HD
ENDBRANCH  19  20
ENDBRANCH  18  19
ENDBRANCH  17  18
ENDBRANCH  16  17
ENDBRANCH   2  16
TORSDOF 9
