REMARK  Name = ZINC39486252
REMARK  7 active torsions:
REMARK  status: ('A' for Active; 'I' for Inactive)
REMARK    1  A    between atoms: C_1  and  S_2
REMARK    2  A    between atoms: S_2  and  C_3
REMARK    3  A    between atoms: C_7  and  C_9
REMARK    4  A    between atoms: C_19  and  O_32
REMARK    5  A    between atoms: C_21  and  C_23
REMARK    6  A    between atoms: C_23  and  C_25
REMARK    7  A    between atoms: C_30  and  O_31
REMARK                            x       y       z     vdW  Elec       q    Type
REMARK                         _______ _______ _______ _____ _____    ______ ____
ROOT
ATOM      1  C   UNL     1       1.933  -3.499  -3.380  0.00  0.00    +0.063 C 
ATOM      2  C   UNL     1       3.411  -3.766  -3.469  0.00  0.00    -0.025 A 
ATOM      3  C   UNL     1       4.259  -3.149  -2.570  0.00  0.00    +0.054 A 
ATOM      4  C   UNL     1       5.627  -3.376  -2.622  0.00  0.00    +0.167 A 
ATOM      5  C   UNL     1       6.160  -4.235  -3.587  0.00  0.00    +0.167 A 
ATOM      6  C   UNL     1       5.322  -4.857  -4.490  0.00  0.00    +0.061 A 
ATOM      7  C   UNL     1       3.943  -4.623  -4.436  0.00  0.00    +0.028 A 
ATOM      8  C   UNL     1       3.054  -5.282  -5.409  0.00  0.00    +0.192 C 
ATOM      9  O   UNL     1       3.502  -5.860  -6.377  0.00  0.00    -0.289 OA
ATOM     10  C   UNL     1       1.562  -5.212  -5.159  0.00  0.00    +0.197 C 
ATOM     11  C   UNL     1       1.240  -3.780  -4.710  0.00  0.00    +0.108 C 
ATOM     12  O   UNL     1       7.514  -4.286  -3.425  0.00  0.00    -0.453 OA
ATOM     13  C   UNL     1       7.847  -3.139  -2.620  0.00  0.00    +0.466 C 
ATOM     14  O   UNL     1       6.650  -2.894  -1.860  0.00  0.00    -0.453 OA
ENDROOT
BRANCH   1  19
ATOM     15  C   UNL     1       0.848  -0.411  -1.489  0.00  0.00    +0.008 A 
ATOM     16  C   UNL     1       1.315   0.599  -2.322  0.00  0.00    +0.015 A 
ATOM     17  C   UNL     1       1.978   0.276  -3.490  0.00  0.00    +0.001 A 
ATOM     18  C   UNL     1       2.178  -1.049  -3.830  0.00  0.00    +0.004 A 
ATOM     19  C   UNL     1       1.714  -2.056  -3.004  0.00  0.00    -0.038 A 
ATOM     20  C   UNL     1       1.056  -1.741  -1.831  0.00  0.00    +0.019 A 
BRANCH  15  22
ATOM     21  C   UNL     1      -0.022   1.810   0.012  0.00  0.00    +0.090 C 
ATOM     22  S   UNL     1       0.002  -0.004   0.002  0.00  0.00    -0.129 S 
ENDBRANCH  15  22
ENDBRANCH   1  19
BRANCH  11  23
ATOM     23  C   UNL     1      -0.250  -3.629  -4.543  0.00  0.00    +0.173 C 
ATOM     24  O   UNL     1      -0.756  -3.779  -3.451  0.00  0.00    -0.292 OA
BRANCH  23  25
ATOM     25  C   UNL     1      -1.089  -3.301  -5.702  0.00  0.00    +0.059 A 
ATOM     26  C   UNL     1      -0.510  -3.133  -6.966  0.00  0.00    +0.015 A 
ATOM     27  C   UNL     1      -1.304  -2.826  -8.048  0.00  0.00    +0.001 A 
ATOM     28  C   UNL     1      -2.674  -2.682  -7.893  0.00  0.00    +0.004 A 
ATOM     29  C   UNL     1      -3.259  -2.844  -6.654  0.00  0.00    +0.046 A 
ATOM     30  C   UNL     1      -2.478  -3.160  -5.552  0.00  0.00    +0.127 A 
BRANCH  30  31
ATOM     31  O   UNL     1      -3.052  -3.325  -4.334  0.00  0.00    -0.506 OA
ATOM     32  H   UNL     1      -3.113  -2.512  -3.814  0.00  0.00    +0.292 HD
ENDBRANCH  30  31
ENDBRANCH  23  25
ENDBRANCH  11  23
BRANCH  10  33
ATOM     33  O   UNL     1       1.196  -6.138  -4.134  0.00  0.00    -0.383 OA
ATOM     34  H   UNL     1       1.404  -7.059  -4.344  0.00  0.00    +0.210 HD
ENDBRANCH  10  33
TORSDOF 6
