REMARK  Name = ZINC05216480
REMARK  9 active torsions:
REMARK  status: ('A' for Active; 'I' for Inactive)
REMARK    1  A    between atoms: C_1  and  C_2
REMARK    2  A    between atoms: C_2  and  C_4
REMARK    3  A    between atoms: C_2  and  N_10
REMARK    4  A    between atoms: C_11  and  C_13
REMARK    5  A    between atoms: C_18  and  N_19
REMARK    6  A    between atoms: C_20  and  C_22
REMARK    7  A    between atoms: C_22  and  O_23
REMARK    8  A    between atoms: O_23  and  C_24
REMARK    9  A    between atoms: C_29  and  N_30
REMARK                            x       y       z     vdW  Elec       q    Type
REMARK                         _______ _______ _______ _____ _____    ______ ____
ROOT
ATOM      1  C   UNL     1      -1.307   1.934   0.024  0.00  0.00    +0.058 A 
ATOM      2  C   UNL     1      -1.336   3.325   0.148  0.00  0.00    +0.015 A 
ATOM      3  C   UNL     1      -2.544   3.989   0.156  0.00  0.00    +0.001 A 
ATOM      4  C   UNL     1      -3.731   3.283   0.052  0.00  0.00    +0.002 A 
ATOM      5  C   UNL     1      -3.719   1.908  -0.066  0.00  0.00    +0.024 A 
ATOM      6  C   UNL     1      -2.511   1.222  -0.080  0.00  0.00    +0.046 A 
ENDROOT
BRANCH   1   8
ATOM      7  N   UNL     1       1.138   1.910   0.005  0.00  0.00    -0.305 N 
ATOM      8  C   UNL     1      -0.018   1.218   0.010  0.00  0.00    +0.246 C 
ATOM      9  O   UNL     1       0.002   0.002  -0.001  0.00  0.00    -0.270 OA
ATOM     10  H   UNL     1       1.123   2.880   0.014  0.00  0.00    +0.150 HD
BRANCH   7  12
ATOM     11  C   UNL     1       2.788   0.855  -1.459  0.00  0.00    +0.033 C 
ATOM     12  C   UNL     1       2.419   1.199  -0.015  0.00  0.00    +0.100 C 
BRANCH  12  13
ATOM     13  C   UNL     1       3.490   2.074   0.583  0.00  0.00    -0.027 A 
ATOM     14  C   UNL     1       3.515   3.427   0.298  0.00  0.00    +0.005 A 
ATOM     15  C   UNL     1       4.495   4.231   0.850  0.00  0.00    +0.000 A 
ATOM     16  C   UNL     1       5.455   3.681   1.679  0.00  0.00    +0.000 A 
ATOM     17  C   UNL     1       5.432   2.328   1.960  0.00  0.00    +0.000 A 
ATOM     18  C   UNL     1       4.449   1.524   1.411  0.00  0.00    +0.005 A 
ENDBRANCH  12  13
ENDBRANCH   7  12
ENDBRANCH   1   8
BRANCH   6  19
ATOM     19  N   UNL     1      -2.496  -0.165  -0.198  0.00  0.00    -0.282 N 
ATOM     20  C   UNL     1      -3.421  -0.788  -0.956  0.00  0.00    +0.255 C 
ATOM     21  O   UNL     1      -4.206  -0.136  -1.611  0.00  0.00    -0.272 OA
ATOM     22  H   UNL     1      -1.820  -0.684   0.265  0.00  0.00    +0.155 HD
BRANCH  20  23
ATOM     23  C   UNL     1      -3.478  -2.293  -0.989  0.00  0.00    +0.325 C 
BRANCH  23  24
ATOM     24  O   UNL     1      -4.534  -2.710  -1.857  0.00  0.00    -0.480 OA
BRANCH  24  25
ATOM     25  C   UNL     1      -4.723  -4.048  -2.001  0.00  0.00    +0.151 A 
ATOM     26  C   UNL     1      -3.905  -4.942  -1.324  0.00  0.00    +0.048 A 
ATOM     27  C   UNL     1      -4.102  -6.301  -1.467  0.00  0.00    +0.004 A 
ATOM     28  C   UNL     1      -5.107  -6.772  -2.293  0.00  0.00    +0.002 A 
ATOM     29  C   UNL     1      -5.920  -5.884  -2.972  0.00  0.00    +0.036 A 
ATOM     30  C   UNL     1      -5.730  -4.523  -2.828  0.00  0.00    +0.168 A 
BRANCH  30  31
ATOM     31  N   UNL     1      -6.600  -3.573  -3.556  0.00  0.00    +0.060 N 
ATOM     32  O   UNL     1      -7.484  -3.991  -4.282  0.00  0.00    -0.126 OA
ATOM     33  O   UNL     1      -6.432  -2.373  -3.429  0.00  0.00    -0.126 OA
ENDBRANCH  30  31
ENDBRANCH  24  25
ENDBRANCH  23  24
ENDBRANCH  20  23
ENDBRANCH   6  19
TORSDOF 8
