REMARK  Name = ZINC03371258
REMARK  9 active torsions:
REMARK  status: ('A' for Active; 'I' for Inactive)
REMARK    1  A    between atoms: C_1  and  C_2
REMARK    2  A    between atoms: C_4  and  C_29
REMARK    3  A    between atoms: C_6  and  N_8
REMARK    4  A    between atoms: C_9  and  C_11
REMARK    5  A    between atoms: C_11  and  C_13
REMARK    6  A    between atoms: C_11  and  S_19
REMARK    7  A    between atoms: S_19  and  C_20
REMARK    8  A    between atoms: C_23  and  C_28
REMARK    9  A    between atoms: N_26  and  N_27
REMARK                            x       y       z     vdW  Elec       q    Type
REMARK                         _______ _______ _______ _____ _____    ______ ____
ROOT
ATOM      1  C   UNL     1      -0.009   0.008   0.165  0.00  0.00    +0.170 C 
ENDROOT
BRANCH   1   2
ATOM      2  C   UNL     1       0.337  -0.508   1.538  0.00  0.00    -0.025 A 
ATOM      3  C   UNL     1      -0.459  -0.182   2.620  0.00  0.00    +0.005 A 
ATOM      4  C   UNL     1      -0.143  -0.659   3.878  0.00  0.00    +0.000 A 
ATOM      5  C   UNL     1       0.974  -1.454   4.056  0.00  0.00    +0.000 A 
ATOM      6  C   UNL     1       1.772  -1.776   2.975  0.00  0.00    +0.000 A 
ATOM      7  C   UNL     1       1.454  -1.303   1.716  0.00  0.00    +0.005 A 
ENDBRANCH   1   2
BRANCH   1   9
ATOM      8  N   UNL     1       1.139   2.192   0.003  0.00  0.00    -0.284 N 
ATOM      9  C   UNL     1      -0.012   1.515   0.180  0.00  0.00    +0.235 C 
ATOM     10  O   UNL     1      -1.051   2.118   0.347  0.00  0.00    -0.274 OA
ATOM     11  H   UNL     1       1.980   1.713  -0.057  0.00  0.00    +0.155 HD
BRANCH   8  17
ATOM     12  C   UNL     1       3.315   6.521   0.839  0.00  0.00    +0.044 C 
ATOM     13  C   UNL     1       2.163   5.711   0.302  0.00  0.00    -0.048 A 
ATOM     14  C   UNL     1       1.087   6.348  -0.288  0.00  0.00    +0.006 A 
ATOM     15  C   UNL     1       0.028   5.608  -0.782  0.00  0.00    -0.048 A 
ATOM     16  C   UNL     1       0.043   4.231  -0.687  0.00  0.00    +0.026 A 
ATOM     17  C   UNL     1       1.122   3.588  -0.095  0.00  0.00    +0.034 A 
ATOM     18  C   UNL     1       2.181   4.334   0.405  0.00  0.00    +0.026 A 
ATOM     19  C   UNL     1      -1.143   6.306  -1.425  0.00  0.00    +0.044 C 
ENDBRANCH   8  17
ENDBRANCH   1   9
BRANCH   1  20
ATOM     20  S   UNL     1      -1.649  -0.593  -0.309  0.00  0.00    -0.067 S 
BRANCH  20  21
ATOM     21  C   UNL     1      -1.328  -2.324  -0.394  0.00  0.00    +0.211 A 
ATOM     22  N   UNL     1      -0.114  -2.780  -0.135  0.00  0.00    -0.122 NA
ATOM     23  N   UNL     1       0.166  -4.034  -0.178  0.00  0.00    -0.146 NA
ATOM     24  C   UNL     1      -0.742  -4.928  -0.494  0.00  0.00    +0.126 A 
ATOM     25  C   UNL     1      -2.057  -4.507  -0.788  0.00  0.00    +0.293 A 
ATOM     26  O   UNL     1      -2.921  -5.314  -1.085  0.00  0.00    -0.264 OA
ATOM     27  N   UNL     1      -2.331  -3.183  -0.731  0.00  0.00    -0.206 N 
ATOM     28  C   UNL     1      -0.383  -6.390  -0.543  0.00  0.00    +0.073 C 
BRANCH  27  29
ATOM     29  N   UNL     1      -3.586  -2.718  -1.006  0.00  0.00    -0.293 N 
ATOM     30  H   UNL     1      -4.210  -3.477  -1.237  0.00  0.00    +0.163 HD
ATOM     31  H   UNL     1      -3.947  -2.175  -0.236  0.00  0.00    +0.163 HD
ENDBRANCH  27  29
ENDBRANCH  20  21
ENDBRANCH   1  20
TORSDOF 6
