REMARK  Name = ZINC14001576
REMARK  9 active torsions:
REMARK  status: ('A' for Active; 'I' for Inactive)
REMARK    1  A    between atoms: C_4  and  N_15
REMARK    2  A    between atoms: C_5  and  C_7
REMARK    3  A    between atoms: C_16  and  C_18
REMARK    4  A    between atoms: C_18  and  C_19
REMARK    5  A    between atoms: C_19  and  C_20
REMARK    6  A    between atoms: C_20  and  C_21
REMARK    7  A    between atoms: C_21  and  C_22
REMARK    8  A    between atoms: N_24  and  C_25
REMARK    9  A    between atoms: C_30  and  C_31
REMARK                            x       y       z     vdW  Elec       q    Type
REMARK                         _______ _______ _______ _____ _____    ______ ____
ROOT
ATOM      1  C   UNL     1       6.430  -5.616   3.553  0.00  0.00    +0.010 C 
ENDROOT
BRANCH   1   2
ATOM      2  C   UNL     1       4.987  -5.110   3.491  0.00  0.00    +0.096 C 
BRANCH   2   4
ATOM      3  N   UNL     1       3.813  -2.933   3.499  0.00  0.00    -0.285 N 
ATOM      4  C   UNL     1       4.981  -3.604   3.541  0.00  0.00    +0.217 C 
ATOM      5  O   UNL     1       6.028  -2.995   3.618  0.00  0.00    -0.275 OA
ATOM      6  H   UNL     1       2.980  -3.417   3.391  0.00  0.00    +0.155 HD
BRANCH   3  10
ATOM      7  C   UNL     1       3.784   1.224   3.832  0.00  0.00    +0.001 A 
ATOM      8  C   UNL     1       4.849   0.579   3.224  0.00  0.00    +0.002 A 
ATOM      9  C   UNL     1       4.861  -0.796   3.112  0.00  0.00    +0.024 A 
ATOM     10  C   UNL     1       3.803  -1.544   3.611  0.00  0.00    +0.046 A 
ATOM     11  C   UNL     1       2.724  -0.895   4.228  0.00  0.00    +0.058 A 
ATOM     12  C   UNL     1       2.723   0.498   4.329  0.00  0.00    +0.015 A 
BRANCH  11  13
ATOM     13  C   UNL     1       1.593  -1.678   4.761  0.00  0.00    +0.248 C 
ATOM     14  O   UNL     1       1.800  -2.606   5.519  0.00  0.00    -0.270 OA
ATOM     15  N   UNL     1       0.331  -1.365   4.408  0.00  0.00    -0.297 N 
ATOM     16  C   UNL     1      -0.800  -2.181   4.872  0.00  0.00    +0.108 C 
ATOM     17  C   UNL     1      -1.627  -2.613   3.656  0.00  0.00    +0.019 C 
ATOM     18  C   UNL     1      -2.033  -1.375   2.854  0.00  0.00    +0.003 C 
ATOM     19  C   UNL     1      -0.778  -0.656   2.353  0.00  0.00    +0.019 C 
ATOM     20  C   UNL     1       0.059  -0.201   3.554  0.00  0.00    +0.108 C 
ENDBRANCH  11  13
ENDBRANCH   3  10
ENDBRANCH   2   4
ENDBRANCH   1   2
BRANCH   1  21
ATOM     21  C   UNL     1       6.436  -7.146   3.503  0.00  0.00    +0.010 C 
BRANCH  21  22
ATOM     22  C   UNL     1       7.878  -7.652   3.565  0.00  0.00    +0.096 C 
BRANCH  22  23
ATOM     23  C   UNL     1       7.884  -9.158   3.515  0.00  0.00    +0.217 C 
ATOM     24  O   UNL     1       6.838  -9.767   3.438  0.00  0.00    -0.275 OA
ATOM     25  N   UNL     1       9.053  -9.829   3.557  0.00  0.00    -0.285 N 
ATOM     26  H   UNL     1       9.882  -9.350   3.708  0.00  0.00    +0.155 HD
BRANCH  25  27
ATOM     27  C   UNL     1       9.069 -11.211   3.384  0.00  0.00    +0.046 A 
ATOM     28  C   UNL     1       8.083 -11.831   2.627  0.00  0.00    +0.024 A 
ATOM     29  C   UNL     1       8.104 -13.200   2.452  0.00  0.00    +0.002 A 
ATOM     30  C   UNL     1       9.099 -13.967   3.037  0.00  0.00    +0.001 A 
ATOM     31  C   UNL     1      10.082 -13.369   3.797  0.00  0.00    +0.015 A 
ATOM     32  C   UNL     1      10.077 -11.984   3.978  0.00  0.00    +0.058 A 
BRANCH  32  33
ATOM     33  C   UNL     1      11.126 -11.339   4.790  0.00  0.00    +0.248 C 
ATOM     34  O   UNL     1      10.820 -10.539   5.653  0.00  0.00    -0.270 OA
ATOM     35  N   UNL     1      12.422 -11.636   4.575  0.00  0.00    -0.297 N 
ATOM     36  C   UNL     1      12.815 -12.514   3.465  0.00  0.00    +0.108 C 
ATOM     37  C   UNL     1      13.872 -11.788   2.619  0.00  0.00    +0.019 C 
ATOM     38  C   UNL     1      15.032 -11.358   3.520  0.00  0.00    +0.003 C 
ATOM     39  C   UNL     1      14.519 -10.387   4.586  0.00  0.00    +0.019 C 
ATOM     40  C   UNL     1      13.470 -11.093   5.451  0.00  0.00    +0.108 C 
ENDBRANCH  32  33
ENDBRANCH  25  27
ENDBRANCH  22  23
ENDBRANCH  21  22
ENDBRANCH   1  21
TORSDOF 9
