REMARK  Name = ZINC66883357
REMARK  9 active torsions:
REMARK  status: ('A' for Active; 'I' for Inactive)
REMARK    1  A    between atoms: C_1  and  C_2
REMARK    2  A    between atoms: C_2  and  N_3
REMARK    3  A    between atoms: N_3  and  C_4
REMARK    4  A    between atoms: N_3  and  S_24
REMARK    5  A    between atoms: N_7  and  C_10
REMARK    6  A    between atoms: C_10  and  C_11
REMARK    7  A    between atoms: C_20  and  O_23
REMARK    8  A    between atoms: C_21  and  C_22
REMARK    9  A    between atoms: S_24  and  C_27
REMARK                            x       y       z     vdW  Elec       q    Type
REMARK                         _______ _______ _______ _____ _____    ______ ____
ROOT
ATOM      1  C   UNL     1      -2.218  -0.708  -5.679  0.00  0.00    -0.042 C 
ENDROOT
BRANCH   1   2
ATOM      2  C   UNL     1      -1.965   0.571  -6.435  0.00  0.00    -0.047 A 
ATOM      3  C   UNL     1      -0.860   0.714  -7.213  0.00  0.00    +0.094 A 
ATOM      4  C   UNL     1      -0.645   1.919  -7.912  0.00  0.00    +0.337 A 
ATOM      5  O   UNL     1       0.349   2.034  -8.606  0.00  0.00    -0.245 OA
ATOM      6  O   UNL     1      -1.509   2.944  -7.832  0.00  0.00    -0.422 OA
ATOM      7  C   UNL     1      -2.626   2.867  -7.077  0.00  0.00    +0.146 A 
ATOM      8  C   UNL     1      -2.905   1.690  -6.357  0.00  0.00    +0.019 A 
ATOM      9  C   UNL     1      -4.064   1.605  -5.577  0.00  0.00    +0.015 A 
ATOM     10  C   UNL     1      -4.924   2.663  -5.522  0.00  0.00    +0.046 A 
ATOM     11  C   UNL     1      -4.655   3.829  -6.236  0.00  0.00    +0.123 A 
ATOM     12  C   UNL     1      -3.507   3.935  -7.005  0.00  0.00    +0.034 A 
ATOM     13  C   UNL     1      -3.226   5.200  -7.773  0.00  0.00    +0.051 C 
BRANCH  11  14
ATOM     14  O   UNL     1      -5.520   4.873  -6.171  0.00  0.00    -0.506 OA
ATOM     15  H   UNL     1      -5.329   5.498  -5.459  0.00  0.00    +0.292 HD
ENDBRANCH  11  14
ENDBRANCH   1   2
BRANCH   1  19
ATOM     16  C   UNL     1      -1.994  -0.653  -1.424  0.00  0.00    +0.076 C 
ATOM     17  C   UNL     1      -1.253  -1.744  -2.203  0.00  0.00    +0.002 C 
ATOM     18  C   UNL     1      -1.852  -1.856  -3.607  0.00  0.00    -0.077 C 
ATOM     19  N   UNL     1      -1.713  -0.573  -4.306  0.00  0.00    +0.382 N 
ATOM     20  C   UNL     1      -2.480   0.463  -3.603  0.00  0.00    -0.077 C 
ATOM     21  C   UNL     1      -1.906   0.664  -2.200  0.00  0.00    +0.002 C 
ATOM     22  H   UNL     1      -0.740  -0.309  -4.332  0.00  0.00    -0.081 HD
BRANCH  16  23
ATOM     23  N   UNL     1      -1.377  -0.488  -0.106  0.00  0.00    -0.179 NA
BRANCH  23  24
ATOM     24  S   UNL     1      -2.306  -0.584   1.262  0.00  0.00    +0.029 S 
ATOM     25  O   UNL     1      -3.358  -1.476   0.923  0.00  0.00    -0.158 OA
ATOM     26  O   UNL     1      -1.390  -0.904   2.300  0.00  0.00    -0.158 OA
ATOM     27  C   UNL     1      -2.960   1.091   1.500  0.00  0.00    +0.215 C 
ENDBRANCH  23  24
BRANCH  23  29
ATOM     28  C   UNL     1       0.812  -1.571   0.033  0.00  0.00    +0.022 C 
ATOM     29  C   UNL     1       0.063  -0.237   0.003  0.00  0.00    +0.106 C 
ENDBRANCH  23  29
ENDBRANCH  16  23
ENDBRANCH   1  19
TORSDOF 6
