REMARK  Name = ZINC39470427
REMARK  9 active torsions:
REMARK  status: ('A' for Active; 'I' for Inactive)
REMARK    1  A    between atoms: C_7  and  C_10
REMARK    2  A    between atoms: C_10  and  C_11
REMARK    3  A    between atoms: C_11  and  N_12
REMARK    4  A    between atoms: C_13  and  C_15
REMARK    5  A    between atoms: C_15  and  S_16
REMARK    6  A    between atoms: S_16  and  C_17
REMARK    7  A    between atoms: C_21  and  N_31
REMARK    8  A    between atoms: N_23  and  C_24
REMARK    9  A    between atoms: C_24  and  C_25
REMARK                            x       y       z     vdW  Elec       q    Type
REMARK                         _______ _______ _______ _____ _____    ______ ____
ROOT
ATOM      1  C   UNL     1      -6.245   9.648  -4.024  0.00  0.00    +0.198 C 
ATOM      2  N   UNL     1      -5.383  10.252  -2.983  0.00  0.00    -0.231 NA
ATOM      3  N   UNL     1      -6.304  11.052  -2.161  0.00  0.00    -0.254 NA
ATOM      4  C   UNL     1      -7.530  10.212  -2.116  0.00  0.00    +0.088 C 
ATOM      5  N   UNL     1      -7.616   9.621  -3.473  0.00  0.00    -0.274 NA
ATOM      6  H   UNL     1      -4.670  10.833  -3.396  0.00  0.00    +0.143 HD
ATOM      7  H   UNL     1      -6.493  11.944  -2.594  0.00  0.00    +0.140 HD
ENDROOT
BRANCH   4   8
ATOM      8  N   UNL     1      -8.711  11.040  -1.838  0.00  0.00    +0.399 N 
ATOM      9  C   UNL     1      -9.882  10.174  -1.653  0.00  0.00    -0.075 C 
ATOM     10  C   UNL     1     -11.129  11.034  -1.443  0.00  0.00    -0.018 C 
ATOM     11  C   UNL     1     -10.937  11.908  -0.200  0.00  0.00    -0.004 C 
ATOM     12  C   UNL     1      -9.672  12.753  -0.373  0.00  0.00    -0.018 C 
ATOM     13  C   UNL     1      -8.478  11.829  -0.622  0.00  0.00    -0.075 C 
ATOM     14  H   UNL     1      -8.875  11.662  -2.615  0.00  0.00    -0.077 HD
ENDBRANCH   4   8
BRANCH   1  15
ATOM     15  S   UNL     1      -5.689   7.960  -4.390  0.00  0.00    -0.116 S 
BRANCH  15  16
ATOM     16  C   UNL     1      -5.777   7.112  -2.789  0.00  0.00    +0.167 C 
BRANCH  16  18
ATOM     17  N   UNL     1      -5.319   4.854  -1.890  0.00  0.00    -0.314 N 
ATOM     18  C   UNL     1      -5.335   5.681  -2.954  0.00  0.00    +0.223 C 
ATOM     19  O   UNL     1      -4.995   5.273  -4.045  0.00  0.00    -0.275 OA
ATOM     20  H   UNL     1      -5.591   5.180  -1.018  0.00  0.00    +0.149 HD
BRANCH  17  21
ATOM     21  C   UNL     1      -4.889   3.462  -2.051  0.00  0.00    +0.109 C 
BRANCH  21  22
ATOM     22  C   UNL     1      -4.964   2.747  -0.700  0.00  0.00    +0.056 C 
BRANCH  22  29
ATOM     23  C   UNL     1      -0.764   0.664  -0.681  0.00  0.00    +0.001 A 
ATOM     24  C   UNL     1      -0.840  -0.708  -0.876  0.00  0.00    +0.002 A 
ATOM     25  C   UNL     1      -2.059  -1.327  -1.051  0.00  0.00    +0.026 A 
ATOM     26  C   UNL     1      -3.226  -0.571  -1.031  0.00  0.00    +0.047 A 
ATOM     27  N   UNL     1      -4.560  -0.883  -1.172  0.00  0.00    -0.360 N 
ATOM     28  C   UNL     1      -5.316   0.253  -1.070  0.00  0.00    +0.087 A 
ATOM     29  C   UNL     1      -4.522   1.315  -0.865  0.00  0.00    -0.021 A 
ATOM     30  C   UNL     1      -3.144   0.820  -0.833  0.00  0.00    +0.003 A 
ATOM     31  C   UNL     1      -1.899   1.425  -0.653  0.00  0.00    +0.010 A 
ATOM     32  H   UNL     1      -4.911  -1.774  -1.321  0.00  0.00    +0.165 HD
ENDBRANCH  22  29
ENDBRANCH  21  22
ENDBRANCH  17  21
ENDBRANCH  16  18
ENDBRANCH  15  16
ENDBRANCH   1  15
BRANCH   5  33
ATOM     33  C   UNL     1      -8.540  10.383  -4.322  0.00  0.00    +0.117 C 
BRANCH  33  34
ATOM     34  C   UNL     1      -8.786   9.618  -5.624  0.00  0.00    +0.132 C 
ATOM     35  C   UNL     1      -9.659  10.466  -6.574  0.00  0.00    +0.035 C 
ATOM     36  C   UNL     1     -10.596   9.398  -7.202  0.00  0.00    +0.031 C 
ATOM     37  C   UNL     1     -10.773   8.424  -6.010  0.00  0.00    +0.160 C 
ATOM     38  O   UNL     1      -9.496   8.405  -5.348  0.00  0.00    -0.375 OA
ENDBRANCH  33  34
ENDBRANCH   5  33
TORSDOF 9
