REMARK  Name = ZINC08606617
REMARK  9 active torsions:
REMARK  status: ('A' for Active; 'I' for Inactive)
REMARK    1  A    between atoms: C_1  and  C_2
REMARK    2  A    between atoms: C_2  and  O_3
REMARK    3  A    between atoms: O_3  and  C_4
REMARK    4  A    between atoms: C_8  and  C_10
REMARK    5  A    between atoms: C_13  and  C_27
REMARK    6  A    between atoms: N_20  and  C_21
REMARK    7  A    between atoms: C_21  and  C_22
REMARK    8  A    between atoms: C_29  and  C_34
REMARK    9  A    between atoms: C_32  and  O_33
REMARK                            x       y       z     vdW  Elec       q    Type
REMARK                         _______ _______ _______ _____ _____    ______ ____
ROOT
ATOM      1  C   UNL     1       2.143  -4.375   3.685  0.00  0.00    +0.142 C 
ATOM      2  C   UNL     1       1.227  -4.688   4.836  0.00  0.00    +0.035 A 
ATOM      3  C   UNL     1       0.291  -4.213   5.761  0.00  0.00    +0.102 A 
ATOM      4  N   UNL     1      -0.077  -5.234   6.509  0.00  0.00    -0.173 NA
ATOM      5  N   UNL     1       0.533  -6.306   6.149  0.00  0.00    -0.272 N 
ATOM      6  H   UNL     1       0.417  -7.178   6.559  0.00  0.00    +0.189 HD
ATOM      7  C   UNL     1       1.369  -6.036   5.103  0.00  0.00    +0.126 A 
ATOM      8  C   UNL     1       2.344  -6.598   4.161  0.00  0.00    +0.266 C 
ATOM      9  O   UNL     1       2.691  -7.763   4.133  0.00  0.00    -0.268 OA
ATOM     10  N   UNL     1       2.801  -5.640   3.332  0.00  0.00    -0.278 N 
ENDROOT
BRANCH   3  11
ATOM     11  C   UNL     1      -0.197  -2.816   5.878  0.00  0.00    +0.044 A 
ATOM     12  C   UNL     1       0.703  -1.754   5.832  0.00  0.00    +0.017 A 
ATOM     13  C   UNL     1       0.244  -0.457   5.942  0.00  0.00    -0.050 A 
ATOM     14  C   UNL     1      -1.108  -0.207   6.098  0.00  0.00    +0.007 A 
ATOM     15  C   UNL     1      -2.010  -1.254   6.145  0.00  0.00    +0.046 A 
ATOM     16  C   UNL     1      -1.563  -2.561   6.030  0.00  0.00    +0.126 A 
ATOM     17  C   UNL     1       1.219   0.691   5.893  0.00  0.00    +0.044 C 
BRANCH  16  18
ATOM     18  O   UNL     1      -2.449  -3.590   6.069  0.00  0.00    -0.506 OA
ATOM     19  H   UNL     1      -2.659  -3.894   6.963  0.00  0.00    +0.292 HD
ENDBRANCH  16  18
ENDBRANCH   3  11
BRANCH   1  24
ATOM     20  C   UNL     1       0.698  -2.057   1.074  0.00  0.00    +0.121 A 
ATOM     21  C   UNL     1      -0.119  -2.923   0.361  0.00  0.00    +0.045 A 
ATOM     22  C   UNL     1      -0.200  -4.252   0.726  0.00  0.00    +0.004 A 
ATOM     23  C   UNL     1       0.532  -4.721   1.801  0.00  0.00    +0.006 A 
ATOM     24  C   UNL     1       1.347  -3.861   2.513  0.00  0.00    -0.019 A 
ATOM     25  C   UNL     1       1.435  -2.531   2.149  0.00  0.00    +0.051 A 
BRANCH  20  26
ATOM     26  O   UNL     1       0.779  -0.749   0.717  0.00  0.00    -0.492 OA
BRANCH  26  28
ATOM     27  C   UNL     1       0.213   1.163  -0.650  0.00  0.00    +0.048 C 
ATOM     28  C   UNL     1      -0.008  -0.331  -0.400  0.00  0.00    +0.225 C 
ENDBRANCH  26  28
ENDBRANCH  20  26
ENDBRANCH   1  24
BRANCH  10  29
ATOM     29  C   UNL     1       3.785  -5.827   2.262  0.00  0.00    +0.183 C 
BRANCH  29  30
ATOM     30  C   UNL     1       5.171  -5.600   2.809  0.00  0.00    +0.122 A 
ATOM     31  C   UNL     1       5.970  -6.541   3.342  0.00  0.00    +0.046 A 
ATOM     32  C   UNL     1       7.168  -5.893   3.723  0.00  0.00    +0.041 A 
ATOM     33  C   UNL     1       7.029  -4.595   3.400  0.00  0.00    +0.195 A 
ATOM     34  O   UNL     1       5.819  -4.424   2.841  0.00  0.00    -0.466 OA
ENDBRANCH  29  30
ENDBRANCH  10  29
TORSDOF 7
