REMARK  Name = ZINC36016895
REMARK  12 active torsions:
REMARK  status: ('A' for Active; 'I' for Inactive)
REMARK    1  A    between atoms: C_1  and  C_2
REMARK    2  A    between atoms: C_2  and  O_3
REMARK    3  A    between atoms: O_3  and  C_4
REMARK    4  A    between atoms: C_4  and  C_6
REMARK    5  A    between atoms: C_7  and  C_22
REMARK    6  A    between atoms: N_8  and  C_19
REMARK    7  A    between atoms: C_12  and  C_14
REMARK    8  A    between atoms: C_19  and  C_20
REMARK    9  A    between atoms: C_22  and  N_23
REMARK   10  A    between atoms: N_31  and  C_32
REMARK   11  A    between atoms: C_32  and  C_33
REMARK   12  A    between atoms: C_32  and  C_34
REMARK                            x       y       z     vdW  Elec       q    Type
REMARK                         _______ _______ _______ _____ _____    ______ ____
ROOT
ATOM      1  C   UNL     1       1.540  -2.415   2.081  0.00  0.00    +0.080 C 
ATOM      2  C   UNL     1       1.404  -3.694   2.493  0.00  0.00    +0.041 C 
ATOM      3  N   UNL     1       1.952  -4.117   3.670  0.00  0.00    -0.254 N 
ATOM      4  C   UNL     1       2.650  -3.323   4.492  0.00  0.00    +0.307 C 
ATOM      5  O   UNL     1       3.100  -3.791   5.519  0.00  0.00    -0.252 OA
ATOM      6  N   UNL     1       2.870  -2.022   4.216  0.00  0.00    -0.288 N 
ATOM      7  C   UNL     1       2.325  -1.469   2.965  0.00  0.00    +0.144 C 
ATOM      8  H   UNL     1       3.379  -1.465   4.826  0.00  0.00    +0.151 HD
ENDROOT
BRANCH   7   9
ATOM      9  C   UNL     1       3.472  -0.920   2.156  0.00  0.00    -0.015 A 
ATOM     10  C   UNL     1       3.394   0.339   1.592  0.00  0.00    +0.013 A 
ATOM     11  C   UNL     1       4.443   0.803   0.870  0.00  0.00    +0.045 A 
ATOM     12  S   UNL     1       5.591  -0.561   0.971  0.00  0.00    -0.105 S 
ATOM     13  C   UNL     1       4.598  -1.653   1.974  0.00  0.00    +0.051 A 
ENDBRANCH   7   9
BRANCH   1  14
ATOM     14  C   UNL     1       0.973  -1.976   0.861  0.00  0.00    +0.339 C 
ATOM     15  O   UNL     1       0.377  -2.763   0.149  0.00  0.00    -0.245 OA
BRANCH  14  16
ATOM     16  O   UNL     1       1.092  -0.685   0.488  0.00  0.00    -0.462 OA
BRANCH  16  18
ATOM     17  C   UNL     1       0.733   1.179  -1.007  0.00  0.00    +0.048 C 
ATOM     18  C   UNL     1       0.495  -0.311  -0.755  0.00  0.00    +0.229 C 
ENDBRANCH  16  18
ENDBRANCH  14  16
ENDBRANCH   1  14
BRANCH   3  19
ATOM     19  C   UNL     1       1.765  -5.518   4.056  0.00  0.00    +0.141 C 
BRANCH  19  20
ATOM     20  C   UNL     1       2.947  -6.329   3.590  0.00  0.00    -0.015 C 
ATOM     21  C   UNL     1       3.613  -7.066   4.444  0.00  0.00    +0.005 C 
ENDBRANCH  19  20
ENDBRANCH   3  19
BRANCH   2  22
ATOM     22  C   UNL     1       0.634  -4.670   1.641  0.00  0.00    +0.136 C 
BRANCH  22  23
ATOM     23  N   UNL     1      -0.762  -4.721   2.094  0.00  0.00    -0.294 NA
ATOM     24  C   UNL     1      -1.469  -3.477   1.761  0.00  0.00    +0.104 C 
ATOM     25  C   UNL     1      -2.859  -3.495   2.405  0.00  0.00    +0.124 C 
ATOM     26  N   UNL     1      -3.547  -4.729   1.997  0.00  0.00    -0.283 N 
ATOM     27  C   UNL     1      -2.844  -6.009   2.173  0.00  0.00    +0.124 C 
ATOM     28  C   UNL     1      -1.454  -5.891   1.538  0.00  0.00    +0.104 C 
ATOM     29  C   UNL     1      -4.790  -4.689   1.476  0.00  0.00    +0.302 C 
ATOM     30  O   UNL     1      -5.320  -3.618   1.251  0.00  0.00    -0.253 OA
ATOM     31  N   UNL     1      -5.444  -5.835   1.204  0.00  0.00    -0.297 N 
ATOM     32  H   UNL     1      -5.052  -6.688   1.452  0.00  0.00    +0.150 HD
BRANCH  31  33
ATOM     33  C   UNL     1      -6.747  -5.795   0.536  0.00  0.00    +0.068 C 
ATOM     34  C   UNL     1      -6.985  -7.115  -0.199  0.00  0.00    +0.027 C 
ATOM     35  C   UNL     1      -7.848  -5.584   1.577  0.00  0.00    +0.027 C 
ENDBRANCH  31  33
ENDBRANCH  22  23
ENDBRANCH   2  22
TORSDOF 9
