REMARK  Name = ZINC15709429
REMARK  11 active torsions:
REMARK  status: ('A' for Active; 'I' for Inactive)
REMARK    1  A    between atoms: C_1  and  C_2
REMARK    2  A    between atoms: C_5  and  N_8
REMARK    3  A    between atoms: C_9  and  O_11
REMARK    4  A    between atoms: O_11  and  C_12
REMARK    5  A    between atoms: C_16  and  C_38
REMARK    6  A    between atoms: C_19  and  C_20
REMARK    7  A    between atoms: C_19  and  C_21
REMARK    8  A    between atoms: C_21  and  O_22
REMARK    9  A    between atoms: C_25  and  O_37
REMARK   10  A    between atoms: C_27  and  C_29
REMARK   11  A    between atoms: C_29  and  C_30
REMARK                            x       y       z     vdW  Elec       q    Type
REMARK                         _______ _______ _______ _____ _____    ______ ____
ROOT
ATOM      1  C   UNL     1      -3.402  -4.170  -1.242  0.00  0.00    +0.186 C 
ATOM      2  C   UNL     1      -2.518  -4.521  -0.044  0.00  0.00    +0.046 C 
ATOM      3  C   UNL     1      -1.300  -3.596  -0.020  0.00  0.00    +0.011 C 
ATOM      4  C   UNL     1      -1.765  -2.143   0.099  0.00  0.00    -0.023 C 
ATOM      5  C   UNL     1      -2.649  -1.792  -1.099  0.00  0.00    +0.007 C 
ATOM      6  C   UNL     1      -3.868  -2.717  -1.123  0.00  0.00    +0.031 C 
ATOM      7  C   UNL     1      -4.752  -2.365  -2.321  0.00  0.00    +0.017 C 
ATOM      8  C   UNL     1      -1.850  -1.967  -2.392  0.00  0.00    +0.007 C 
ATOM      9  C   UNL     1      -0.632  -1.042  -2.368  0.00  0.00    +0.032 C 
ATOM     10  C   UNL     1       0.252  -1.393  -1.170  0.00  0.00    +0.119 C 
ATOM     11  C   UNL     1      -0.547  -1.218   0.123  0.00  0.00    +0.032 C 
ATOM     12  C   UNL     1      -2.564  -1.968   1.392  0.00  0.00    +0.012 C 
ENDROOT
BRANCH  10  13
ATOM     13  O   UNL     1       1.390  -0.529  -1.148  0.00  0.00    -0.391 OA
ATOM     14  H   UNL     1       1.944  -0.587  -1.938  0.00  0.00    +0.210 HD
ENDBRANCH  10  13
BRANCH   1  15
ATOM     15  O   UNL     1      -4.558  -5.048  -1.264  0.00  0.00    -0.446 OA
BRANCH  15  17
ATOM     16  N   UNL     1      -5.473  -7.060  -2.013  0.00  0.00    -0.251 N 
ATOM     17  C   UNL     1      -4.437  -6.200  -1.952  0.00  0.00    +0.405 C 
ATOM     18  O   UNL     1      -3.395  -6.463  -2.517  0.00  0.00    -0.226 OA
ATOM     19  H   UNL     1      -6.279  -6.886  -1.501  0.00  0.00    +0.158 HD
BRANCH  16  24
ATOM     20  C   UNL     1      -5.121 -11.698  -5.261  0.00  0.00    +0.044 C 
ATOM     21  C   UNL     1      -5.215 -10.466  -4.399  0.00  0.00    -0.050 A 
ATOM     22  C   UNL     1      -6.024 -10.469  -3.277  0.00  0.00    +0.005 A 
ATOM     23  C   UNL     1      -6.112  -9.341  -2.484  0.00  0.00    +0.023 A 
ATOM     24  C   UNL     1      -5.387  -8.204  -2.814  0.00  0.00    +0.036 A 
ATOM     25  C   UNL     1      -4.580  -8.202  -3.944  0.00  0.00    +0.023 A 
ATOM     26  C   UNL     1      -4.492  -9.335  -4.730  0.00  0.00    +0.005 A 
ENDBRANCH  16  24
ENDBRANCH  15  17
ENDBRANCH   1  15
BRANCH   6  27
ATOM     27  C   UNL     1      -4.667  -2.542   0.170  0.00  0.00    +0.166 C 
BRANCH  27  28
ATOM     28  O   UNL     1      -5.902  -3.254   0.067  0.00  0.00    -0.394 OA
ATOM     29  H   UNL     1      -6.461  -3.187   0.853  0.00  0.00    +0.209 HD
ENDBRANCH  27  28
ENDBRANCH   6  27
BRANCH  11  30
ATOM     30  C   UNL     1      -1.012   0.235   0.241  0.00  0.00    +0.102 C 
BRANCH  30  31
ATOM     31  C   UNL     1       0.155   1.107   0.625  0.00  0.00    +0.216 C 
ATOM     32  O   UNL     1       1.200   0.601   0.975  0.00  0.00    -0.276 OA
ATOM     33  N   UNL     1       0.038   2.449   0.581  0.00  0.00    -0.301 N 
ATOM     34  C   UNL     1      -1.164   3.190   0.172  0.00  0.00    +0.108 C 
ATOM     35  C   UNL     1      -0.825   4.694   0.254  0.00  0.00    +0.020 C 
ATOM     36  C   UNL     1       0.723   4.705   0.153  0.00  0.00    +0.020 C 
ATOM     37  C   UNL     1       1.095   3.416   0.928  0.00  0.00    +0.108 C 
ENDBRANCH  30  31
ENDBRANCH  11  30
TORSDOF 8
