REMARK  Name = ZINC39696501
REMARK  11 active torsions:
REMARK  status: ('A' for Active; 'I' for Inactive)
REMARK    1  A    between atoms: C_1  and  C_2
REMARK    2  A    between atoms: C_2  and  C_3
REMARK    3  A    between atoms: C_2  and  C_4
REMARK    4  A    between atoms: C_2  and  S_5
REMARK    5  A    between atoms: S_5  and  C_6
REMARK    6  A    between atoms: C_6  and  C_7
REMARK    7  A    between atoms: C_7  and  N_8
REMARK    8  A    between atoms: C_9  and  C_11
REMARK    9  A    between atoms: C_22  and  C_24
REMARK   10  A    between atoms: C_29  and  S_30
REMARK   11  A    between atoms: S_30  and  C_31
REMARK                            x       y       z     vdW  Elec       q    Type
REMARK                         _______ _______ _______ _____ _____    ______ ____
ROOT
ATOM      1  C   UNL     1       6.991   0.613  -3.295  0.00  0.00    +0.100 C 
ATOM      2  C   UNL     1       7.671   0.152  -1.986  0.00  0.00    +0.121 C 
ATOM      3  N   UNL     1       8.470  -1.034  -2.377  0.00  0.00    -0.296 N 
ATOM      4  C   UNL     1       9.030  -0.680  -3.703  0.00  0.00    +0.115 C 
ATOM      5  C   UNL     1       7.888   0.068  -4.419  0.00  0.00    -0.004 C 
ATOM      6  C   UNL     1       7.100  -0.895  -5.303  0.00  0.00    -0.010 C 
ATOM      7  C   UNL     1       7.996  -1.380  -6.446  0.00  0.00    -0.082 C 
ATOM      8  N   UNL     1       8.456  -0.228  -7.231  0.00  0.00    +0.379 N 
ATOM      9  C   UNL     1       9.290   0.646  -6.397  0.00  0.00    -0.082 C 
ATOM     10  C   UNL     1       8.449   1.216  -5.252  0.00  0.00    -0.010 C 
ATOM     11  C   UNL     1       8.647  -2.175  -1.683  0.00  0.00    +0.249 C 
ATOM     12  O   UNL     1       8.039  -2.357  -0.645  0.00  0.00    -0.270 OA
ATOM     13  H   UNL     1       8.996  -0.554  -8.019  0.00  0.00    -0.086 HD
ATOM     14  H   UNL     1       7.658   0.290  -7.566  0.00  0.00    -0.086 HD
ENDROOT
BRANCH  11  15
ATOM     15  C   UNL     1       9.576  -3.205  -2.182  0.00  0.00    +0.069 A 
ATOM     16  C   UNL     1      10.752  -2.840  -2.848  0.00  0.00    +0.017 A 
ATOM     17  C   UNL     1      11.592  -3.844  -3.296  0.00  0.00    +0.020 A 
ATOM     18  C   UNL     1      11.251  -5.167  -3.077  0.00  0.00    +0.112 A 
ATOM     19  N   UNL     1      10.139  -5.491  -2.448  0.00  0.00    -0.248 NA
ATOM     20  C   UNL     1       9.301  -4.570  -1.992  0.00  0.00    +0.114 A 
BRANCH  20  21
ATOM     21  S   UNL     1       7.832  -5.060  -1.152  0.00  0.00    -0.069 S 
BRANCH  21  22
ATOM     22  C   UNL     1       7.834  -6.817  -1.280  0.00  0.00    +0.014 A 
ATOM     23  C   UNL     1       8.351  -7.590  -0.248  0.00  0.00    +0.015 A 
ATOM     24  C   UNL     1       8.351  -8.967  -0.351  0.00  0.00    +0.001 A 
ATOM     25  C   UNL     1       7.836  -9.577  -1.481  0.00  0.00    +0.000 A 
ATOM     26  C   UNL     1       7.320  -8.811  -2.510  0.00  0.00    +0.001 A 
ATOM     27  C   UNL     1       7.312  -7.434  -2.411  0.00  0.00    +0.015 A 
ENDBRANCH  21  22
ENDBRANCH  20  21
ENDBRANCH  11  15
BRANCH   1  29
ATOM     28  N   UNL     1       4.638   0.707  -4.050  0.00  0.00    -0.314 N 
ATOM     29  C   UNL     1       5.605   0.031  -3.399  0.00  0.00    +0.218 C 
ATOM     30  O   UNL     1       5.361  -1.046  -2.898  0.00  0.00    -0.275 OA
ATOM     31  H   UNL     1       4.833   1.568  -4.450  0.00  0.00    +0.149 HD
BRANCH  28  32
ATOM     32  C   UNL     1       3.290   0.140  -4.151  0.00  0.00    +0.115 C 
BRANCH  32  33
ATOM     33  C   UNL     1       2.391   1.101  -4.933  0.00  0.00    +0.088 C 
BRANCH  33  34
ATOM     34  S   UNL     1       0.723   0.399  -5.058  0.00  0.00    -0.153 S 
BRANCH  34  36
ATOM     35  C   UNL     1       0.444   1.834  -7.371  0.00  0.00    +0.022 C 
ATOM     36  C   UNL     1      -0.206   1.642  -5.999  0.00  0.00    +0.008 C 
ATOM     37  C   UNL     1      -0.194   2.970  -5.239  0.00  0.00    +0.022 C 
ATOM     38  C   UNL     1      -1.650   1.170  -6.180  0.00  0.00    +0.022 C 
ENDBRANCH  34  36
ENDBRANCH  33  34
ENDBRANCH  32  33
ENDBRANCH  28  32
ENDBRANCH   1  29
TORSDOF 8
