REMARK  Name = ZINC16515542
REMARK  12 active torsions:
REMARK  status: ('A' for Active; 'I' for Inactive)
REMARK    1  A    between atoms: C_1  and  C_2
REMARK    2  A    between atoms: C_2  and  O_3
REMARK    3  A    between atoms: O_3  and  C_4
REMARK    4  A    between atoms: C_4  and  C_6
REMARK    5  A    between atoms: C_7  and  C_34
REMARK    6  A    between atoms: C_8  and  C_30
REMARK    7  A    between atoms: C_10  and  N_11
REMARK    8  A    between atoms: C_12  and  C_14
REMARK    9  A    between atoms: C_14  and  N_15
REMARK   10  A    between atoms: N_18  and  C_21
REMARK   11  A    between atoms: C_24  and  N_27
REMARK   12  A    between atoms: N_32  and  C_33
REMARK                            x       y       z     vdW  Elec       q    Type
REMARK                         _______ _______ _______ _____ _____    ______ ____
ROOT
ATOM      1  N   UNL     1      -0.579  -2.459  -3.947  0.00  0.00    -0.278 N 
ATOM      2  C   UNL     1      -1.103  -2.787  -5.144  0.00  0.00    +0.232 C 
ATOM      3  O   UNL     1      -0.391  -3.241  -6.014  0.00  0.00    -0.274 OA
ATOM      4  H   UNL     1      -1.148  -2.095  -3.251  0.00  0.00    +0.155 HD
ENDROOT
BRANCH   1   9
ATOM      5  C   UNL     1       1.486  -2.360  -2.545  0.00  0.00    +0.091 A 
ATOM      6  C   UNL     1       2.847  -2.635  -2.544  0.00  0.00    -0.015 A 
ATOM      7  C   UNL     1       3.362  -3.154  -3.701  0.00  0.00    +0.079 A 
ATOM      8  S   UNL     1       1.933  -3.245  -4.761  0.00  0.00    -0.068 S 
ATOM      9  C   UNL     1       0.770  -2.640  -3.711  0.00  0.00    +0.087 A 
ATOM     10  C   UNL     1       3.709  -2.376  -1.336  0.00  0.00    +0.046 C 
BRANCH   7  11
ATOM     11  C   UNL     1       4.744  -3.538  -3.994  0.00  0.00    +0.251 C 
ATOM     12  O   UNL     1       5.606  -3.408  -3.145  0.00  0.00    -0.270 OA
ATOM     13  N   UNL     1       5.062  -4.037  -5.206  0.00  0.00    -0.314 N 
ATOM     14  C   UNL     1       6.445  -4.422  -5.499  0.00  0.00    +0.128 C 
ATOM     15  H   UNL     1       4.376  -4.141  -5.883  0.00  0.00    +0.149 HD
ENDBRANCH   7  11
BRANCH   5  16
ATOM     16  C   UNL     1       0.822  -1.802  -1.362  0.00  0.00    +0.342 C 
ATOM     17  O   UNL     1       0.354  -2.544  -0.520  0.00  0.00    -0.245 OA
BRANCH  16  18
ATOM     18  O   UNL     1       0.731  -0.465  -1.208  0.00  0.00    -0.461 OA
BRANCH  18  20
ATOM     19  C   UNL     1       0.067   1.539  -0.032  0.00  0.00    +0.048 C 
ATOM     20  C   UNL     1       0.072   0.009  -0.032  0.00  0.00    +0.229 C 
ENDBRANCH  18  20
ENDBRANCH  16  18
ENDBRANCH   5  16
ENDBRANCH   1   9
BRANCH   2  21
ATOM     21  C   UNL     1      -2.575  -2.590  -5.401  0.00  0.00    +0.181 C 
BRANCH  21  22
ATOM     22  N   UNL     1      -2.895  -3.020  -6.769  0.00  0.00    -0.291 NA
ATOM     23  C   UNL     1      -2.241  -2.155  -7.759  0.00  0.00    +0.104 C 
ATOM     24  C   UNL     1      -2.449  -2.740  -9.160  0.00  0.00    +0.120 C 
ATOM     25  N   UNL     1      -3.890  -2.947  -9.371  0.00  0.00    -0.327 N 
ATOM     26  C   UNL     1      -4.643  -3.690  -8.348  0.00  0.00    +0.120 C 
ATOM     27  C   UNL     1      -4.348  -3.067  -6.979  0.00  0.00    +0.104 C 
BRANCH  25  28
ATOM     28  C   UNL     1      -4.527  -2.452 -10.511  0.00  0.00    +0.030 A 
ATOM     29  C   UNL     1      -3.826  -1.658 -11.410  0.00  0.00    +0.025 A 
ATOM     30  C   UNL     1      -4.458  -1.170 -12.536  0.00  0.00    +0.034 A 
ATOM     31  C   UNL     1      -5.787  -1.472 -12.771  0.00  0.00    +0.126 A 
ATOM     32  C   UNL     1      -6.488  -2.262 -11.878  0.00  0.00    +0.034 A 
ATOM     33  C   UNL     1      -5.860  -2.757 -10.752  0.00  0.00    +0.025 A 
BRANCH  31  34
ATOM     34  N   UNL     1      -6.462  -0.947 -13.979  0.00  0.00    +0.056 N 
ATOM     35  O   UNL     1      -5.851  -0.255 -14.760  0.00  0.00    -0.126 OA
ATOM     36  O   UNL     1      -7.624  -1.210 -14.185  0.00  0.00    -0.126 OA
ENDBRANCH  31  34
ENDBRANCH  25  28
ENDBRANCH  21  22
ENDBRANCH   2  21
TORSDOF 9
