REMARK  Name = ZINC35314283
REMARK  16 active torsions:
REMARK  status: ('A' for Active; 'I' for Inactive)
REMARK    1  A    between atoms: C_1  and  C_2
REMARK    2  A    between atoms: C_2  and  C_4
REMARK    3  A    between atoms: C_2  and  C_42
REMARK    4  A    between atoms: C_4  and  C_5
REMARK    5  A    between atoms: C_5  and  C_6
REMARK    6  A    between atoms: C_6  and  O_8
REMARK    7  A    between atoms: O_8  and  C_9
REMARK    8  A    between atoms: C_20  and  O_38
REMARK    9  A    between atoms: C_24  and  C_37
REMARK   10  A    between atoms: C_29  and  C_36
REMARK   11  A    between atoms: C_30  and  N_32
REMARK   12  A    between atoms: C_33  and  C_35
REMARK   13  A    between atoms: O_38  and  C_39
REMARK   14  A    between atoms: C_39  and  C_41
REMARK   15  A    between atoms: C_42  and  N_43
REMARK   16  A    between atoms: C_44  and  C_46
REMARK                            x       y       z     vdW  Elec       q    Type
REMARK                         _______ _______ _______ _____ _____    ______ ____
ROOT
ATOM      1  C   UNL     1       0.810  -0.834  -6.075  0.00  0.00    +0.197 C 
ATOM      2  C   UNL     1       1.788   0.230  -6.592  0.00  0.00    +0.051 C 
ATOM      3  C   UNL     1       1.248   0.721  -7.954  0.00  0.00    +0.004 C 
ATOM      4  C   UNL     1       0.611   2.089  -7.761  0.00  0.00    +0.000 C 
ATOM      5  C   UNL     1      -0.193   2.170  -6.466  0.00  0.00    +0.031 C 
ATOM      6  C   UNL     1      -0.842   3.523  -6.368  0.00  0.00    -0.027 C 
ATOM      7  C   UNL     1      -1.129   4.254  -7.404  0.00  0.00    -0.064 C 
ATOM      8  C   UNL     1      -1.814   5.589  -7.163  0.00  0.00    +0.075 C 
ATOM      9  C   UNL     1      -3.076   5.643  -8.029  0.00  0.00    +0.180 C 
ATOM     10  C   UNL     1      -2.701   5.409  -9.493  0.00  0.00    +0.046 C 
ATOM     11  C   UNL     1      -2.098   4.017  -9.670  0.00  0.00    +0.015 C 
ATOM     12  C   UNL     1      -0.837   3.855  -8.821  0.00  0.00    -0.008 C 
ATOM     13  C   UNL     1      -0.293   2.443  -8.939  0.00  0.00    +0.003 C 
ATOM     14  C   UNL     1      -1.423   1.412  -8.989  0.00  0.00    +0.005 C 
ATOM     15  C   UNL     1      -0.816   0.060  -9.344  0.00  0.00    +0.009 C 
ATOM     16  C   UNL     1       0.312  -0.378  -8.444  0.00  0.00    -0.007 C 
ATOM     17  C   UNL     1      -0.157  -1.176  -7.223  0.00  0.00    +0.120 C 
ATOM     18  C   UNL     1       1.176  -1.349  -9.295  0.00  0.00    +0.013 C 
ATOM     19  C   UNL     1       0.235   4.805  -9.373  0.00  0.00    +0.016 C 
ENDROOT
BRANCH  17  20
ATOM     20  N   UNL     1      -1.543  -0.889  -6.857  0.00  0.00    -0.309 N 
ATOM     21  C   UNL     1      -2.274  -1.815  -6.205  0.00  0.00    +0.210 C 
ATOM     22  O   UNL     1      -1.782  -2.886  -5.921  0.00  0.00    -0.276 OA
ATOM     23  C   UNL     1      -3.702  -1.518  -5.828  0.00  0.00    +0.109 C 
ATOM     24  H   UNL     1      -1.937  -0.032  -7.084  0.00  0.00    +0.149 HD
ENDBRANCH  17  20
BRANCH   1  25
ATOM     25  O   UNL     1       0.087  -0.344  -4.943  0.00  0.00    -0.459 OA
BRANCH  25  26
ATOM     26  C   UNL     1       0.616  -0.583  -3.733  0.00  0.00    +0.307 C 
ATOM     27  O   UNL     1       1.658  -1.188  -3.638  0.00  0.00    -0.251 OA
BRANCH  26  28
ATOM     28  C   UNL     1      -0.089  -0.097  -2.493  0.00  0.00    +0.121 C 
BRANCH  28  29
ATOM     29  C   UNL     1       0.718  -0.497  -1.257  0.00  0.00    +0.016 C 
BRANCH  29  31
ATOM     30  C   UNL     1      -0.019   1.526   0.010  0.00  0.00    +0.009 C 
ATOM     31  C   UNL     1       0.002  -0.004   0.002  0.00  0.00    +0.004 C 
BRANCH  31  32
ATOM     32  C   UNL     1       0.742  -0.511   1.242  0.00  0.00    +0.107 C 
BRANCH  32  33
ATOM     33  N   UNL     1      -0.008  -0.140   2.444  0.00  0.00    -0.315 N 
ATOM     34  C   UNL     1       0.457  -0.484   3.661  0.00  0.00    +0.210 C 
ATOM     35  O   UNL     1       1.496  -1.101   3.761  0.00  0.00    -0.276 OA
ATOM     36  C   UNL     1      -0.315  -0.103   4.898  0.00  0.00    +0.109 C 
ATOM     37  H   UNL     1      -0.840   0.353   2.364  0.00  0.00    +0.149 HD
ENDBRANCH  32  33
ENDBRANCH  31  32
ENDBRANCH  29  31
ENDBRANCH  28  29
ENDBRANCH  26  28
ENDBRANCH  25  26
ENDBRANCH   1  25
BRANCH   9  38
ATOM     38  O   UNL     1      -3.990   4.631  -7.601  0.00  0.00    -0.461 OA
BRANCH  38  39
ATOM     39  C   UNL     1      -4.875   4.972  -6.651  0.00  0.00    +0.304 C 
ATOM     40  O   UNL     1      -4.872   6.092  -6.197  0.00  0.00    -0.251 OA
ATOM     41  C   UNL     1      -5.870   3.958  -6.149  0.00  0.00    +0.136 C 
ENDBRANCH  38  39
ENDBRANCH   9  38
TORSDOF 10
