REMARK  Name = ZINC30005983
REMARK  7 active torsions:
REMARK  status: ('A' for Active; 'I' for Inactive)
REMARK    1  A    between atoms: C_1  and  C_2
REMARK    2  A    between atoms: C_2  and  C_4
REMARK    3  A    between atoms: C_2  and  N_17
REMARK    4  A    between atoms: N_6  and  C_7
REMARK    5  A    between atoms: C_11  and  N_13
REMARK    6  A    between atoms: C_14  and  C_16
REMARK    7  A    between atoms: N_17  and  C_18
REMARK                            x       y       z     vdW  Elec       q    Type
REMARK                         _______ _______ _______ _____ _____    ______ ____
ROOT
ATOM      1  C   UNL     1      -5.209  -7.059   1.799  0.00  0.00    +0.038 C 
ATOM      2  C   UNL     1      -4.503  -7.443   0.497  0.00  0.00    +0.154 C 
ENDROOT
BRANCH   2   3
ATOM      3  C   UNL     1      -3.277  -6.586   0.318  0.00  0.00    +0.237 C 
ATOM      4  O   UNL     1      -2.181  -7.101   0.245  0.00  0.00    -0.273 OA
ATOM      5  N   UNL     1      -3.397  -5.246   0.239  0.00  0.00    -0.284 N 
ATOM      6  H   UNL     1      -4.395  -4.783   0.229  0.00  0.00    +0.155 HD
BRANCH   5   7
ATOM      7  C   UNL     1      -2.253  -4.443   0.171  0.00  0.00    +0.035 A 
ATOM      8  C   UNL     1      -2.239  -3.198   0.788  0.00  0.00    +0.023 A 
ATOM      9  C   UNL     1      -1.110  -2.405   0.721  0.00  0.00    +0.004 A 
ATOM     10  C   UNL     1       0.009  -2.847   0.040  0.00  0.00    +0.023 A 
ATOM     11  C   UNL     1       0.001  -4.090  -0.579  0.00  0.00    +0.035 A 
ATOM     12  C   UNL     1      -1.134  -4.887  -0.518  0.00  0.00    +0.046 A 
BRANCH  11  13
ATOM     13  N   UNL     1       1.134  -4.537  -1.267  0.00  0.00    -0.286 N 
ATOM     14  C   UNL     1       2.364  -4.223  -0.816  0.00  0.00    +0.214 C 
ATOM     15  O   UNL     1       2.490  -3.484   0.138  0.00  0.00    -0.276 OA
ATOM     16  C   UNL     1       3.584  -4.789  -1.496  0.00  0.00    +0.109 C 
ATOM     17  H   UNL     1       1.021  -5.145  -2.177  0.00  0.00    +0.155 HD
ENDBRANCH  11  13
ENDBRANCH   5   7
ENDBRANCH   2   3
BRANCH   2  18
ATOM     18  N   UNL     1      -4.109  -8.853   0.553  0.00  0.00    -0.333 N 
ATOM     19  H   UNL     1      -3.094  -9.128   0.877  0.00  0.00    +0.147 HD
BRANCH  18  20
ATOM     20  C   UNL     1      -5.023  -9.850   0.196  0.00  0.00    +0.031 A 
ATOM     21  C   UNL     1      -6.306  -9.504  -0.208  0.00  0.00    +0.027 A 
ATOM     22  C   UNL     1      -7.207 -10.487  -0.567  0.00  0.00    +0.051 A 
ATOM     23  C   UNL     1      -6.839 -11.822  -0.515  0.00  0.00    +0.173 A 
ATOM     24  C   UNL     1      -5.555 -12.172  -0.106  0.00  0.00    +0.174 A 
ATOM     25  C   UNL     1      -4.649 -11.186   0.249  0.00  0.00    +0.072 A 
ATOM     26  O   UNL     1      -5.442 -13.533  -0.141  0.00  0.00    -0.395 OA
ATOM     27  C   UNL     1      -6.793 -14.030  -0.182  0.00  0.00    +0.589 C 
ATOM     28  O   UNL     1      -7.530 -12.963  -0.807  0.00  0.00    -0.395 OA
ATOM     29  F   UNL     1      -7.270 -14.265   1.112  0.00  0.00    -0.125 F 
ATOM     30  F   UNL     1      -6.867 -15.196  -0.952  0.00  0.00    -0.125 F 
ENDBRANCH  18  20
ENDBRANCH   2  18
TORSDOF 5
