REMARK  Name = ZINC39040578
REMARK  8 active torsions:
REMARK  status: ('A' for Active; 'I' for Inactive)
REMARK    1  A    between atoms: C_1  and  C_2
REMARK    2  A    between atoms: C_2  and  N_3
REMARK    3  A    between atoms: C_5  and  C_18
REMARK    4  A    between atoms: N_20  and  C_21
REMARK    5  A    between atoms: C_21  and  C_22
REMARK    6  A    between atoms: N_24  and  C_25
REMARK    7  A    between atoms: C_25  and  C_26
REMARK    8  A    between atoms: C_26  and  C_27
REMARK                            x       y       z     vdW  Elec       q    Type
REMARK                         _______ _______ _______ _____ _____    ______ ____
ROOT
ATOM      1  C   UNL     1      -0.054  -3.172  -2.009  0.00  0.00    +0.226 C 
ATOM      2  O   UNL     1      -0.582  -2.876  -0.958  0.00  0.00    -0.275 OA
ATOM      3  N   UNL     1       0.199  -4.464  -2.296  0.00  0.00    -0.306 N 
ATOM      4  H   UNL     1       0.621  -4.701  -3.137  0.00  0.00    +0.149 HD
ENDROOT
BRANCH   1   7
ATOM      5  N   UNL     1       0.688  -0.476  -1.203  0.00  0.00    -0.328 N 
ATOM      6  C   UNL     1      -0.073  -0.720  -2.435  0.00  0.00    +0.126 C 
ATOM      7  C   UNL     1       0.318  -2.095  -2.995  0.00  0.00    +0.163 C 
ATOM      8  C   UNL     1       1.817  -2.095  -3.216  0.00  0.00    +0.178 C 
ATOM      9  O   UNL     1       2.305  -2.570  -4.221  0.00  0.00    -0.291 OA
ATOM     10  C   UNL     1       2.658  -1.500  -2.171  0.00  0.00    +0.043 A 
ATOM     11  C   UNL     1       2.061  -0.690  -1.185  0.00  0.00    +0.044 A 
ATOM     12  C   UNL     1       2.847  -0.117  -0.198  0.00  0.00    +0.073 A 
ATOM     13  C   UNL     1       4.215  -0.337  -0.185  0.00  0.00    +0.168 A 
ATOM     14  C   UNL     1       4.812  -1.137  -1.165  0.00  0.00    +0.167 A 
ATOM     15  C   UNL     1       4.040  -1.724  -2.151  0.00  0.00    +0.062 A 
ATOM     16  O   UNL     1       6.156  -1.190  -0.923  0.00  0.00    -0.453 OA
ATOM     17  C   UNL     1       6.429  -0.089  -0.036  0.00  0.00    +0.466 C 
ATOM     18  O   UNL     1       5.187   0.106   0.664  0.00  0.00    -0.453 OA
BRANCH   5  20
ATOM     19  C   UNL     1      -0.019   1.526   0.010  0.00  0.00    +0.024 C 
ATOM     20  C   UNL     1       0.002  -0.004   0.002  0.00  0.00    +0.102 C 
ENDBRANCH   5  20
ENDBRANCH   1   7
BRANCH   3  21
ATOM     21  C   UNL     1      -0.163  -5.512  -1.338  0.00  0.00    +0.200 C 
BRANCH  21  22
ATOM     22  C   UNL     1       0.224  -6.858  -1.895  0.00  0.00    +0.230 C 
ATOM     23  O   UNL     1       0.750  -6.934  -2.985  0.00  0.00    -0.274 OA
ATOM     24  N   UNL     1      -0.015  -7.976  -1.181  0.00  0.00    -0.314 N 
ATOM     25  H   UNL     1      -0.435  -7.915  -0.309  0.00  0.00    +0.149 HD
BRANCH  24  26
ATOM     26  C   UNL     1       0.361  -9.284  -1.723  0.00  0.00    +0.109 C 
BRANCH  26  27
ATOM     27  C   UNL     1      -0.016 -10.378  -0.722  0.00  0.00    +0.056 C 
BRANCH  27  28
ATOM     28  C   UNL     1       0.371 -11.724  -1.279  0.00  0.00    -0.021 A 
ATOM     29  C   UNL     1       1.686 -12.361  -1.183  0.00  0.00    +0.004 A 
ATOM     30  C   UNL     1       2.904 -11.991  -0.609  0.00  0.00    +0.030 A 
ATOM     31  C   UNL     1       3.984 -12.841  -0.694  0.00  0.00    +0.042 A 
ATOM     32  C   UNL     1       3.867 -14.061  -1.348  0.00  0.00    +0.022 A 
ATOM     33  C   UNL     1       2.672 -14.440  -1.920  0.00  0.00    +0.027 A 
ATOM     34  C   UNL     1       1.569 -13.597  -1.845  0.00  0.00    +0.047 A 
ATOM     35  N   UNL     1       0.273 -13.691  -2.303  0.00  0.00    -0.360 N 
ATOM     36  C   UNL     1      -0.427 -12.569  -1.952  0.00  0.00    +0.087 A 
ATOM     37 CL   UNL     1       5.500 -12.385   0.018  0.00  0.00    -0.084 Cl
ATOM     38  H   UNL     1      -0.090 -14.441  -2.799  0.00  0.00    +0.165 HD
ENDBRANCH  27  28
ENDBRANCH  26  27
ENDBRANCH  24  26
ENDBRANCH  21  22
ENDBRANCH   3  21
TORSDOF 7
