REMARK  Name = ZINC36595627
REMARK  14 active torsions:
REMARK  status: ('A' for Active; 'I' for Inactive)
REMARK    1  A    between atoms: C_1  and  C_2
REMARK    2  A    between atoms: C_2  and  C_3
REMARK    3  A    between atoms: C_3  and  C_4
REMARK    4  A    between atoms: C_4  and  N_5
REMARK    5  A    between atoms: C_6  and  C_8
REMARK    6  A    between atoms: C_8  and  C_10
REMARK    7  A    between atoms: C_8  and  N_19
REMARK    8  A    between atoms: C_13  and  N_16
REMARK    9  A    between atoms: N_19  and  C_20
REMARK   10  A    between atoms: C_20  and  C_21
REMARK   11  A    between atoms: C_24  and  C_26
REMARK   12  A    between atoms: C_27  and  C_29
REMARK   13  A    between atoms: C_32  and  O_35
REMARK   14  A    between atoms: O_35  and  C_36
REMARK                            x       y       z     vdW  Elec       q    Type
REMARK                         _______ _______ _______ _____ _____    ______ ____
ROOT
ATOM      1  C   UNL     1       0.776  -4.486  -5.849  0.00  0.00    +0.193 C 
ENDROOT
BRANCH   1   2
ATOM      2  C   UNL     1       0.770  -4.538  -7.356  0.00  0.00    -0.018 A 
ATOM      3  C   UNL     1       1.938  -4.810  -8.043  0.00  0.00    +0.008 A 
ATOM      4  C   UNL     1       1.933  -4.857  -9.424  0.00  0.00    +0.033 A 
ATOM      5  C   UNL     1       0.759  -4.633 -10.119  0.00  0.00    +0.126 A 
ATOM      6  C   UNL     1      -0.410  -4.362  -9.432  0.00  0.00    +0.033 A 
ATOM      7  C   UNL     1      -0.405  -4.319  -8.050  0.00  0.00    +0.008 A 
BRANCH   5   8
ATOM      8  N   UNL     1       0.753  -4.683 -11.598  0.00  0.00    +0.056 N 
ATOM      9  O   UNL     1       1.775  -4.920 -12.199  0.00  0.00    -0.126 OA
ATOM     10  O   UNL     1      -0.274  -4.487 -12.205  0.00  0.00    -0.126 OA
ENDBRANCH   5   8
ENDBRANCH   1   2
BRANCH   1  12
ATOM     11  N   UNL     1      -1.393  -3.312  -5.665  0.00  0.00    -0.313 N 
ATOM     12  C   UNL     1      -0.076  -3.334  -5.383  0.00  0.00    +0.238 C 
ATOM     13  O   UNL     1       0.425  -2.426  -4.754  0.00  0.00    -0.273 OA
ATOM     14  H   UNL     1      -1.794  -4.039  -6.168  0.00  0.00    +0.149 HD
BRANCH  11  15
ATOM     15  C   UNL     1      -2.221  -2.192  -5.211  0.00  0.00    +0.104 C 
BRANCH  15  16
ATOM     16  C   UNL     1      -3.668  -2.413  -5.660  0.00  0.00    +0.018 C 
BRANCH  16  18
ATOM     17  C   UNL     1      -5.979  -1.463  -5.634  0.00  0.00    +0.004 C 
ATOM     18  C   UNL     1      -4.532  -1.243  -5.186  0.00  0.00    -0.002 C 
ENDBRANCH  16  18
ENDBRANCH  15  16
ENDBRANCH  11  15
ENDBRANCH   1  12
BRANCH   1  19
ATOM     19  N   UNL     1       2.149  -4.303  -5.373  0.00  0.00    -0.275 N 
ATOM     20  C   UNL     1       2.698  -5.206  -4.536  0.00  0.00    +0.248 C 
ATOM     21  O   UNL     1       3.709  -4.928  -3.920  0.00  0.00    -0.270 OA
BRANCH  20  22
ATOM     22  C   UNL     1       2.073  -6.532  -4.368  0.00  0.00    +0.037 A 
ATOM     23  C   UNL     1       1.403  -7.131  -5.438  0.00  0.00    +0.016 A 
ATOM     24  C   UNL     1       0.821  -8.369  -5.277  0.00  0.00    +0.046 A 
ATOM     25  C   UNL     1       0.899  -9.022  -4.052  0.00  0.00    +0.120 A 
ATOM     26  C   UNL     1       1.564  -8.429  -2.985  0.00  0.00    +0.046 A 
ATOM     27  C   UNL     1       2.153  -7.194  -3.140  0.00  0.00    +0.016 A 
BRANCH  25  28
ATOM     28  O   UNL     1       0.323 -10.241  -3.897  0.00  0.00    -0.495 OA
ATOM     29  C   UNL     1       0.441 -10.855  -2.612  0.00  0.00    +0.277 C 
ENDBRANCH  25  28
ENDBRANCH  20  22
BRANCH  19  30
ATOM     30  C   UNL     1       2.926  -3.138  -5.805  0.00  0.00    +0.183 C 
BRANCH  30  31
ATOM     31  C   UNL     1       3.471  -2.421  -4.597  0.00  0.00    +0.122 A 
ATOM     32  C   UNL     1       4.678  -2.624  -4.040  0.00  0.00    +0.046 A 
ATOM     33  C   UNL     1       4.774  -1.745  -2.938  0.00  0.00    +0.045 A 
ATOM     34  C   UNL     1       3.619  -1.056  -2.887  0.00  0.00    +0.102 A 
ATOM     35  O   UNL     1       2.836  -1.466  -3.898  0.00  0.00    -0.463 OA
ATOM     36  C   UNL     1       3.267  -0.001  -1.871  0.00  0.00    +0.086 C 
ENDBRANCH  30  31
ENDBRANCH  19  30
ENDBRANCH   1  19
TORSDOF 11
