REMARK  Name = ZINC09462824
REMARK  15 active torsions:
REMARK  status: ('A' for Active; 'I' for Inactive)
REMARK    1  A    between atoms: C_1  and  C_2
REMARK    2  A    between atoms: C_2  and  C_3
REMARK    3  A    between atoms: C_2  and  O_4
REMARK    4  A    between atoms: O_4  and  C_5
REMARK    5  A    between atoms: C_8  and  C_11
REMARK    6  A    between atoms: C_13  and  C_27
REMARK    7  A    between atoms: C_14  and  O_26
REMARK    8  A    between atoms: N_17  and  C_18
REMARK    9  A    between atoms: C_18  and  C_19
REMARK   10  A    between atoms: C_19  and  C_20
REMARK   11  A    between atoms: C_20  and  N_74
REMARK   12  A    between atoms: C_27  and  C_29
REMARK   13  A    between atoms: C_32  and  O_35
REMARK   14  A    between atoms: O_35  and  C_36
REMARK   15  A    between atoms: C_36  and  C_37
REMARK                            x       y       z     vdW  Elec       q    Type
REMARK                         _______ _______ _______ _____ _____    ______ ____
ROOT
ATOM      1  C   UNL     1       5.833   3.405   0.110  0.00  0.00    +0.144 C 
ATOM      2  C   UNL     1       6.717   2.900   1.226  0.00  0.00    +0.071 C 
ATOM      3  C   UNL     1       7.649   2.102   0.655  0.00  0.00    +0.188 C 
ATOM      4  C   UNL     1       7.421   2.055  -0.804  0.00  0.00    +0.282 C 
ATOM      5  O   UNL     1       8.092   1.423  -1.595  0.00  0.00    -0.267 OA
ATOM      6  N   UNL     1       6.359   2.818  -1.128  0.00  0.00    -0.284 N 
ENDROOT
BRANCH   1  10
ATOM      7  C   UNL     1       1.800   2.140   0.739  0.00  0.00    +0.121 A 
ATOM      8  C   UNL     1       2.759   1.226   0.325  0.00  0.00    +0.046 A 
ATOM      9  C   UNL     1       4.061   1.639   0.117  0.00  0.00    +0.009 A 
ATOM     10  C   UNL     1       4.411   2.959   0.332  0.00  0.00    -0.022 A 
ATOM     11  C   UNL     1       3.459   3.871   0.749  0.00  0.00    +0.009 A 
ATOM     12  C   UNL     1       2.155   3.464   0.953  0.00  0.00    +0.046 A 
BRANCH   7  13
ATOM     13  O   UNL     1       0.518   1.737   0.939  0.00  0.00    -0.489 OA
BRANCH  13  15
ATOM     14  C   UNL     1      -0.930   3.438   0.016  0.00  0.00    +0.051 C 
ATOM     15  C   UNL     1      -0.432   2.747   1.287  0.00  0.00    +0.167 C 
ATOM     16  C   UNL     1      -1.615   2.105   2.015  0.00  0.00    +0.051 C 
ENDBRANCH  13  15
ENDBRANCH   7  13
ENDBRANCH   1  10
BRANCH   3  17
ATOM     17  O   UNL     1       8.633   1.449   1.316  0.00  0.00    -0.502 OA
ATOM     18  H   UNL     1       9.185   0.930   0.664  0.00  0.00    +0.292 HD
ENDBRANCH   3  17
BRANCH   2  19
ATOM     19  C   UNL     1       6.588   3.212   2.653  0.00  0.00    +0.195 C 
ATOM     20  O   UNL     1       6.282   2.338   3.442  0.00  0.00    -0.287 OA
BRANCH  19  21
ATOM     21  C   UNL     1       6.830   4.587   3.132  0.00  0.00    +0.022 A 
ATOM     22  C   UNL     1       7.105   5.610   2.219  0.00  0.00    +0.015 A 
ATOM     23  C   UNL     1       7.325   6.892   2.669  0.00  0.00    +0.046 A 
ATOM     24  C   UNL     1       7.285   7.169   4.031  0.00  0.00    +0.121 A 
ATOM     25  C   UNL     1       7.018   6.154   4.943  0.00  0.00    +0.046 A 
ATOM     26  C   UNL     1       6.791   4.870   4.501  0.00  0.00    +0.015 A 
BRANCH  24  27
ATOM     27  O   UNL     1       7.507   8.433   4.471  0.00  0.00    -0.488 OA
BRANCH  27  28
ATOM     28  C   UNL     1       7.775   9.427   3.480  0.00  0.00    +0.256 C 
BRANCH  28  29
ATOM     29  C   UNL     1       7.995  10.758   4.151  0.00  0.00    +0.006 C 
ATOM     30  C   UNL     1       8.994  11.521   3.782  0.00  0.00    +0.007 C 
ENDBRANCH  28  29
ENDBRANCH  27  28
ENDBRANCH  24  27
ENDBRANCH  19  21
ENDBRANCH   2  19
BRANCH   6  31
ATOM     31  C   UNL     1       5.824   3.025  -2.476  0.00  0.00    +0.107 C 
BRANCH  31  32
ATOM     32  C   UNL     1       6.507   4.235  -3.116  0.00  0.00    +0.000 C 
BRANCH  32  33
ATOM     33  C   UNL     1       5.947   4.451  -4.524  0.00  0.00    -0.077 C 
BRANCH  33  39
ATOM     34  C   UNL     1       6.246   6.853  -4.433  0.00  0.00    -0.050 C 
ATOM     35  C   UNL     1       6.996   8.028  -5.067  0.00  0.00    +0.141 C 
ATOM     36  O   UNL     1       6.684   8.089  -6.462  0.00  0.00    -0.383 OA
ATOM     37  C   UNL     1       7.019   6.898  -7.179  0.00  0.00    +0.141 C 
ATOM     38  C   UNL     1       6.270   5.712  -6.566  0.00  0.00    -0.050 C 
ATOM     39  N   UNL     1       6.630   5.611  -5.136  0.00  0.00    +0.383 N 
ATOM     40  H   UNL     1       7.645   5.482  -5.056  0.00  0.00    -0.082 HD
ENDBRANCH  33  39
ENDBRANCH  32  33
ENDBRANCH  31  32
ENDBRANCH   6  31
TORSDOF 13
