REMARK  Name = ZINC36577922
REMARK  17 active torsions:
REMARK  status: ('A' for Active; 'I' for Inactive)
REMARK    1  A    between atoms: C_1  and  C_2
REMARK    2  A    between atoms: C_2  and  C_3
REMARK    3  A    between atoms: C_3  and  N_4
REMARK    4  A    between atoms: N_4  and  C_5
REMARK    5  A    between atoms: C_5  and  C_7
REMARK    6  A    between atoms: C_5  and  C_14
REMARK    7  A    between atoms: C_11  and  O_13
REMARK    8  A    between atoms: N_16  and  C_17
REMARK    9  A    between atoms: C_17  and  C_18
REMARK   10  A    between atoms: C_17  and  C_19
REMARK   11  A    between atoms: C_17  and  C_20
REMARK   12  A    between atoms: C_20  and  C_21
REMARK   13  A    between atoms: C_21  and  C_22
REMARK   14  A    between atoms: C_21  and  C_23
REMARK   15  A    between atoms: C_21  and  C_24
REMARK   16  A    between atoms: C_25  and  C_27
REMARK   17  A    between atoms: C_30  and  N_33
REMARK                            x       y       z     vdW  Elec       q    Type
REMARK                         _______ _______ _______ _____ _____    ______ ____
ROOT
ATOM      1  C   UNL     1      -0.946  -2.816   0.778  0.00  0.00    +0.193 C 
ENDROOT
BRANCH   1   2
ATOM      2  C   UNL     1      -2.329  -2.983   1.353  0.00  0.00    -0.015 A 
ATOM      3  C   UNL     1      -3.055  -1.872   1.740  0.00  0.00    +0.006 A 
ATOM      4  C   UNL     1      -4.324  -2.022   2.268  0.00  0.00    +0.004 A 
ATOM      5  C   UNL     1      -4.870  -3.283   2.409  0.00  0.00    +0.045 A 
ATOM      6  C   UNL     1      -4.144  -4.399   2.021  0.00  0.00    +0.117 A 
ATOM      7  C   UNL     1      -2.872  -4.245   1.486  0.00  0.00    +0.051 A 
BRANCH   6   8
ATOM      8  O   UNL     1      -4.678  -5.641   2.159  0.00  0.00    -0.507 OA
ATOM      9  H   UNL     1      -5.177  -5.942   1.387  0.00  0.00    +0.292 HD
ENDBRANCH   6   8
ENDBRANCH   1   2
BRANCH   1  10
ATOM     10  C   UNL     1       0.079  -3.131   1.837  0.00  0.00    +0.239 C 
ATOM     11  O   UNL     1       0.878  -2.285   2.179  0.00  0.00    -0.273 OA
ATOM     12  N   UNL     1       0.108  -4.354   2.404  0.00  0.00    -0.308 N 
ATOM     13  H   UNL     1      -0.531  -5.030   2.130  0.00  0.00    +0.149 HD
BRANCH  12  14
ATOM     14  C   UNL     1       1.105  -4.661   3.433  0.00  0.00    +0.030 C 
ATOM     15  C   UNL     1       2.484  -4.794   2.784  0.00  0.00    +0.031 C 
ATOM     16  C   UNL     1       1.134  -3.533   4.467  0.00  0.00    +0.031 C 
BRANCH  14  17
ATOM     17  C   UNL     1       0.737  -5.976   4.123  0.00  0.00    +0.031 C 
BRANCH  17  18
ATOM     18  C   UNL     1      -0.773  -6.020   4.364  0.00  0.00    -0.036 C 
ATOM     19  C   UNL     1      -1.499  -6.179   3.027  0.00  0.00    +0.010 C 
ATOM     20  C   UNL     1      -1.110  -7.205   5.272  0.00  0.00    +0.010 C 
ATOM     21  C   UNL     1      -1.221  -4.720   5.036  0.00  0.00    +0.010 C 
ENDBRANCH  17  18
ENDBRANCH  14  17
ENDBRANCH  12  14
ENDBRANCH   1  10
BRANCH   1  22
ATOM     22  N   UNL     1      -0.769  -1.434   0.325  0.00  0.00    -0.282 N 
ATOM     23  C   UNL     1      -1.461  -0.980  -0.739  0.00  0.00    +0.247 C 
ATOM     24  O   UNL     1      -1.369   0.185  -1.073  0.00  0.00    -0.270 OA
BRANCH  23  25
ATOM     25  C   UNL     1      -2.333  -1.900  -1.501  0.00  0.00    +0.037 A 
ATOM     26  C   UNL     1      -2.552  -3.200  -1.041  0.00  0.00    +0.015 A 
ATOM     27  C   UNL     1      -3.367  -4.053  -1.756  0.00  0.00    +0.033 A 
ATOM     28  C   UNL     1      -3.967  -3.623  -2.926  0.00  0.00    +0.126 A 
ATOM     29  C   UNL     1      -3.753  -2.336  -3.388  0.00  0.00    +0.033 A 
ATOM     30  C   UNL     1      -2.946  -1.471  -2.679  0.00  0.00    +0.015 A 
BRANCH  28  31
ATOM     31  N   UNL     1      -4.839  -4.544  -3.689  0.00  0.00    +0.056 N 
ATOM     32  O   UNL     1      -5.027  -5.669  -3.288  0.00  0.00    -0.126 OA
ATOM     33  O   UNL     1      -5.365  -4.171  -4.712  0.00  0.00    -0.126 OA
ENDBRANCH  28  31
ENDBRANCH  23  25
BRANCH  22  34
ATOM     34  C   UNL     1       0.160  -0.545   1.027  0.00  0.00    +0.109 C 
BRANCH  34  36
ATOM     35  C   UNL     1       2.508   0.305   1.095  0.00  0.00    +0.005 C 
ATOM     36  C   UNL     1       1.558  -0.690   0.425  0.00  0.00    +0.016 C 
ENDBRANCH  34  36
ENDBRANCH  22  34
ENDBRANCH   1  22
TORSDOF 11
