REMARK  Name = ZINC08644412
REMARK  13 active torsions:
REMARK  status: ('A' for Active; 'I' for Inactive)
REMARK    1  A    between atoms: C_1  and  C_2
REMARK    2  A    between atoms: C_2  and  C_3
REMARK    3  A    between atoms: C_3  and  C_29
REMARK    4  A    between atoms: N_6  and  C_10
REMARK    5  A    between atoms: C_10  and  C_11
REMARK    6  A    between atoms: N_13  and  C_14
REMARK    7  A    between atoms: C_15  and  C_24
REMARK    8  A    between atoms: C_16  and  C_23
REMARK    9  A    between atoms: C_17  and  C_19
REMARK   10  A    between atoms: N_21  and  C_22
REMARK   11  A    between atoms: C_24  and  O_26
REMARK   12  A    between atoms: O_26  and  C_27
REMARK   13  A    between atoms: C_27  and  C_28
REMARK                            x       y       z     vdW  Elec       q    Type
REMARK                         _______ _______ _______ _____ _____    ______ ____
ROOT
ATOM      1  C   UNL     1       0.049  -1.127   3.526  0.00  0.00    +0.236 C 
ATOM      2  O   UNL     1       0.064  -2.322   3.315  0.00  0.00    -0.274 OA
ATOM      3  N   UNL     1       0.028  -0.261   2.493  0.00  0.00    -0.278 N 
ATOM      4  H   UNL     1       0.016   0.694   2.662  0.00  0.00    +0.155 HD
ENDROOT
BRANCH   3   5
ATOM      5  C   UNL     1       0.023  -0.734   1.195  0.00  0.00    +0.087 A 
ATOM      6  C   UNL     1       0.002  -0.004   0.002  0.00  0.00    +0.091 A 
ATOM      7  C   UNL     1      -0.005  -0.715  -1.189  0.00  0.00    -0.015 A 
ATOM      8  C   UNL     1       0.019  -2.081  -1.114  0.00  0.00    +0.079 A 
ATOM      9  S   UNL     1       0.040  -2.377   0.644  0.00  0.00    -0.068 S 
ATOM     10  C   UNL     1      -0.033  -0.007  -2.519  0.00  0.00    +0.046 C 
BRANCH   8  11
ATOM     11  C   UNL     1       0.022  -3.057  -2.206  0.00  0.00    +0.251 C 
ATOM     12  O   UNL     1       0.007  -2.676  -3.362  0.00  0.00    -0.270 OA
ATOM     13  N   UNL     1       0.042  -4.376  -1.930  0.00  0.00    -0.314 N 
ATOM     14  C   UNL     1       0.045  -5.352  -3.023  0.00  0.00    +0.128 C 
ATOM     15  H   UNL     1       0.054  -4.679  -1.009  0.00  0.00    +0.149 HD
ENDBRANCH   8  11
BRANCH   6  16
ATOM     16  C   UNL     1      -0.018   1.463   0.010  0.00  0.00    +0.342 C 
ATOM     17  O   UNL     1       1.027   2.085   0.004  0.00  0.00    -0.245 OA
BRANCH  16  18
ATOM     18  O   UNL     1      -1.195   2.121   0.019  0.00  0.00    -0.461 OA
BRANCH  18  19
ATOM     19  C   UNL     1      -1.138   3.572   0.027  0.00  0.00    +0.229 C 
ATOM     20  C   UNL     1      -2.560   4.138   0.037  0.00  0.00    +0.048 C 
ENDBRANCH  18  19
ENDBRANCH  16  18
ENDBRANCH   6  16
ENDBRANCH   3   5
BRANCH   1  21
ATOM     21  C   UNL     1       0.055  -0.612   4.942  0.00  0.00    +0.214 C 
BRANCH  21  25
ATOM     22  C   UNL     1       0.748  -3.427   7.263  0.00  0.00    +0.138 C 
ATOM     23  C   UNL     1       1.206  -2.312   6.344  0.00  0.00    +0.251 C 
ATOM     24  O   UNL     1       2.348  -1.997   6.086  0.00  0.00    -0.272 OA
ATOM     25  N   UNL     1       0.079  -1.743   5.873  0.00  0.00    -0.215 N 
ATOM     26  C   UNL     1      -1.016  -2.334   6.365  0.00  0.00    +0.310 C 
ATOM     27  O   UNL     1      -2.150  -1.994   6.089  0.00  0.00    -0.252 OA
ATOM     28  N   UNL     1      -0.721  -3.350   7.196  0.00  0.00    -0.281 N 
ATOM     29  H   UNL     1      -1.353  -3.919   7.663  0.00  0.00    +0.152 HD
BRANCH  22  30
ATOM     30  C   UNL     1       1.232  -3.187   8.670  0.00  0.00    -0.015 A 
ATOM     31  C   UNL     1       2.447  -3.703   9.081  0.00  0.00    +0.006 A 
ATOM     32  C   UNL     1       2.893  -3.479  10.370  0.00  0.00    +0.000 A 
ATOM     33  C   UNL     1       2.119  -2.747  11.251  0.00  0.00    +0.000 A 
ATOM     34  C   UNL     1       0.902  -2.236  10.842  0.00  0.00    +0.000 A 
ATOM     35  C   UNL     1       0.458  -2.456   9.551  0.00  0.00    +0.006 A 
ENDBRANCH  22  30
BRANCH  22  37
ATOM     36  C   UNL     1       0.692  -5.024   5.343  0.00  0.00    +0.007 C 
ATOM     37  C   UNL     1       1.240  -4.782   6.750  0.00  0.00    +0.037 C 
ENDBRANCH  22  37
ENDBRANCH  21  25
ENDBRANCH   1  21
TORSDOF 9
