REMARK  Name = ZINC01190177
REMARK  6 active torsions:
REMARK  status: ('A' for Active; 'I' for Inactive)
REMARK    1  A    between atoms: C_4  and  N_26
REMARK    2  A    between atoms: C_5  and  C_7
REMARK    3  A    between atoms: C_10  and  C_12
REMARK    4  A    between atoms: C_13  and  C_14
REMARK    5  A    between atoms: C_13  and  C_16
REMARK    6  A    between atoms: N_18  and  C_19
REMARK                            x       y       z     vdW  Elec       q    Type
REMARK                         _______ _______ _______ _____ _____    ______ ____
ROOT
ATOM      1  C   UNL     1       4.344   6.951  -0.907  0.00  0.00    +0.070 C 
ATOM      2  C   UNL     1       3.938   7.205  -2.210  0.00  0.00    +0.117 C 
ENDROOT
BRANCH   1   6
ATOM      3  C   UNL     1       1.570   6.394   1.248  0.00  0.00    +0.138 A 
ATOM      4  C   UNL     1       2.416   5.408   1.709  0.00  0.00    +0.050 A 
ATOM      5  C   UNL     1       3.582   5.481   0.948  0.00  0.00    +0.050 A 
ATOM      6  C   UNL     1       3.409   6.524   0.049  0.00  0.00    +0.130 A 
ATOM      7  O   UNL     1       2.185   7.057   0.254  0.00  0.00    -0.455 OA
BRANCH   3  12
ATOM      8  C   UNL     1      -1.973   5.920   2.393  0.00  0.00    +0.001 A 
ATOM      9  C   UNL     1      -2.322   7.216   2.731  0.00  0.00    +0.002 A 
ATOM     10  C   UNL     1      -1.405   8.244   2.597  0.00  0.00    +0.033 A 
ATOM     11  C   UNL     1      -0.139   7.985   2.114  0.00  0.00    +0.137 A 
ATOM     12  C   UNL     1       0.218   6.680   1.766  0.00  0.00    +0.047 A 
ATOM     13  C   UNL     1      -0.711   5.646   1.909  0.00  0.00    +0.014 A 
BRANCH  11  14
ATOM     14  N   UNL     1       0.839   9.086   1.966  0.00  0.00    +0.057 N 
ATOM     15  O   UNL     1       0.525  10.223   2.271  0.00  0.00    -0.126 OA
ATOM     16  O   UNL     1       1.956   8.856   1.540  0.00  0.00    -0.126 OA
ENDBRANCH  11  14
ENDBRANCH   3  12
ENDBRANCH   1   6
BRANCH   2  17
ATOM     17  C   UNL     1       2.590   6.824  -2.646  0.00  0.00    +0.259 C 
ATOM     18  O   UNL     1       1.862   6.198  -1.897  0.00  0.00    -0.269 OA
ATOM     19  N   UNL     1       2.157   7.166  -3.875  0.00  0.00    -0.281 N 
ATOM     20  H   UNL     1       2.708   7.725  -4.445  0.00  0.00    +0.155 HD
BRANCH  19  21
ATOM     21  C   UNL     1       0.912   6.716  -4.329  0.00  0.00    +0.034 A 
ATOM     22  C   UNL     1       0.458   5.453  -3.974  0.00  0.00    +0.026 A 
ATOM     23  C   UNL     1      -0.774   5.013  -4.419  0.00  0.00    +0.040 A 
ATOM     24  C   UNL     1      -1.550   5.826  -5.228  0.00  0.00    +0.124 A 
ATOM     25  C   UNL     1      -1.096   7.084  -5.587  0.00  0.00    +0.040 A 
ATOM     26  C   UNL     1       0.132   7.530  -5.140  0.00  0.00    +0.026 A 
ATOM     27  F   UNL     1      -2.752   5.392  -5.666  0.00  0.00    -0.205 F 
ENDBRANCH  19  21
ENDBRANCH   2  17
BRANCH   2  28
ATOM     28  C   UNL     1       4.835   7.840  -3.129  0.00  0.00    +0.104 C 
ATOM     29  N   UNL     1       5.546   8.343  -3.857  0.00  0.00    -0.191 NA
ENDBRANCH   2  28
TORSDOF 6
