REMARK  Name = ZINC38730821
REMARK  8 active torsions:
REMARK  status: ('A' for Active; 'I' for Inactive)
REMARK    1  A    between atoms: C_4  and  C_7
REMARK    2  A    between atoms: C_7  and  N_8
REMARK    3  A    between atoms: C_14  and  C_16
REMARK    4  A    between atoms: C_22  and  C_24
REMARK    5  A    between atoms: N_26  and  C_27
REMARK    6  A    between atoms: C_27  and  C_29
REMARK    7  A    between atoms: C_27  and  C_39
REMARK    8  A    between atoms: C_29  and  C_30
REMARK                            x       y       z     vdW  Elec       q    Type
REMARK                         _______ _______ _______ _____ _____    ______ ____
ROOT
ATOM      1  C   UNL     1       7.964  -2.001   4.489  0.00  0.00    +0.091 C 
ATOM      2  C   UNL     1       8.730  -2.324   3.205  0.00  0.00    +0.040 C 
ATOM      3  C   UNL     1       9.922  -3.181   3.515  0.00  0.00    -0.030 C 
ATOM      4  C   UNL     1      10.428  -3.319   4.699  0.00  0.00    -0.030 C 
ATOM      5  C   UNL     1       9.885  -2.651   5.928  0.00  0.00    +0.040 C 
ATOM      6  C   UNL     1       8.961  -1.495   5.539  0.00  0.00    +0.091 C 
ENDROOT
BRANCH   1  13
ATOM      7  N   UNL     1       3.242  -2.136   2.981  0.00  0.00    -0.295 NA
ATOM      8  C   UNL     1       4.283  -3.114   3.323  0.00  0.00    +0.103 C 
ATOM      9  C   UNL     1       5.652  -2.566   2.906  0.00  0.00    +0.123 C 
ATOM     10  N   UNL     1       5.826  -1.236   3.509  0.00  0.00    -0.299 N 
ATOM     11  C   UNL     1       4.757  -0.242   3.324  0.00  0.00    +0.123 C 
ATOM     12  C   UNL     1       3.424  -0.882   3.725  0.00  0.00    +0.103 C 
ATOM     13  C   UNL     1       6.936  -0.935   4.212  0.00  0.00    +0.220 C 
ATOM     14  O   UNL     1       7.107   0.194   4.621  0.00  0.00    -0.275 OA
BRANCH   7  15
ATOM     15  C   UNL     1       1.902  -2.692   3.207  0.00  0.00    +0.119 C 
BRANCH  15  19
ATOM     16  C   UNL     1       1.223  -5.920   0.491  0.00  0.00    +0.000 A 
ATOM     17  C   UNL     1       1.787  -6.165   1.730  0.00  0.00    +0.000 A 
ATOM     18  C   UNL     1       2.007  -5.121   2.608  0.00  0.00    +0.005 A 
ATOM     19  C   UNL     1       1.663  -3.831   2.248  0.00  0.00    -0.033 A 
ATOM     20  C   UNL     1       1.100  -3.586   1.010  0.00  0.00    +0.005 A 
ATOM     21  C   UNL     1       0.879  -4.630   0.132  0.00  0.00    +0.000 A 
ENDBRANCH  15  19
ENDBRANCH   7  15
ENDBRANCH   1  13
BRANCH   6  22
ATOM     22  C   UNL     1       9.781  -0.371   4.959  0.00  0.00    +0.218 C 
ATOM     23  O   UNL     1       9.477   0.111   3.889  0.00  0.00    -0.275 OA
ATOM     24  N   UNL     1      10.852   0.098   5.630  0.00  0.00    -0.303 N 
ATOM     25  H   UNL     1      11.095  -0.288   6.486  0.00  0.00    +0.149 HD
BRANCH  24  26
ATOM     26  C   UNL     1      11.649   1.190   5.066  0.00  0.00    +0.163 C 
BRANCH  26  27
ATOM     27  C   UNL     1      12.672   0.626   4.114  0.00  0.00    +0.231 C 
ATOM     28  O   UNL     1      12.731  -0.571   3.926  0.00  0.00    -0.274 OA
ATOM     29  N   UNL     1      13.523   1.451   3.473  0.00  0.00    -0.328 N 
ATOM     30  H   UNL     1      13.476   2.408   3.623  0.00  0.00    +0.145 HD
ATOM     31  H   UNL     1      14.182   1.088   2.861  0.00  0.00    +0.145 HD
ENDBRANCH  26  27
BRANCH  26  32
ATOM     32  C   UNL     1      12.360   1.938   6.195  0.00  0.00    +0.069 C 
BRANCH  32  33
ATOM     33  C   UNL     1      11.337   2.606   7.078  0.00  0.00    -0.020 A 
ATOM     34  C   UNL     1      10.620   1.992   8.198  0.00  0.00    +0.003 A 
ATOM     35  C   UNL     1      10.629   0.722   8.777  0.00  0.00    +0.010 A 
ATOM     36  C   UNL     1       9.819   0.457   9.845  0.00  0.00    +0.001 A 
ATOM     37  C   UNL     1       8.986   1.441  10.359  0.00  0.00    +0.002 A 
ATOM     38  C   UNL     1       8.961   2.701   9.803  0.00  0.00    +0.026 A 
ATOM     39  C   UNL     1       9.777   2.993   8.716  0.00  0.00    +0.047 A 
ATOM     40  N   UNL     1       9.978   4.125   7.957  0.00  0.00    -0.360 N 
ATOM     41  C   UNL     1      10.914   3.877   6.990  0.00  0.00    +0.087 A 
ATOM     42  H   UNL     1       9.526   4.972   8.090  0.00  0.00    +0.165 HD
ENDBRANCH  32  33
ENDBRANCH  26  32
ENDBRANCH  24  26
ENDBRANCH   6  22
TORSDOF 8
