REMARK  Name = ZINC66158810
REMARK  4 active torsions:
REMARK  status: ('A' for Active; 'I' for Inactive)
REMARK    1  A    between atoms: C_3  and  N_21
REMARK    2  A    between atoms: C_5  and  N_7
REMARK    3  A    between atoms: C_13  and  N_16
REMARK    4  A    between atoms: C_22  and  C_24
REMARK                            x       y       z     vdW  Elec       q    Type
REMARK                         _______ _______ _______ _____ _____    ______ ____
ROOT
ATOM      1  C   UNL     1       1.955   1.311  -0.405  0.00  0.00    +0.004 A 
ATOM      2  C   UNL     1       0.809   1.869   0.127  0.00  0.00    +0.023 A 
ATOM      3  C   UNL     1      -0.265   1.058   0.471  0.00  0.00    +0.035 A 
ATOM      4  C   UNL     1      -0.185  -0.315   0.281  0.00  0.00    +0.046 A 
ATOM      5  C   UNL     1       0.968  -0.871  -0.254  0.00  0.00    +0.037 A 
ATOM      6  C   UNL     1       2.038  -0.054  -0.596  0.00  0.00    +0.023 A 
ENDROOT
BRANCH   5   7
ATOM      7  N   UNL     1       1.053  -2.255  -0.447  0.00  0.00    -0.269 N 
ATOM      8  C   UNL     1      -0.049  -2.959  -0.772  0.00  0.00    +0.306 C 
ATOM      9  O   UNL     1      -1.096  -2.381  -0.992  0.00  0.00    -0.252 OA
ATOM     10  N   UNL     1       0.009  -4.303  -0.854  0.00  0.00    -0.287 N 
ATOM     11  C   UNL     1       1.203  -5.125  -0.608  0.00  0.00    +0.108 C 
ATOM     12  C   UNL     1       0.802  -6.597  -0.843  0.00  0.00    +0.005 C 
ATOM     13  C   UNL     1      -0.446  -6.475  -1.757  0.00  0.00    -0.049 C 
ATOM     14  C   UNL     1      -1.115  -5.192  -1.197  0.00  0.00    +0.094 C 
ATOM     15  H   UNL     1       1.905  -2.707  -0.347  0.00  0.00    +0.156 HD
BRANCH  13  16
ATOM     16  N   UNL     1      -1.328  -7.639  -1.600  0.00  0.00    +0.383 N 
ATOM     17  C   UNL     1      -2.470  -7.546  -2.545  0.00  0.00    -0.078 C 
ATOM     18  C   UNL     1      -2.949  -9.015  -2.669  0.00  0.00    -0.020 C 
ATOM     19  C   UNL     1      -1.625  -9.813  -2.640  0.00  0.00    -0.020 C 
ATOM     20  C   UNL     1      -0.607  -8.879  -1.960  0.00  0.00    -0.078 C 
ATOM     21  H   UNL     1      -1.665  -7.696  -0.651  0.00  0.00    -0.081 HD
ENDBRANCH  13  16
ENDBRANCH   5   7
BRANCH   3  22
ATOM     22  N   UNL     1      -1.425   1.623   1.010  0.00  0.00    -0.281 N 
ATOM     23  C   UNL     1      -1.852   2.826   0.578  0.00  0.00    +0.255 C 
ATOM     24  O   UNL     1      -1.184   3.459  -0.218  0.00  0.00    -0.269 OA
ATOM     25  H   UNL     1      -1.923   1.149   1.695  0.00  0.00    +0.155 HD
BRANCH  23  26
ATOM     26  C   UNL     1      -3.120   3.373   1.068  0.00  0.00    +0.074 A 
ATOM     27  C   UNL     1      -3.735   4.574   0.750  0.00  0.00    +0.021 A 
ATOM     28  C   UNL     1      -4.935   4.815   1.376  0.00  0.00    +0.008 A 
ATOM     29  C   UNL     1      -5.425   3.891   2.239  0.00  0.00    +0.046 A 
ATOM     30  S   UNL     1      -4.279   2.663   2.222  0.00  0.00    -0.092 S 
ENDBRANCH  23  26
ENDBRANCH   3  22
TORSDOF 4
