REMARK  Name = ZINC12261358
REMARK  11 active torsions:
REMARK  status: ('A' for Active; 'I' for Inactive)
REMARK    1  A    between atoms: C_1  and  C_2
REMARK    2  A    between atoms: C_3  and  C_37
REMARK    3  A    between atoms: N_4  and  C_31
REMARK    4  A    between atoms: C_5  and  N_9
REMARK    5  A    between atoms: C_6  and  C_7
REMARK    6  A    between atoms: C_10  and  C_12
REMARK    7  A    between atoms: C_12  and  O_13
REMARK    8  A    between atoms: O_13  and  C_14
REMARK    9  A    between atoms: C_14  and  C_16
REMARK   10  A    between atoms: C_16  and  N_17
REMARK   11  A    between atoms: C_25  and  C_27
REMARK                            x       y       z     vdW  Elec       q    Type
REMARK                         _______ _______ _______ _____ _____    ______ ____
ROOT
ATOM      1  N   UNL     1      -3.569   2.695   3.202  0.00  0.00    -0.268 N 
ATOM      2  C   UNL     1      -3.623   3.190   4.454  0.00  0.00    +0.256 C 
ATOM      3  O   UNL     1      -2.599   3.374   5.078  0.00  0.00    -0.272 OA
ATOM      4  H   UNL     1      -4.378   2.630   2.670  0.00  0.00    +0.156 HD
ENDROOT
BRANCH   1   9
ATOM      5  C   UNL     1       0.062  -0.019   0.967  0.00  0.00    +0.047 C 
ATOM      6  C   UNL     1      -0.694   1.079   1.669  0.00  0.00    -0.010 A 
ATOM      7  C   UNL     1      -0.204   2.267   2.057  0.00  0.00    +0.027 A 
ATOM      8  N   UNL     1      -1.199   2.992   2.661  0.00  0.00    -0.300 N 
ATOM      9  C   UNL     1      -2.357   2.277   2.673  0.00  0.00    +0.128 A 
ATOM     10  C   UNL     1      -2.111   1.059   2.056  0.00  0.00    +0.095 A 
ATOM     11  C   UNL     1       1.216   2.732   1.860  0.00  0.00    +0.064 C 
BRANCH   8  12
ATOM     12  C   UNL     1      -1.046   4.281   3.190  0.00  0.00    +0.048 A 
ATOM     13  C   UNL     1      -0.257   4.482   4.315  0.00  0.00    +0.026 A 
ATOM     14  C   UNL     1      -0.103   5.754   4.830  0.00  0.00    +0.002 A 
ATOM     15  C   UNL     1      -0.743   6.825   4.235  0.00  0.00    +0.000 A 
ATOM     16  C   UNL     1      -1.534   6.627   3.118  0.00  0.00    +0.002 A 
ATOM     17  C   UNL     1      -1.687   5.359   2.594  0.00  0.00    +0.026 A 
ENDBRANCH   8  12
BRANCH  10  18
ATOM     18  C   UNL     1      -3.047  -0.003   1.842  0.00  0.00    +0.103 C 
ATOM     19  N   UNL     1      -3.790  -0.846   1.673  0.00  0.00    -0.191 NA
ENDBRANCH  10  18
ENDBRANCH   1   9
BRANCH   2  20
ATOM     20  C   UNL     1      -4.955   3.516   5.078  0.00  0.00    +0.328 C 
BRANCH  20  21
ATOM     21  O   UNL     1      -4.748   4.031   6.420  0.00  0.00    -0.454 OA
BRANCH  21  22
ATOM     22  C   UNL     1      -5.843   4.371   7.118  0.00  0.00    +0.326 C 
ATOM     23  O   UNL     1      -6.938   4.243   6.625  0.00  0.00    -0.249 OA
BRANCH  22  24
ATOM     24  C   UNL     1      -5.705   4.913   8.518  0.00  0.00    +0.238 C 
BRANCH  24  25
ATOM     25  N   UNL     1      -7.034   5.207   9.060  0.00  0.00    -0.213 N 
ATOM     26  C   UNL     1      -7.658   6.397   8.938  0.00  0.00    +0.247 C 
ATOM     27  O   UNL     1      -7.242   7.389   8.379  0.00  0.00    -0.273 OA
ATOM     28  C   UNL     1      -8.985   6.232   9.641  0.00  0.00    +0.115 C 
ATOM     29  C   UNL     1     -10.139   6.430   8.664  0.00  0.00    +0.035 C 
ATOM     30  C   UNL     1     -10.127   7.868   8.140  0.00  0.00    +0.003 C 
ATOM     31  C   UNL     1     -10.260   8.838   9.316  0.00  0.00    +0.000 C 
ATOM     32  C   UNL     1      -9.083   8.645  10.274  0.00  0.00    +0.006 C 
ATOM     33  C   UNL     1      -9.091   7.209  10.806  0.00  0.00    +0.018 C 
ATOM     34  C   UNL     1      -7.902   7.009  11.749  0.00  0.00    +0.010 C 
ATOM     35  N   UNL     1      -8.959   4.848  10.132  0.00  0.00    -0.285 N 
ATOM     36  C   UNL     1      -7.779   4.329   9.744  0.00  0.00    +0.310 C 
ATOM     37  O   UNL     1      -7.428   3.190   9.986  0.00  0.00    -0.252 OA
ATOM     38  H   UNL     1      -9.654   4.397  10.636  0.00  0.00    +0.151 HD
ENDBRANCH  24  25
ENDBRANCH  22  24
ENDBRANCH  21  22
ENDBRANCH  20  21
ENDBRANCH   2  20
TORSDOF 8
