REMARK  Name = ZINC00853118
REMARK  8 active torsions:
REMARK  status: ('A' for Active; 'I' for Inactive)
REMARK    1  A    between atoms: C_4  and  O_21
REMARK    2  A    between atoms: C_5  and  C_7
REMARK    3  A    between atoms: C_8  and  C_9
REMARK    4  A    between atoms: C_8  and  C_11
REMARK    5  A    between atoms: N_13  and  C_14
REMARK    6  A    between atoms: O_21  and  C_22
REMARK    7  A    between atoms: C_22  and  C_23
REMARK    8  A    between atoms: C_26  and  N_29
REMARK                            x       y       z     vdW  Elec       q    Type
REMARK                         _______ _______ _______ _____ _____    ______ ____
ROOT
ATOM      1  C   UNL     1       3.017   0.839   1.398  0.00  0.00    +0.001 A 
ATOM      2  C   UNL     1       2.017   1.794   1.301  0.00  0.00    +0.004 A 
ATOM      3  C   UNL     1       0.779   1.463   0.785  0.00  0.00    +0.046 A 
ATOM      4  C   UNL     1       0.527   0.168   0.359  0.00  0.00    +0.128 A 
ATOM      5  C   UNL     1       1.538  -0.805   0.454  0.00  0.00    +0.018 A 
ATOM      6  C   UNL     1       2.789  -0.452   0.981  0.00  0.00    +0.011 A 
ENDROOT
BRANCH   5   7
ATOM      7  C   UNL     1       1.286  -2.176   0.007  0.00  0.00    +0.035 C 
ATOM      8  C   UNL     1       2.192  -2.810  -0.815  0.00  0.00    +0.114 C 
BRANCH   8   9
ATOM      9  C   UNL     1       3.284  -2.044  -1.435  0.00  0.00    +0.259 C 
ATOM     10  O   UNL     1       3.320  -0.833  -1.320  0.00  0.00    -0.269 OA
ATOM     11  N   UNL     1       4.245  -2.683  -2.131  0.00  0.00    -0.280 N 
ATOM     12  H   UNL     1       4.271  -3.782  -2.151  0.00  0.00    +0.155 HD
BRANCH  11  13
ATOM     13  C   UNL     1       5.210  -1.948  -2.828  0.00  0.00    +0.052 A 
ATOM     14  C   UNL     1       4.963  -0.625  -3.172  0.00  0.00    +0.025 A 
ATOM     15  C   UNL     1       5.920   0.099  -3.856  0.00  0.00    +0.002 A 
ATOM     16  C   UNL     1       7.119  -0.494  -4.208  0.00  0.00    +0.002 A 
ATOM     17  C   UNL     1       7.366  -1.812  -3.872  0.00  0.00    +0.022 A 
ATOM     18  C   UNL     1       6.415  -2.542  -3.183  0.00  0.00    +0.062 A 
ATOM     19 CL   UNL     1       6.726  -4.197  -2.762  0.00  0.00    -0.082 Cl
ENDBRANCH  11  13
ENDBRANCH   8   9
BRANCH   8  20
ATOM     20  C   UNL     1       2.071  -4.214  -1.066  0.00  0.00    +0.104 C 
ATOM     21  N   UNL     1       1.974  -5.329  -1.266  0.00  0.00    -0.191 NA
ENDBRANCH   8  20
ENDBRANCH   5   7
BRANCH   4  22
ATOM     22  O   UNL     1      -0.688  -0.158  -0.148  0.00  0.00    -0.487 OA
BRANCH  22  23
ATOM     23  C   UNL     1      -1.664   0.883  -0.214  0.00  0.00    +0.264 C 
BRANCH  23  24
ATOM     24  C   UNL     1      -2.941   0.338  -0.800  0.00  0.00    -0.010 A 
ATOM     25  C   UNL     1      -3.148   0.381  -2.167  0.00  0.00    +0.009 A 
ATOM     26  C   UNL     1      -4.317  -0.123  -2.704  0.00  0.00    +0.033 A 
ATOM     27  C   UNL     1      -5.284  -0.661  -1.875  0.00  0.00    +0.126 A 
ATOM     28  C   UNL     1      -5.079  -0.700  -0.509  0.00  0.00    +0.033 A 
ATOM     29  C   UNL     1      -3.908  -0.200   0.029  0.00  0.00    +0.009 A 
BRANCH  27  30
ATOM     30  N   UNL     1      -6.538  -1.197  -2.451  0.00  0.00    +0.056 N 
ATOM     31  O   UNL     1      -7.389  -1.671  -1.721  0.00  0.00    -0.126 OA
ATOM     32  O   UNL     1      -6.719  -1.163  -3.655  0.00  0.00    -0.126 OA
ENDBRANCH  27  30
ENDBRANCH  23  24
ENDBRANCH  22  23
ENDBRANCH   4  22
TORSDOF 8
