REMARK  Name = ZINC64982615
REMARK  9 active torsions:
REMARK  status: ('A' for Active; 'I' for Inactive)
REMARK    1  A    between atoms: C_1  and  C_2
REMARK    2  A    between atoms: C_5  and  N_11
REMARK    3  A    between atoms: C_6  and  N_8
REMARK    4  A    between atoms: C_12  and  C_14
REMARK    5  A    between atoms: C_14  and  C_16
REMARK    6  A    between atoms: C_14  and  O_17
REMARK    7  A    between atoms: O_17  and  C_18
REMARK    8  A    between atoms: C_21  and  C_25
REMARK    9  A    between atoms: C_22  and  C_24
REMARK                            x       y       z     vdW  Elec       q    Type
REMARK                         _______ _______ _______ _____ _____    ______ ____
ROOT
ATOM      1  N   UNL     1      -0.022  -3.879  -0.200  0.00  0.00    -0.281 N 
ATOM      2  C   UNL     1      -0.234  -4.384  -1.431  0.00  0.00    +0.258 C 
ATOM      3  O   UNL     1      -0.339  -3.640  -2.383  0.00  0.00    -0.271 OA
ATOM      4  H   UNL     1       0.145  -4.474   0.547  0.00  0.00    +0.155 HD
ENDROOT
BRANCH   1   9
ATOM      5  C   UNL     1      -0.106   1.735   0.614  0.00  0.00    +0.044 C 
ATOM      6  C   UNL     1      -0.084   0.244   0.398  0.00  0.00    -0.048 A 
ATOM      7  C   UNL     1      -0.783  -0.310  -0.659  0.00  0.00    +0.005 A 
ATOM      8  C   UNL     1      -0.764  -1.677  -0.860  0.00  0.00    +0.026 A 
ATOM      9  C   UNL     1      -0.043  -2.494   0.001  0.00  0.00    +0.064 A 
ATOM     10  C   UNL     1       0.657  -1.934   1.061  0.00  0.00    +0.148 A 
ATOM     11  C   UNL     1       0.639  -0.566   1.254  0.00  0.00    +0.038 A 
BRANCH  10  12
ATOM     12  N   UNL     1       1.427  -2.801   1.981  0.00  0.00    +0.058 N 
ATOM     13  O   UNL     1       1.956  -2.327   2.959  0.00  0.00    -0.126 OA
ATOM     14  O   UNL     1       1.527  -3.985   1.754  0.00  0.00    -0.126 OA
ENDBRANCH  10  12
ENDBRANCH   1   9
BRANCH   2  15
ATOM     15  C   UNL     1      -0.342  -5.875  -1.625  0.00  0.00    +0.256 C 
ATOM     16  C   UNL     1      -1.584  -6.395  -0.899  0.00  0.00    +0.062 C 
BRANCH  15  17
ATOM     17  O   UNL     1      -0.449  -6.167  -3.020  0.00  0.00    -0.480 OA
BRANCH  17  18
ATOM     18  C   UNL     1       0.137  -7.313  -3.457  0.00  0.00    +0.122 A 
ATOM     19  C   UNL     1       0.178  -7.599  -4.814  0.00  0.00    +0.046 A 
ATOM     20  C   UNL     1       0.775  -8.764  -5.255  0.00  0.00    +0.007 A 
ATOM     21  C   UNL     1       1.331  -9.645  -4.346  0.00  0.00    -0.047 A 
ATOM     22  C   UNL     1       1.291  -9.363  -2.993  0.00  0.00    -0.044 A 
ATOM     23  C   UNL     1       0.700  -8.196  -2.547  0.00  0.00    +0.049 A 
ATOM     24  C   UNL     1       1.897 -10.325  -2.005  0.00  0.00    +0.044 C 
ATOM     25  C   UNL     1       1.981 -10.915  -4.830  0.00  0.00    +0.044 C 
ENDBRANCH  17  18
ENDBRANCH  15  17
ENDBRANCH   2  15
TORSDOF 5
