REMARK  Name = ZINC20834292
REMARK  9 active torsions:
REMARK  status: ('A' for Active; 'I' for Inactive)
REMARK    1  A    between atoms: C_1  and  C_2
REMARK    2  A    between atoms: C_2  and  C_3
REMARK    3  A    between atoms: C_2  and  S_4
REMARK    4  A    between atoms: S_4  and  C_5
REMARK    5  A    between atoms: C_11  and  C_13
REMARK    6  A    between atoms: C_13  and  S_14
REMARK    7  A    between atoms: S_14  and  C_15
REMARK    8  A    between atoms: N_20  and  N_21
REMARK    9  A    between atoms: C_22  and  C_23
REMARK                            x       y       z     vdW  Elec       q    Type
REMARK                         _______ _______ _______ _____ _____    ______ ____
ROOT
ATOM      1  S   UNL     1       1.874  -2.077  -0.027  0.00  0.00    -0.075 S 
ENDROOT
BRANCH   1   2
ATOM      2  C   UNL     1       1.307  -0.408  -0.013  0.00  0.00    +0.211 A 
ATOM      3  N   UNL     1       0.002  -0.004   0.002  0.00  0.00    -0.186 NA
ATOM      4  C   UNL     1      -0.017   1.363   0.009  0.00  0.00    +0.232 A 
ATOM      5  N   UNL     1       1.225   1.785  -0.000  0.00  0.00    -0.245 N 
ATOM      6  N   UNL     1       2.063   0.663  -0.014  0.00  0.00    -0.144 NA
ATOM      7  N   UNL     1      -1.149   2.163   0.019  0.00  0.00    -0.205 N 
ATOM      8  H   UNL     1      -2.148   1.702   0.022  0.00  0.00    +0.177 HD
ATOM      9  H   UNL     1       1.439   2.864   0.004  0.00  0.00    +0.192 HD
BRANCH   7  10
ATOM     10  N   UNL     1      -1.022   3.558   0.026  0.00  0.00    -0.187 NA
ATOM     11  C   UNL     1      -2.084   4.309   0.036  0.00  0.00    +0.145 C 
BRANCH  11  12
ATOM     12  C   UNL     1      -1.951   5.769   0.043  0.00  0.00    +0.032 A 
ATOM     13  C   UNL     1      -2.941   6.736   0.053  0.00  0.00    +0.017 A 
ATOM     14  C   UNL     1      -2.563   8.059   0.059  0.00  0.00    +0.008 A 
ATOM     15  C   UNL     1      -1.242   8.373   0.054  0.00  0.00    +0.046 A 
ATOM     16  S   UNL     1      -0.468   6.764   0.049  0.00  0.00    -0.096 S 
ENDBRANCH  11  12
ENDBRANCH   7  10
ENDBRANCH   1   2
BRANCH   1  17
ATOM     17  C   UNL     1       3.682  -1.926  -0.043  0.00  0.00    +0.173 C 
BRANCH  17  24
ATOM     18  C   UNL     1       7.636  -6.956  -0.109  0.00  0.00    +0.160 A 
ATOM     19  N   UNL     1       6.311  -6.963  -0.096  0.00  0.00    -0.133 NA
ATOM     20  N   UNL     1       5.638  -5.896  -0.084  0.00  0.00    -0.125 NA
ATOM     21  C   UNL     1       6.213  -4.705  -0.083  0.00  0.00    +0.189 A 
ATOM     22  S   UNL     1       7.936  -5.191  -0.109  0.00  0.00    -0.024 S 
ATOM     23  N   UNL     1       5.641  -3.435  -0.070  0.00  0.00    -0.263 N 
ATOM     24  C   UNL     1       4.300  -3.300  -0.057  0.00  0.00    +0.229 C 
ATOM     25  O   UNL     1       3.592  -4.284  -0.055  0.00  0.00    -0.275 OA
ATOM     26  H   UNL     1       6.284  -2.542  -0.072  0.00  0.00    +0.157 HD
BRANCH  18  27
ATOM     27  S   UNL     1       8.776  -8.299  -0.128  0.00  0.00    -0.094 S 
BRANCH  27  29
ATOM     28  C   UNL     1       6.912  -9.823  -1.427  0.00  0.00    +0.019 C 
ATOM     29  C   UNL     1       7.718  -9.773  -0.127  0.00  0.00    +0.047 C 
ATOM     30  C   UNL     1       8.589 -11.026  -0.017  0.00  0.00    +0.019 C 
ENDBRANCH  27  29
ENDBRANCH  18  27
ENDBRANCH  17  24
ENDBRANCH   1  17
TORSDOF 7
