REMARK  Name = ZINC61397365
REMARK  5 active torsions:
REMARK  status: ('A' for Active; 'I' for Inactive)
REMARK    1  A    between atoms: C_3  and  C_7
REMARK    2  A    between atoms: C_12  and  C_14
REMARK    3  A    between atoms: C_14  and  C_15
REMARK    4  A    between atoms: C_15  and  N_16
REMARK    5  A    between atoms: N_19  and  C_20
REMARK                            x       y       z     vdW  Elec       q    Type
REMARK                         _______ _______ _______ _____ _____    ______ ____
ROOT
ATOM      1  N   UNL     1       4.565  -3.419  -4.661  0.00  0.00    -0.299 N 
ATOM      2  C   UNL     1       4.328  -3.722  -5.952  0.00  0.00    +0.300 C 
ATOM      3  O   UNL     1       3.659  -2.975  -6.640  0.00  0.00    -0.253 OA
ATOM      4  N   UNL     1       4.833  -4.854  -6.482  0.00  0.00    -0.294 N 
ATOM      5  H   UNL     1       5.098  -4.015  -4.112  0.00  0.00    +0.150 HD
ATOM      6  H   UNL     1       5.367  -5.450  -5.934  0.00  0.00    +0.151 HD
ENDROOT
BRANCH   4   7
ATOM      7  C   UNL     1       4.576  -5.184  -7.886  0.00  0.00    +0.037 C 
ATOM      8  C   UNL     1       3.068  -5.311  -8.112  0.00  0.00    +0.029 C 
ATOM      9  C   UNL     1       2.799  -5.655  -9.579  0.00  0.00    -0.008 C 
ATOM     10  C   UNL     1       3.480  -6.981  -9.924  0.00  0.00    +0.007 C 
ATOM     11  C   UNL     1       4.988  -6.855  -9.697  0.00  0.00    -0.008 C 
ATOM     12  C   UNL     1       5.256  -6.510  -8.231  0.00  0.00    +0.029 C 
ATOM     13  C   UNL     1       5.546  -5.747 -10.592  0.00  0.00    +0.007 C 
ATOM     14  C   UNL     1       4.866  -4.420 -10.247  0.00  0.00    -0.008 C 
ATOM     15  C   UNL     1       3.358  -4.547 -10.473  0.00  0.00    +0.007 C 
ATOM     16  C   UNL     1       5.135  -4.076  -8.781  0.00  0.00    +0.029 C 
ENDBRANCH   4   7
BRANCH   1  17
ATOM     17  C   UNL     1       4.016  -2.188  -4.085  0.00  0.00    +0.115 C 
BRANCH  17  18
ATOM     18  C   UNL     1       4.429  -2.084  -2.615  0.00  0.00    +0.114 C 
BRANCH  18  24
ATOM     19  C   UNL     1       3.614   0.681  -0.029  0.00  0.00    +0.123 C 
ATOM     20  C   UNL     1       4.153   0.615   1.415  0.00  0.00    +0.030 C 
ATOM     21  C   UNL     1       5.380  -0.326   1.286  0.00  0.00    +0.021 C 
ATOM     22  C   UNL     1       4.892  -1.328   0.211  0.00  0.00    +0.108 C 
ATOM     23  N   UNL     1       4.102  -0.515  -0.732  0.00  0.00    -0.293 N 
ATOM     24  C   UNL     1       3.865  -0.819  -2.023  0.00  0.00    +0.218 C 
ATOM     25  O   UNL     1       3.198  -0.073  -2.709  0.00  0.00    -0.276 OA
BRANCH  19  28
ATOM     26  C   UNL     1      -0.016   1.344   0.009  0.00  0.00    +0.019 A 
ATOM     27  C   UNL     1       1.322   1.784  -0.001  0.00  0.00    +0.024 A 
ATOM     28  C   UNL     1       2.107   0.688  -0.014  0.00  0.00    +0.037 A 
ATOM     29  N   UNL     1       1.303  -0.413  -0.013  0.00  0.00    -0.363 N 
ATOM     30  H   UNL     1       1.606  -1.334  -0.021  0.00  0.00    +0.165 HD
ATOM     31  C   UNL     1       0.002  -0.004   0.002  0.00  0.00    +0.083 A 
ENDBRANCH  19  28
ENDBRANCH  18  24
ENDBRANCH  17  18
ENDBRANCH   1  17
TORSDOF 5
