REMARK  Name = ZINC39653747
REMARK  9 active torsions:
REMARK  status: ('A' for Active; 'I' for Inactive)
REMARK    1  A    between atoms: C_1  and  C_2
REMARK    2  A    between atoms: C_2  and  O_3
REMARK    3  A    between atoms: O_3  and  C_4
REMARK    4  A    between atoms: C_7  and  C_10
REMARK    5  A    between atoms: C_10  and  C_11
REMARK    6  A    between atoms: C_11  and  N_12
REMARK    7  A    between atoms: C_13  and  C_15
REMARK    8  A    between atoms: C_26  and  C_28
REMARK    9  A    between atoms: C_31  and  C_35
REMARK                            x       y       z     vdW  Elec       q    Type
REMARK                         _______ _______ _______ _____ _____    ______ ____
ROOT
ATOM      1  C   UNL     1      -1.009 -10.633  -3.286  0.00  0.00    +0.100 C 
ATOM      2  C   UNL     1       0.194 -10.749  -4.248  0.00  0.00    +0.121 C 
ATOM      3  N   UNL     1      -0.211 -11.781  -5.232  0.00  0.00    -0.296 N 
ATOM      4  C   UNL     1      -1.647 -11.509  -5.482  0.00  0.00    +0.115 C 
ATOM      5  C   UNL     1      -2.216 -11.132  -4.099  0.00  0.00    -0.004 C 
ATOM      6  C   UNL     1      -3.253 -10.023  -4.240  0.00  0.00    -0.010 C 
ATOM      7  C   UNL     1      -4.468 -10.560  -5.002  0.00  0.00    -0.082 C 
ATOM      8  N   UNL     1      -5.038 -11.701  -4.276  0.00  0.00    +0.379 N 
ATOM      9  C   UNL     1      -4.065 -12.799  -4.226  0.00  0.00    -0.082 C 
ATOM     10  C   UNL     1      -2.833 -12.357  -3.431  0.00  0.00    -0.010 C 
ATOM     11  C   UNL     1       0.553 -12.749  -5.775  0.00  0.00    +0.249 C 
ATOM     12  O   UNL     1       0.098 -13.467  -6.644  0.00  0.00    -0.270 OA
ATOM     13  H   UNL     1      -5.271 -11.417  -3.336  0.00  0.00    -0.086 HD
ATOM     14  H   UNL     1      -5.873 -12.015  -4.747  0.00  0.00    -0.086 HD
ENDROOT
BRANCH  11  15
ATOM     15  C   UNL     1       1.944 -12.937  -5.316  0.00  0.00    +0.072 A 
ATOM     16  C   UNL     1       2.715 -11.834  -4.942  0.00  0.00    +0.016 A 
ATOM     17  C   UNL     1       4.012 -12.016  -4.513  0.00  0.00    +0.013 A 
ATOM     18  C   UNL     1       4.554 -13.289  -4.453  0.00  0.00    +0.058 A 
ATOM     19  C   UNL     1       3.800 -14.387  -4.821  0.00  0.00    +0.051 A 
ATOM     20  C   UNL     1       2.494 -14.220  -5.247  0.00  0.00    +0.136 A 
ATOM     21  F   UNL     1       1.755 -15.294  -5.602  0.00  0.00    -0.205 F 
BRANCH  18  22
ATOM     22  C   UNL     1       5.973 -13.478  -3.984  0.00  0.00    +0.418 C 
ATOM     23  F   UNL     1       5.986 -13.659  -2.596  0.00  0.00    -0.166 F 
ATOM     24  F   UNL     1       6.524 -14.604  -4.606  0.00  0.00    -0.166 F 
ATOM     25  F   UNL     1       6.728 -12.347  -4.313  0.00  0.00    -0.166 F 
ENDBRANCH  18  22
ENDBRANCH  11  15
BRANCH   1  27
ATOM     26  N   UNL     1      -1.759  -8.916  -1.671  0.00  0.00    -0.315 N 
ATOM     27  C   UNL     1      -1.214  -9.199  -2.871  0.00  0.00    +0.218 C 
ATOM     28  O   UNL     1      -0.888  -8.300  -3.616  0.00  0.00    -0.275 OA
ATOM     29  H   UNL     1      -2.019  -9.635  -1.075  0.00  0.00    +0.149 HD
BRANCH  26  30
ATOM     30  C   UNL     1      -1.957  -7.521  -1.268  0.00  0.00    +0.109 C 
BRANCH  30  31
ATOM     31  C   UNL     1      -2.587  -7.479   0.126  0.00  0.00    +0.054 C 
BRANCH  31  35
ATOM     32  C   UNL     1      -3.166  -3.412   1.304  0.00  0.00    +0.121 A 
ATOM     33  C   UNL     1      -4.167  -4.086   0.618  0.00  0.00    +0.046 A 
ATOM     34  C   UNL     1      -3.977  -5.401   0.238  0.00  0.00    +0.007 A 
ATOM     35  C   UNL     1      -2.791  -6.045   0.541  0.00  0.00    -0.046 A 
ATOM     36  C   UNL     1      -1.793  -5.375   1.225  0.00  0.00    +0.007 A 
ATOM     37  C   UNL     1      -1.976  -4.058   1.601  0.00  0.00    +0.046 A 
BRANCH  32  38
ATOM     38  O   UNL     1      -3.350  -2.118   1.678  0.00  0.00    -0.492 OA
BRANCH  38  40
ATOM     39  C   UNL     1      -4.624  -0.070   1.838  0.00  0.00    +0.048 C 
ATOM     40  C   UNL     1      -4.601  -1.516   1.338  0.00  0.00    +0.225 C 
ENDBRANCH  38  40
ENDBRANCH  32  38
ENDBRANCH  31  35
ENDBRANCH  30  31
ENDBRANCH  26  30
ENDBRANCH   1  27
TORSDOF 8
