REMARK  Name = ZINC13164151
REMARK  13 active torsions:
REMARK  status: ('A' for Active; 'I' for Inactive)
REMARK    1  A    between atoms: C_1  and  C_2
REMARK    2  A    between atoms: C_2  and  O_3
REMARK    3  A    between atoms: O_3  and  C_4
REMARK    4  A    between atoms: C_4  and  C_6
REMARK    5  A    between atoms: C_7  and  C_17
REMARK    6  A    between atoms: C_8  and  C_12
REMARK    7  A    between atoms: C_10  and  N_11
REMARK    8  A    between atoms: C_12  and  O_14
REMARK    9  A    between atoms: O_14  and  C_15
REMARK   10  A    between atoms: C_15  and  C_16
REMARK   11  A    between atoms: C_17  and  S_18
REMARK   12  A    between atoms: S_18  and  C_19
REMARK   13  A    between atoms: N_23  and  C_24
REMARK                            x       y       z     vdW  Elec       q    Type
REMARK                         _______ _______ _______ _____ _____    ______ ____
ROOT
ATOM      1  C   UNL     1       0.426  -5.164   1.156  0.00  0.00    +0.092 A 
ATOM      2  C   UNL     1       0.324  -4.446  -0.025  0.00  0.00    -0.000 A 
ATOM      3  C   UNL     1       0.396  -5.143  -1.202  0.00  0.00    +0.103 A 
ATOM      4  S   UNL     1       0.622  -6.823  -0.650  0.00  0.00    -0.066 S 
ATOM      5  C   UNL     1       0.603  -6.551   1.061  0.00  0.00    +0.078 A 
ENDROOT
BRANCH   5   6
ATOM      6  N   UNL     1       0.729  -7.470   2.076  0.00  0.00    -0.352 N 
ATOM      7  H   UNL     1       0.700  -7.178   3.001  0.00  0.00    +0.143 HD
ATOM      8  H   UNL     1       0.847  -8.410   1.868  0.00  0.00    +0.143 HD
ENDBRANCH   5   6
BRANCH   1   9
ATOM      9  C   UNL     1       0.354  -4.496   2.459  0.00  0.00    +0.342 C 
ATOM     10  O   UNL     1      -0.721  -4.351   3.009  0.00  0.00    -0.245 OA
BRANCH   9  11
ATOM     11  O   UNL     1       1.479  -4.041   3.047  0.00  0.00    -0.461 OA
BRANCH  11  13
ATOM     12  C   UNL     1       2.705  -2.944   4.842  0.00  0.00    +0.048 C 
ATOM     13  C   UNL     1       1.331  -3.389   4.336  0.00  0.00    +0.229 C 
ENDBRANCH  11  13
ENDBRANCH   9  11
ENDBRANCH   1   9
BRANCH   3  14
ATOM     14  C   UNL     1       0.312  -4.635  -2.570  0.00  0.00    +0.346 C 
ATOM     15  O   UNL     1       0.157  -3.445  -2.768  0.00  0.00    -0.244 OA
BRANCH  14  16
ATOM     16  O   UNL     1       0.406  -5.486  -3.612  0.00  0.00    -0.461 OA
BRANCH  16  17
ATOM     17  C   UNL     1       0.315  -4.921  -4.922  0.00  0.00    +0.229 C 
ATOM     18  C   UNL     1       0.443  -6.032  -5.966  0.00  0.00    +0.048 C 
ENDBRANCH  16  17
ENDBRANCH  14  16
ENDBRANCH   3  14
BRANCH   2  19
ATOM     19  C   UNL     1       0.133  -2.951  -0.015  0.00  0.00    +0.114 C 
BRANCH  19  20
ATOM     20  S   UNL     1       1.748  -2.136  -0.027  0.00  0.00    -0.079 S 
BRANCH  20  21
ATOM     21  C   UNL     1       1.240  -0.449  -0.012  0.00  0.00    +0.214 A 
ATOM     22  N   UNL     1       0.002  -0.004   0.002  0.00  0.00    -0.101 NA
ATOM     23  N   UNL     1      -0.015   1.280   0.009  0.00  0.00    -0.022 NA
ATOM     24  N   UNL     1       1.185   1.748   0.000  0.00  0.00    -0.038 NA
ATOM     25  N   UNL     1       2.054   0.643  -0.014  0.00  0.00    -0.187 N 
BRANCH  25  26
ATOM     26  C   UNL     1       3.457   0.661  -0.027  0.00  0.00    +0.073 A 
ATOM     27  C   UNL     1       4.171  -0.314   0.655  0.00  0.00    +0.028 A 
ATOM     28  C   UNL     1       5.552  -0.298   0.637  0.00  0.00    +0.005 A 
ATOM     29  C   UNL     1       6.224   0.695  -0.051  0.00  0.00    +0.038 A 
ATOM     30  C   UNL     1       5.516   1.673  -0.728  0.00  0.00    +0.125 A 
ATOM     31  C   UNL     1       4.132   1.658  -0.718  0.00  0.00    +0.066 A 
ATOM     32  F   UNL     1       6.175   2.643  -1.399  0.00  0.00    -0.205 F 
ENDBRANCH  25  26
ENDBRANCH  20  21
ENDBRANCH  19  20
ENDBRANCH   2  19
TORSDOF 11
