REMARK  Name = ZINC22524148
REMARK  12 active torsions:
REMARK  status: ('A' for Active; 'I' for Inactive)
REMARK    1  A    between atoms: C_1  and  C_2
REMARK    2  A    between atoms: C_3  and  C_35
REMARK    3  A    between atoms: N_4  and  C_29
REMARK    4  A    between atoms: C_5  and  N_9
REMARK    5  A    between atoms: C_6  and  C_7
REMARK    6  A    between atoms: C_10  and  C_12
REMARK    7  A    between atoms: C_12  and  S_13
REMARK    8  A    between atoms: S_13  and  C_14
REMARK    9  A    between atoms: C_17  and  C_24
REMARK   10  A    between atoms: N_18  and  C_19
REMARK   11  A    between atoms: C_19  and  C_20
REMARK   12  A    between atoms: C_20  and  C_21
REMARK                            x       y       z     vdW  Elec       q    Type
REMARK                         _______ _______ _______ _____ _____    ______ ____
ROOT
ATOM      1  N   UNL     1       3.302   4.076   0.089  0.00  0.00    -0.270 N 
ATOM      2  C   UNL     1       2.326   3.443  -0.592  0.00  0.00    +0.229 C 
ATOM      3  O   UNL     1       1.544   4.081  -1.264  0.00  0.00    -0.275 OA
ATOM      4  H   UNL     1       3.958   3.508   0.765  0.00  0.00    +0.156 HD
ENDROOT
BRANCH   1   9
ATOM      5  C   UNL     1       5.121   8.610  -1.206  0.00  0.00    +0.047 C 
ATOM      6  C   UNL     1       4.273   7.506  -0.629  0.00  0.00    -0.010 A 
ATOM      7  C   UNL     1       3.149   7.652   0.091  0.00  0.00    +0.027 A 
ATOM      8  N   UNL     1       2.667   6.415   0.435  0.00  0.00    -0.300 N 
ATOM      9  C   UNL     1       3.478   5.443  -0.062  0.00  0.00    +0.128 A 
ATOM     10  C   UNL     1       4.518   6.062  -0.743  0.00  0.00    +0.095 A 
ATOM     11  C   UNL     1       2.517   8.969   0.464  0.00  0.00    +0.064 C 
BRANCH   8  12
ATOM     12  C   UNL     1       1.508   6.186   1.189  0.00  0.00    +0.048 A 
ATOM     13  C   UNL     1       0.263   6.510   0.667  0.00  0.00    +0.026 A 
ATOM     14  C   UNL     1      -0.877   6.279   1.411  0.00  0.00    +0.002 A 
ATOM     15  C   UNL     1      -0.779   5.735   2.679  0.00  0.00    +0.000 A 
ATOM     16  C   UNL     1       0.460   5.416   3.203  0.00  0.00    +0.002 A 
ATOM     17  C   UNL     1       1.603   5.640   2.462  0.00  0.00    +0.026 A 
ENDBRANCH   8  12
BRANCH  10  18
ATOM     18  C   UNL     1       5.606   5.424  -1.419  0.00  0.00    +0.103 C 
ATOM     19  N   UNL     1       6.470   4.917  -1.956  0.00  0.00    -0.191 NA
ENDBRANCH  10  18
ENDBRANCH   1   9
BRANCH   2  20
ATOM     20  C   UNL     1       2.208   1.942  -0.519  0.00  0.00    +0.173 C 
BRANCH  20  21
ATOM     21  S   UNL     1       0.811   1.397  -1.534  0.00  0.00    -0.077 S 
BRANCH  21  22
ATOM     22  C   UNL     1       0.904  -0.343  -1.272  0.00  0.00    +0.192 A 
ATOM     23  N   UNL     1       1.787  -0.973  -0.531  0.00  0.00    -0.122 NA
ATOM     24  N   UNL     1       1.564  -2.239  -0.557  0.00  0.00    -0.125 NA
ATOM     25  C   UNL     1       0.528  -2.496  -1.325  0.00  0.00    +0.200 A 
ATOM     26  N   UNL     1       0.074  -1.288  -1.807  0.00  0.00    -0.299 N 
BRANCH  25  27
ATOM     27  C   UNL     1      -0.037  -3.823  -1.616  0.00  0.00    +0.172 A 
ATOM     28  C   UNL     1       0.571  -5.020  -1.385  0.00  0.00    +0.053 A 
ATOM     29  C   UNL     1      -0.327  -6.019  -1.809  0.00  0.00    +0.042 A 
ATOM     30  C   UNL     1      -1.423  -5.392  -2.280  0.00  0.00    +0.196 A 
ATOM     31  O   UNL     1      -1.245  -4.066  -2.162  0.00  0.00    -0.460 OA
ENDBRANCH  25  27
BRANCH  26  32
ATOM     32  C   UNL     1      -1.062  -1.063  -2.705  0.00  0.00    +0.135 C 
BRANCH  32  33
ATOM     33  C   UNL     1      -0.581  -1.110  -4.157  0.00  0.00    +0.117 C 
BRANCH  33  34
ATOM     34  C   UNL     1      -1.749  -0.879  -5.080  0.00  0.00    +0.212 C 
ATOM     35  O   UNL     1      -2.857  -0.695  -4.623  0.00  0.00    -0.276 OA
ATOM     36  N   UNL     1      -1.562  -0.877  -6.415  0.00  0.00    -0.329 N 
ATOM     37  H   UNL     1      -2.415  -0.708  -7.089  0.00  0.00    +0.145 HD
ATOM     38  H   UNL     1      -0.557  -1.044  -6.830  0.00  0.00    +0.145 HD
ENDBRANCH  33  34
ENDBRANCH  32  33
ENDBRANCH  26  32
ENDBRANCH  21  22
ENDBRANCH  20  21
ENDBRANCH   2  20
TORSDOF 10
