REMARK  Name = ZINC13052767
REMARK  7 active torsions:
REMARK  status: ('A' for Active; 'I' for Inactive)
REMARK    1  A    between atoms: C_6  and  C_7
REMARK    2  A    between atoms: C_10  and  S_21
REMARK    3  A    between atoms: N_11  and  C_14
REMARK    4  A    between atoms: C_14  and  C_15
REMARK    5  A    between atoms: S_21  and  C_22
REMARK    6  A    between atoms: C_22  and  C_23
REMARK    7  A    between atoms: N_25  and  C_26
REMARK                            x       y       z     vdW  Elec       q    Type
REMARK                         _______ _______ _______ _____ _____    ______ ____
ROOT
ATOM      1  C   UNL     1      -5.279   1.595   6.312  0.00  0.00    +0.016 A 
ATOM      2  C   UNL     1      -4.638   1.044   5.239  0.00  0.00    +0.016 A 
ATOM      3  C   UNL     1      -3.330   1.425   4.941  0.00  0.00    +0.065 A 
ATOM      4  C   UNL     1      -2.665   2.379   5.744  0.00  0.00    +0.080 A 
ATOM      5  C   UNL     1      -3.331   2.936   6.839  0.00  0.00    +0.043 A 
ATOM      6  C   UNL     1      -4.634   2.542   7.118  0.00  0.00    +0.065 A 
ATOM      7  N   UNL     1      -1.395   2.732   5.434  0.00  0.00    -0.223 NA
ATOM      8  C   UNL     1      -0.767   2.207   4.411  0.00  0.00    +0.173 A 
ATOM      9  N   UNL     1      -1.337   1.284   3.581  0.00  0.00    -0.285 N 
ATOM     10  C   UNL     1      -2.603   0.856   3.795  0.00  0.00    +0.262 A 
ATOM     11  O   UNL     1      -3.120   0.030   3.066  0.00  0.00    -0.267 OA
ENDROOT
BRANCH   6  12
ATOM     12  C   UNL     1      -5.346   3.127   8.275  0.00  0.00    +0.387 C 
ATOM     13  O   UNL     1      -4.792   3.949   8.977  0.00  0.00    -0.241 OA
ATOM     14  O   UNL     1      -6.609   2.749   8.551  0.00  0.00    -0.241 OA
ENDBRANCH   6  12
BRANCH   9  15
ATOM     15  C   UNL     1      -0.569   0.749   2.454  0.00  0.00    +0.159 C 
BRANCH  15  16
ATOM     16  C   UNL     1      -0.802   1.621   1.219  0.00  0.00    +0.138 C 
ATOM     17  C   UNL     1      -0.001   1.077   0.008  0.00  0.00    +0.035 C 
ATOM     18  C   UNL     1      -0.812   1.625  -1.191  0.00  0.00    +0.031 C 
ATOM     19  C   UNL     1      -2.204   1.923  -0.601  0.00  0.00    +0.160 C 
ATOM     20  O   UNL     1      -2.176   1.528   0.781  0.00  0.00    -0.375 OA
ENDBRANCH  15  16
ENDBRANCH   9  15
BRANCH   8  21
ATOM     21  S   UNL     1       0.886   2.721   4.087  0.00  0.00    -0.078 S 
BRANCH  21  22
ATOM     22  C   UNL     1       1.120   3.901   5.439  0.00  0.00    +0.173 C 
BRANCH  22  23
ATOM     23  C   UNL     1       2.506   4.486   5.362  0.00  0.00    +0.227 C 
ATOM     24  O   UNL     1       3.263   4.139   4.479  0.00  0.00    -0.275 OA
ATOM     25  N   UNL     1       2.906   5.394   6.274  0.00  0.00    -0.285 N 
ATOM     26  H   UNL     1       2.281   5.721   6.939  0.00  0.00    +0.155 HD
BRANCH  25  27
ATOM     27  C   UNL     1       4.226   5.866   6.260  0.00  0.00    +0.037 A 
ATOM     28  C   UNL     1       4.867   6.169   7.454  0.00  0.00    +0.027 A 
ATOM     29  C   UNL     1       6.170   6.628   7.443  0.00  0.00    +0.051 A 
ATOM     30  C   UNL     1       6.836   6.800   6.241  0.00  0.00    +0.166 A 
ATOM     31  C   UNL     1       6.194   6.502   5.041  0.00  0.00    +0.168 A 
ATOM     32  C   UNL     1       4.890   6.036   5.054  0.00  0.00    +0.072 A 
ATOM     33  O   UNL     1       7.054   6.752   4.011  0.00  0.00    -0.453 OA
ATOM     34  C   UNL     1       8.362   6.816   4.610  0.00  0.00    +0.466 C 
ATOM     35  O   UNL     1       8.100   7.237   5.962  0.00  0.00    -0.453 OA
ENDBRANCH  25  27
ENDBRANCH  22  23
ENDBRANCH  21  22
ENDBRANCH   8  21
TORSDOF 7
