REMARK  Name = ZINC17665539
REMARK  13 active torsions:
REMARK  status: ('A' for Active; 'I' for Inactive)
REMARK    1  A    between atoms: C_1  and  C_2
REMARK    2  A    between atoms: C_2  and  O_3
REMARK    3  A    between atoms: O_3  and  C_4
REMARK    4  A    between atoms: C_4  and  C_6
REMARK    5  A    between atoms: C_7  and  C_35
REMARK    6  A    between atoms: C_8  and  C_34
REMARK    7  A    between atoms: C_10  and  N_11
REMARK    8  A    between atoms: C_12  and  C_14
REMARK    9  A    between atoms: C_14  and  O_15
REMARK   10  A    between atoms: O_15  and  C_16
REMARK   11  A    between atoms: C_16  and  C_18
REMARK   12  A    between atoms: C_30  and  C_33
REMARK   13  A    between atoms: C_35  and  C_37
REMARK                            x       y       z     vdW  Elec       q    Type
REMARK                         _______ _______ _______ _____ _____    ______ ____
ROOT
ATOM      1  C   UNL     1      -5.447   5.034   7.159  0.00  0.00    +0.328 C 
ENDROOT
BRANCH   1   3
ATOM      2  N   UNL     1      -6.323   5.529   9.419  0.00  0.00    -0.253 N 
ATOM      3  C   UNL     1      -5.482   4.810   8.649  0.00  0.00    +0.257 C 
ATOM      4  O   UNL     1      -4.755   3.982   9.155  0.00  0.00    -0.272 OA
ATOM      5  H   UNL     1      -6.905   6.191   9.014  0.00  0.00    +0.158 HD
BRANCH   2  10
ATOM      6  C   UNL     1      -7.163   5.996  11.684  0.00  0.00    +0.130 A 
ATOM      7  C   UNL     1      -6.833   5.421  13.009  0.00  0.00    +0.074 A 
ATOM      8  C   UNL     1      -5.870   4.485  12.773  0.00  0.00    +0.116 A 
ATOM      9  O   UNL     1      -5.606   4.445  11.462  0.00  0.00    -0.445 OA
ATOM     10  C   UNL     1      -6.356   5.324  10.784  0.00  0.00    +0.207 A 
ATOM     11  C   UNL     1      -5.208   3.630  13.823  0.00  0.00    +0.087 C 
BRANCH   7  12
ATOM     12  C   UNL     1      -7.414   5.785  14.303  0.00  0.00    +0.164 C 
ATOM     13  O   UNL     1      -6.923   6.680  14.958  0.00  0.00    -0.292 OA
ATOM     14  C   UNL     1      -8.623   5.049  14.820  0.00  0.00    +0.092 C 
ENDBRANCH   7  12
BRANCH   6  15
ATOM     15  C   UNL     1      -8.138   7.048  11.389  0.00  0.00    +0.345 C 
ATOM     16  O   UNL     1      -9.292   6.756  11.139  0.00  0.00    -0.245 OA
BRANCH  15  17
ATOM     17  O   UNL     1      -7.756   8.342  11.395  0.00  0.00    -0.461 OA
BRANCH  17  19
ATOM     18  C   UNL     1      -8.159  10.731  11.148  0.00  0.00    +0.048 C 
ATOM     19  C   UNL     1      -8.775   9.331  11.095  0.00  0.00    +0.229 C 
ENDBRANCH  17  19
ENDBRANCH  15  17
ENDBRANCH   6  15
ENDBRANCH   2  10
ENDBRANCH   1   3
BRANCH   1  20
ATOM     20  O   UNL     1      -4.468   4.144   6.559  0.00  0.00    -0.452 OA
BRANCH  20  21
ATOM     21  C   UNL     1      -4.312   4.218   5.223  0.00  0.00    +0.340 C 
ATOM     22  O   UNL     1      -4.975   5.005   4.577  0.00  0.00    -0.245 OA
BRANCH  21  23
ATOM     23  C   UNL     1      -3.336   3.345   4.545  0.00  0.00    +0.060 A 
ATOM     24  C   UNL     1      -2.580   2.445   5.305  0.00  0.00    +0.017 A 
ATOM     25  C   UNL     1      -1.657   1.606   4.741  0.00  0.00    +0.027 A 
ATOM     26  C   UNL     1      -1.488   1.676   3.357  0.00  0.00    +0.047 A 
ATOM     27  C   UNL     1      -2.249   2.585   2.573  0.00  0.00    +0.004 A 
ATOM     28  C   UNL     1      -3.187   3.435   3.157  0.00  0.00    +0.025 A 
ATOM     29  C   UNL     1      -1.820   2.388   1.204  0.00  0.00    -0.019 A 
ATOM     30  C   UNL     1      -0.871   1.424   1.222  0.00  0.00    +0.020 A 
ATOM     31  N   UNL     1      -0.671   0.995   2.506  0.00  0.00    -0.358 N 
ATOM     32  H   UNL     1      -0.039   0.308   2.771  0.00  0.00    +0.166 HD
ATOM     33  C   UNL     1      -0.170   0.919  -0.017  0.00  0.00    +0.054 C 
ATOM     34  C   UNL     1      -0.977   1.345  -1.248  0.00  0.00    +0.009 C 
ATOM     35  C   UNL     1      -1.282   2.844  -1.163  0.00  0.00    -0.009 C 
ATOM     36  C   UNL     1      -2.298   3.091  -0.041  0.00  0.00    +0.040 C 
ATOM     37  C   UNL     1      -1.865   3.323  -2.494  0.00  0.00    +0.008 C 
ENDBRANCH  21  23
ENDBRANCH  20  21
ENDBRANCH   1  20
TORSDOF 9
