REMARK  Name = ZINC25260606
REMARK  11 active torsions:
REMARK  status: ('A' for Active; 'I' for Inactive)
REMARK    1  A    between atoms: C_3  and  C_9
REMARK    2  A    between atoms: C_6  and  C_7
REMARK    3  A    between atoms: C_12  and  O_15
REMARK    4  A    between atoms: O_15  and  C_16
REMARK    5  A    between atoms: C_16  and  C_17
REMARK    6  A    between atoms: N_19  and  N_20
REMARK    7  A    between atoms: C_21  and  C_23
REMARK    8  A    between atoms: C_23  and  C_24
REMARK    9  A    between atoms: C_24  and  N_25
REMARK   10  A    between atoms: C_26  and  C_28
REMARK   11  A    between atoms: C_31  and  N_34
REMARK                            x       y       z     vdW  Elec       q    Type
REMARK                         _______ _______ _______ _____ _____    ______ ____
ROOT
ATOM      1  C   UNL     1       6.321  -8.971  -0.105  0.00  0.00    +0.267 C 
ATOM      2  O   UNL     1       7.360  -8.345  -0.112  0.00  0.00    -0.271 OA
ATOM      3  N   UNL     1       5.142  -8.319  -0.090  0.00  0.00    -0.232 N 
ATOM      4  H   UNL     1       4.199  -8.887  -0.084  0.00  0.00    +0.173 HD
ENDROOT
BRANCH   3   5
ATOM      5  N   UNL     1       5.116  -6.919  -0.083  0.00  0.00    -0.234 N 
ATOM      6  C   UNL     1       3.936  -6.267  -0.068  0.00  0.00    +0.231 C 
ATOM      7  O   UNL     1       2.897  -6.893  -0.061  0.00  0.00    -0.274 OA
ATOM      8  H   UNL     1       6.058  -6.351  -0.089  0.00  0.00    +0.173 HD
BRANCH   6   9
ATOM      9  C   UNL     1       3.908  -4.760  -0.060  0.00  0.00    +0.116 C 
BRANCH   9  10
ATOM     10  C   UNL     1       2.456  -4.277  -0.043  0.00  0.00    +0.114 C 
BRANCH  10  11
ATOM     11  N   UNL     1       2.429  -2.812  -0.036  0.00  0.00    -0.311 N 
ATOM     12  C   UNL     1       1.250  -2.160  -0.021  0.00  0.00    +0.244 C 
ATOM     13  O   UNL     1       0.208  -2.788  -0.014  0.00  0.00    -0.270 OA
ATOM     14  H   UNL     1       3.371  -2.245  -0.042  0.00  0.00    +0.149 HD
BRANCH  12  15
ATOM     15  C   UNL     1       1.222  -0.682  -0.013  0.00  0.00    +0.037 A 
ATOM     16  C   UNL     1       0.002  -0.004   0.002  0.00  0.00    +0.015 A 
ATOM     17  C   UNL     1      -0.017   1.375   0.010  0.00  0.00    +0.033 A 
ATOM     18  C   UNL     1       1.170   2.086   0.002  0.00  0.00    +0.126 A 
ATOM     19  C   UNL     1       2.383   1.420  -0.013  0.00  0.00    +0.033 A 
ATOM     20  C   UNL     1       2.416   0.041  -0.021  0.00  0.00    +0.015 A 
BRANCH  18  21
ATOM     21  N   UNL     1       1.143   3.566   0.010  0.00  0.00    +0.056 N 
ATOM     22  O   UNL     1       0.077   4.155   0.023  0.00  0.00    -0.126 OA
ATOM     23  O   UNL     1       2.186   4.195   0.003  0.00  0.00    -0.126 OA
ENDBRANCH  18  21
ENDBRANCH  12  15
ENDBRANCH  10  11
ENDBRANCH   9  10
ENDBRANCH   6   9
ENDBRANCH   3   5
BRANCH   1  24
ATOM     24  C   UNL     1       6.349 -10.478  -0.113  0.00  0.00    +0.326 C 
BRANCH  24  25
ATOM     25  O   UNL     1       7.705 -10.929  -0.128  0.00  0.00    -0.483 OA
BRANCH  25  29
ATOM     26  C   UNL     1       8.322 -15.011  -0.153  0.00  0.00    -0.018 A 
ATOM     27  C   UNL     1       9.411 -14.140  -0.160  0.00  0.00    +0.012 A 
ATOM     28  C   UNL     1       9.202 -12.777  -0.152  0.00  0.00    +0.046 A 
ATOM     29  C   UNL     1       7.908 -12.272  -0.137  0.00  0.00    +0.121 A 
ATOM     30  C   UNL     1       6.822 -13.137  -0.125  0.00  0.00    +0.046 A 
ATOM     31  C   UNL     1       7.025 -14.501  -0.139  0.00  0.00    +0.012 A 
BRANCH  26  34
ATOM     32  C   UNL     1       7.657 -18.708  -0.163  0.00  0.00    +0.019 A 
ATOM     33  C   UNL     1       7.453 -17.347  -0.155  0.00  0.00    +0.010 A 
ATOM     34  C   UNL     1       8.544 -16.477  -0.162  0.00  0.00    -0.018 A 
ATOM     35  C   UNL     1       9.843 -16.985  -0.182  0.00  0.00    +0.010 A 
ATOM     36  C   UNL     1      10.050 -18.346  -0.183  0.00  0.00    +0.019 A 
ATOM     37  C   UNL     1       8.959 -19.219  -0.177  0.00  0.00    +0.052 A 
BRANCH  37  38
ATOM     38  C   UNL     1       9.172 -20.634  -0.186  0.00  0.00    +0.099 C 
ATOM     39  N   UNL     1       9.342 -21.758  -0.193  0.00  0.00    -0.191 NA
ENDBRANCH  37  38
ENDBRANCH  26  34
ENDBRANCH  25  29
ENDBRANCH  24  25
ENDBRANCH   1  24
TORSDOF 11
