REMARK  Name = ZINC58450091
REMARK  13 active torsions:
REMARK  status: ('A' for Active; 'I' for Inactive)
REMARK    1  A    between atoms: C_1  and  C_2
REMARK    2  A    between atoms: C_2  and  C_3
REMARK    3  A    between atoms: C_3  and  C_7
REMARK    4  A    between atoms: C_4  and  C_6
REMARK    5  A    between atoms: C_7  and  C_9
REMARK    6  A    between atoms: C_9  and  O_10
REMARK    7  A    between atoms: O_10  and  C_11
REMARK    8  A    between atoms: C_11  and  C_13
REMARK    9  A    between atoms: C_16  and  O_21
REMARK   10  A    between atoms: C_17  and  O_19
REMARK   11  A    between atoms: O_19  and  C_20
REMARK   12  A    between atoms: O_21  and  C_22
REMARK   13  A    between atoms: C_27  and  N_28
REMARK                            x       y       z     vdW  Elec       q    Type
REMARK                         _______ _______ _______ _____ _____    ______ ____
ROOT
ATOM      1  C   UNL     1       1.365  -6.852  -0.920  0.00  0.00    +0.063 A 
ATOM      2  C   UNL     1       0.962  -7.474   0.266  0.00  0.00    +0.019 A 
ATOM      3  C   UNL     1       1.069  -8.841   0.397  0.00  0.00    +0.051 A 
ATOM      4  C   UNL     1       1.575  -9.605  -0.646  0.00  0.00    +0.170 A 
ATOM      5  C   UNL     1       1.979  -8.991  -1.831  0.00  0.00    +0.163 A 
ATOM      6  C   UNL     1       1.870  -7.622  -1.972  0.00  0.00    +0.064 A 
ENDROOT
BRANCH   1   7
ATOM      7  C   UNL     1       1.251  -5.389  -1.062  0.00  0.00    +0.340 C 
ATOM      8  O   UNL     1       1.597  -4.851  -2.095  0.00  0.00    -0.245 OA
BRANCH   7   9
ATOM      9  O   UNL     1       0.764  -4.649  -0.047  0.00  0.00    -0.453 OA
BRANCH   9  10
ATOM     10  C   UNL     1       0.682  -3.237  -0.254  0.00  0.00    +0.312 C 
BRANCH  10  11
ATOM     11  C   UNL     1       0.118  -2.580   0.979  0.00  0.00    +0.205 C 
ATOM     12  O   UNL     1      -0.094  -3.241   1.975  0.00  0.00    -0.288 OA
BRANCH  11  13
ATOM     13  C   UNL     1      -0.172  -1.148   0.976  0.00  0.00    +0.083 C 
ATOM     14  C   UNL     1      -0.805  -0.572   2.055  0.00  0.00    +0.165 C 
ATOM     15  O   UNL     1      -0.936   0.763   2.122  0.00  0.00    -0.292 OA
ATOM     16  C   UNL     1      -1.349  -1.439   3.162  0.00  0.00    +0.092 C 
BRANCH  13  18
ATOM     17  C   UNL     1       1.651   0.068  -0.383  0.00  0.00    +0.066 C 
ATOM     18  C   UNL     1       0.210  -0.322  -0.180  0.00  0.00    +0.043 C 
ATOM     19  N   UNL     1      -0.692   0.070  -1.023  0.00  0.00    -0.303 NA
ATOM     20  H   UNL     1      -1.629  -0.120  -0.854  0.00  0.00    +0.186 HD
ENDBRANCH  13  18
ENDBRANCH  11  13
ENDBRANCH  10  11
ENDBRANCH   9  10
ENDBRANCH   7   9
ENDBRANCH   1   7
BRANCH   5  21
ATOM     21  O   UNL     1       2.475  -9.742  -2.851  0.00  0.00    -0.491 OA
ATOM     22  C   UNL     1       2.869  -9.048  -4.036  0.00  0.00    +0.277 C 
ENDBRANCH   5  21
BRANCH   4  23
ATOM     23  O   UNL     1       1.679 -10.952  -0.511  0.00  0.00    -0.450 OA
BRANCH  23  24
ATOM     24  C   UNL     1       2.879 -11.465  -0.135  0.00  0.00    +0.159 A 
ATOM     25  C   UNL     1       3.922 -10.616   0.207  0.00  0.00    +0.050 A 
ATOM     26  C   UNL     1       5.141 -11.139   0.589  0.00  0.00    +0.024 A 
ATOM     27  C   UNL     1       5.324 -12.511   0.632  0.00  0.00    +0.043 A 
ATOM     28  C   UNL     1       4.285 -13.360   0.291  0.00  0.00    +0.056 A 
ATOM     29  C   UNL     1       3.062 -12.840  -0.085  0.00  0.00    +0.170 A 
ATOM     30 CL   UNL     1       6.857 -13.166   1.112  0.00  0.00    -0.083 Cl
BRANCH  29  31
ATOM     31  N   UNL     1       1.950 -13.748  -0.442  0.00  0.00    +0.060 N 
ATOM     32  O   UNL     1       2.109 -14.946  -0.399  0.00  0.00    -0.126 OA
ATOM     33  O   UNL     1       0.881 -13.293  -0.777  0.00  0.00    -0.126 OA
ENDBRANCH  29  31
ENDBRANCH  23  24
ENDBRANCH   4  23
TORSDOF 10
