REMARK  Name = ZINC64900275
REMARK  5 active torsions:
REMARK  status: ('A' for Active; 'I' for Inactive)
REMARK    1  A    between atoms: C_6  and  C_7
REMARK    2  A    between atoms: C_8  and  C_9
REMARK    3  A    between atoms: C_16  and  C_17
REMARK    4  A    between atoms: N_19  and  N_20
REMARK    5  A    between atoms: N_23  and  C_24
REMARK                            x       y       z     vdW  Elec       q    Type
REMARK                         _______ _______ _______ _____ _____    ______ ____
ROOT
ATOM      1  C   UNL     1      -3.160  -3.290  -1.893  0.00  0.00    +0.240 C 
ATOM      2  O   UNL     1      -4.183  -2.692  -1.614  0.00  0.00    -0.271 OA
ATOM      3  N   UNL     1      -2.821  -4.400  -1.208  0.00  0.00    -0.286 N 
ATOM      4  C   UNL     1      -1.533  -5.064  -1.451  0.00  0.00    +0.109 C 
ATOM      5  C   UNL     1      -0.799  -5.220  -0.116  0.00  0.00    +0.019 C 
ATOM      6  C   UNL     1      -1.705  -5.949   0.878  0.00  0.00    +0.004 C 
ATOM      7  C   UNL     1      -2.972  -5.125   1.117  0.00  0.00    +0.032 C 
ATOM      8  C   UNL     1      -3.728  -4.965  -0.201  0.00  0.00    +0.164 C 
ENDROOT
BRANCH   8   9
ATOM      9  C   UNL     1      -4.899  -4.038   0.001  0.00  0.00    +0.250 C 
ATOM     10  O   UNL     1      -4.725  -2.934   0.473  0.00  0.00    -0.272 OA
ATOM     11  N   UNL     1      -6.140  -4.435  -0.344  0.00  0.00    -0.232 N 
ATOM     12  H   UNL     1      -6.279  -5.318  -0.722  0.00  0.00    +0.173 HD
BRANCH  11  13
ATOM     13  N   UNL     1      -7.229  -3.574  -0.157  0.00  0.00    -0.218 N 
ATOM     14  C   UNL     1      -8.470  -3.971  -0.501  0.00  0.00    +0.316 C 
ATOM     15  O   UNL     1      -9.415  -3.223  -0.339  0.00  0.00    -0.251 OA
ATOM     16  N   UNL     1      -8.663  -5.197  -1.026  0.00  0.00    -0.295 N 
ATOM     17  H   UNL     1      -7.090  -2.691   0.221  0.00  0.00    +0.174 HD
ATOM     18  H   UNL     1      -7.910  -5.794  -1.155  0.00  0.00    +0.151 HD
BRANCH  16  19
ATOM     19  C   UNL     1     -10.012  -5.629  -1.400  0.00  0.00    +0.075 C 
ATOM     20  C   UNL     1     -10.431  -7.050  -1.018  0.00  0.00    +0.024 C 
ATOM     21  C   UNL     1     -10.135  -6.707  -2.479  0.00  0.00    +0.024 C 
ENDBRANCH  16  19
ENDBRANCH  11  13
ENDBRANCH   8   9
BRANCH   1  23
ATOM     22  C   UNL     1      -2.578  -1.633  -3.582  0.00  0.00    +0.013 C 
ATOM     23  C   UNL     1      -2.300  -2.804  -2.973  0.00  0.00    +0.068 C 
BRANCH  22  29
ATOM     24  C   UNL     1      -1.998   0.069  -5.301  0.00  0.00    +0.009 A 
ATOM     25  C   UNL     1      -1.183   0.521  -6.317  0.00  0.00    +0.020 A 
ATOM     26  C   UNL     1      -0.083  -0.224  -6.710  0.00  0.00    +0.041 A 
ATOM     27  C   UNL     1       0.206  -1.427  -6.087  0.00  0.00    +0.020 A 
ATOM     28  C   UNL     1      -0.601  -1.891  -5.070  0.00  0.00    +0.009 A 
ATOM     29  C   UNL     1      -1.713  -1.145  -4.667  0.00  0.00    -0.025 A 
ATOM     30 CL   UNL     1       0.938   0.352  -7.991  0.00  0.00    -0.084 Cl
ENDBRANCH  22  29
ENDBRANCH   1  23
TORSDOF 5
