REMARK  Name = ZINC10021897
REMARK  7 active torsions:
REMARK  status: ('A' for Active; 'I' for Inactive)
REMARK    1  A    between atoms: C_1  and  C_2
REMARK    2  A    between atoms: C_2  and  C_4
REMARK    3  A    between atoms: C_2  and  O_16
REMARK    4  A    between atoms: N_6  and  C_7
REMARK    5  A    between atoms: C_11  and  N_13
REMARK    6  A    between atoms: O_16  and  C_17
REMARK    7  A    between atoms: C_17  and  C_19
REMARK                            x       y       z     vdW  Elec       q    Type
REMARK                         _______ _______ _______ _____ _____    ______ ____
ROOT
ATOM      1  O   UNL     1      -0.643   3.500  -1.585  0.00  0.00    -0.452 OA
ENDROOT
BRANCH   1   3
ATOM      2  C   UNL     1      -0.662   3.843  -3.995  0.00  0.00    +0.062 C 
ATOM      3  C   UNL     1      -1.506   3.765  -2.722  0.00  0.00    +0.259 C 
BRANCH   3   4
ATOM      4  C   UNL     1      -2.223   5.075  -2.514  0.00  0.00    +0.258 C 
ATOM      5  O   UNL     1      -1.959   5.764  -1.551  0.00  0.00    -0.271 OA
ATOM      6  N   UNL     1      -3.157   5.480  -3.397  0.00  0.00    -0.282 N 
ATOM      7  H   UNL     1      -3.314   4.967  -4.206  0.00  0.00    +0.155 HD
BRANCH   6   8
ATOM      8  C   UNL     1      -3.900   6.639  -3.147  0.00  0.00    +0.036 A 
ATOM      9  C   UNL     1      -4.231   6.986  -1.844  0.00  0.00    +0.023 A 
ATOM     10  C   UNL     1      -4.960   8.134  -1.601  0.00  0.00    +0.004 A 
ATOM     11  C   UNL     1      -5.369   8.931  -2.654  0.00  0.00    +0.033 A 
ATOM     12  C   UNL     1      -5.047   8.585  -3.953  0.00  0.00    +0.128 A 
ATOM     13  C   UNL     1      -4.313   7.441  -4.203  0.00  0.00    +0.056 A 
BRANCH  12  14
ATOM     14  N   UNL     1      -5.488   9.440  -5.078  0.00  0.00    +0.056 N 
ATOM     15  O   UNL     1      -5.204   9.135  -6.222  0.00  0.00    -0.126 OA
ATOM     16  O   UNL     1      -6.135  10.448  -4.858  0.00  0.00    -0.126 OA
ENDBRANCH  12  14
ENDBRANCH   6   8
ENDBRANCH   3   4
ENDBRANCH   1   3
BRANCH   1  17
ATOM     17  C   UNL     1      -0.424   2.213  -1.274  0.00  0.00    +0.311 C 
ATOM     18  O   UNL     1      -0.936   1.337  -1.930  0.00  0.00    -0.251 OA
BRANCH  17  19
ATOM     19  C   UNL     1       0.468   1.857  -0.096  0.00  0.00    +0.098 C 
ATOM     20  C   UNL     1       1.827   2.502  -0.321  0.00  0.00    +0.020 C 
ATOM     21  C   UNL     1       2.907   1.961   0.608  0.00  0.00    +0.016 C 
ATOM     22  C   UNL     1       2.656   2.376   2.055  0.00  0.00    +0.006 C 
ATOM     23  C   UNL     1       1.421   1.717   2.648  0.00  0.00    +0.001 C 
ATOM     24  C   UNL     1       1.342   0.222   2.389  0.00  0.00    +0.006 C 
ATOM     25  C   UNL     1       1.636  -0.146   0.939  0.00  0.00    +0.016 C 
ATOM     26  C   UNL     1       0.529   0.341   0.011  0.00  0.00    +0.020 C 
ATOM     27  C   UNL     1       2.966   0.448   0.515  0.00  0.00    +0.068 C 
ATOM     28  S   UNL     1       3.413  -0.086  -1.176  0.00  0.00    -0.142 S 
ATOM     29  C   UNL     1       5.218  -0.395  -1.037  0.00  0.00    +0.081 C 
ATOM     30  C   UNL     1       5.405  -1.098   0.332  0.00  0.00    +0.081 C 
ATOM     31  S   UNL     1       4.333  -0.218   1.526  0.00  0.00    -0.142 S 
ENDBRANCH  17  19
ENDBRANCH   1  17
TORSDOF 6
