REMARK  Name = ZINC25102331
REMARK  14 active torsions:
REMARK  status: ('A' for Active; 'I' for Inactive)
REMARK    1  A    between atoms: C_1  and  C_2
REMARK    2  A    between atoms: C_2  and  C_4
REMARK    3  A    between atoms: C_2  and  S_16
REMARK    4  A    between atoms: N_6  and  C_7
REMARK    5  A    between atoms: C_12  and  N_13
REMARK    6  A    between atoms: S_16  and  C_17
REMARK    7  A    between atoms: C_20  and  C_27
REMARK    8  A    between atoms: N_21  and  C_22
REMARK    9  A    between atoms: C_22  and  C_23
REMARK   10  A    between atoms: C_23  and  C_24
REMARK   11  A    between atoms: C_24  and  C_25
REMARK   12  A    between atoms: C_24  and  C_26
REMARK   13  A    between atoms: C_27  and  O_28
REMARK   14  A    between atoms: O_28  and  C_29
REMARK                            x       y       z     vdW  Elec       q    Type
REMARK                         _______ _______ _______ _____ _____    ______ ____
ROOT
ATOM      1  C   UNL     1      -0.206   0.004  -2.794  0.00  0.00    +0.192 A 
ATOM      2  N   UNL     1      -1.322   0.686  -2.670  0.00  0.00    -0.122 NA
ATOM      3  N   UNL     1      -1.820   0.922  -3.831  0.00  0.00    -0.130 NA
ATOM      4  C   UNL     1      -1.060   0.409  -4.757  0.00  0.00    +0.172 A 
ATOM      5  N   UNL     1      -0.002  -0.189  -4.130  0.00  0.00    -0.303 N 
ENDROOT
BRANCH   1   6
ATOM      6  S   UNL     1       0.833  -0.550  -1.484  0.00  0.00    -0.074 S 
BRANCH   6   8
ATOM      7  C   UNL     1      -0.009   1.560   0.038  0.00  0.00    +0.029 C 
ATOM      8  C   UNL     1      -0.004   0.030   0.017  0.00  0.00    +0.137 C 
BRANCH   8   9
ATOM      9  C   UNL     1       0.724  -0.487   1.230  0.00  0.00    +0.230 C 
ATOM     10  O   UNL     1       1.901  -0.771   1.156  0.00  0.00    -0.274 OA
ATOM     11  N   UNL     1       0.068  -0.635   2.398  0.00  0.00    -0.283 N 
ATOM     12  H   UNL     1      -0.855  -0.347   2.475  0.00  0.00    +0.155 HD
BRANCH  11  13
ATOM     13  C   UNL     1       0.718  -1.202   3.499  0.00  0.00    +0.064 A 
ATOM     14  C   UNL     1       2.070  -0.961   3.710  0.00  0.00    +0.025 A 
ATOM     15  C   UNL     1       2.709  -1.523   4.798  0.00  0.00    +0.002 A 
ATOM     16  C   UNL     1       2.004  -2.325   5.677  0.00  0.00    +0.002 A 
ATOM     17  C   UNL     1       0.659  -2.568   5.470  0.00  0.00    +0.034 A 
ATOM     18  C   UNL     1       0.013  -2.004   4.387  0.00  0.00    +0.147 A 
BRANCH  18  19
ATOM     19  N   UNL     1      -1.429  -2.258   4.170  0.00  0.00    +0.058 N 
ATOM     20  O   UNL     1      -2.065  -2.874   4.993  0.00  0.00    -0.126 OA
ATOM     21  O   UNL     1      -1.971  -1.850   3.169  0.00  0.00    -0.126 OA
ENDBRANCH  18  19
ENDBRANCH  11  13
ENDBRANCH   8   9
ENDBRANCH   6   8
ENDBRANCH   1   6
BRANCH   5  22
ATOM     22  C   UNL     1       1.117  -0.893  -4.761  0.00  0.00    +0.126 C 
BRANCH  22  23
ATOM     23  C   UNL     1       0.766  -2.373  -4.917  0.00  0.00    +0.024 C 
BRANCH  23  24
ATOM     24  C   UNL     1       1.934  -3.109  -5.576  0.00  0.00    -0.016 C 
ATOM     25  C   UNL     1       1.635  -4.609  -5.618  0.00  0.00    +0.007 C 
ATOM     26  C   UNL     1       2.127  -2.587  -7.001  0.00  0.00    +0.007 C 
ENDBRANCH  23  24
ENDBRANCH  22  23
ENDBRANCH   5  22
BRANCH   4  27
ATOM     27  C   UNL     1      -1.300   0.469  -6.244  0.00  0.00    +0.305 C 
BRANCH  27  28
ATOM     28  O   UNL     1      -0.678   1.640  -6.779  0.00  0.00    -0.484 OA
BRANCH  28  29
ATOM     29  C   UNL     1      -0.800   1.846  -8.117  0.00  0.00    +0.121 A 
ATOM     30  C   UNL     1      -1.508   0.943  -8.897  0.00  0.00    +0.045 A 
ATOM     31  C   UNL     1      -1.631   1.155 -10.257  0.00  0.00    +0.004 A 
ATOM     32  C   UNL     1      -1.049   2.265 -10.840  0.00  0.00    +0.000 A 
ATOM     33  C   UNL     1      -0.342   3.166 -10.065  0.00  0.00    +0.004 A 
ATOM     34  C   UNL     1      -0.222   2.962  -8.704  0.00  0.00    +0.045 A 
ENDBRANCH  28  29
ENDBRANCH  27  28
ENDBRANCH   4  27
TORSDOF 11
