REMARK  Name = ZINC36885440
REMARK  10 active torsions:
REMARK  status: ('A' for Active; 'I' for Inactive)
REMARK    1  A    between atoms: C_1  and  C_2
REMARK    2  A    between atoms: C_2  and  C_3
REMARK    3  A    between atoms: C_6  and  C_15
REMARK    4  A    between atoms: C_13  and  O_14
REMARK    5  A    between atoms: C_15  and  S_16
REMARK    6  A    between atoms: S_16  and  C_17
REMARK    7  A    between atoms: C_20  and  C_22
REMARK    8  A    between atoms: C_22  and  C_23
REMARK    9  A    between atoms: C_26  and  O_29
REMARK   10  A    between atoms: O_29  and  C_30
REMARK                            x       y       z     vdW  Elec       q    Type
REMARK                         _______ _______ _______ _____ _____    ______ ____
ROOT
ATOM      1  C   UNL     1      -3.204  -1.871  -3.687  0.00  0.00    +0.115 C 
ENDROOT
BRANCH   1   5
ATOM      2  C   UNL     1      -1.412  -0.526   0.013  0.00  0.00    -0.005 A 
ATOM      3  C   UNL     1      -1.986  -0.952  -1.150  0.00  0.00    +0.019 A 
ATOM      4  C   UNL     1      -3.299  -1.437  -1.140  0.00  0.00    +0.022 A 
ATOM      5  C   UNL     1      -3.940  -1.901  -2.372  0.00  0.00    -0.020 A 
ATOM      6  C   UNL     1      -5.216  -2.361  -2.297  0.00  0.00    +0.097 A 
ATOM      7  C   UNL     1      -5.883  -2.379  -1.055  0.00  0.00    +0.338 A 
ATOM      8  O   UNL     1      -7.027  -2.793  -1.002  0.00  0.00    -0.245 OA
ATOM      9  O   UNL     1      -5.290  -1.952   0.071  0.00  0.00    -0.422 OA
ATOM     10  C   UNL     1      -4.024  -1.483   0.066  0.00  0.00    +0.143 A 
ATOM     11  C   UNL     1      -3.425  -1.046   1.237  0.00  0.00    +0.092 A 
ATOM     12  C   UNL     1      -2.122  -0.575   1.210  0.00  0.00    +0.124 A 
BRANCH   2  14
ATOM     13  C   UNL     1      -0.019   1.526   0.010  0.00  0.00    +0.009 C 
ATOM     14  C   UNL     1       0.002  -0.004   0.002  0.00  0.00    +0.035 C 
ENDBRANCH   2  14
BRANCH  12  15
ATOM     15  O   UNL     1      -1.536  -0.152   2.359  0.00  0.00    -0.506 OA
ATOM     16  H   UNL     1      -1.668   0.788   2.546  0.00  0.00    +0.292 HD
ENDBRANCH  12  15
ENDBRANCH   1   5
BRANCH   1  17
ATOM     17  S   UNL     1      -3.120  -0.163  -4.293  0.00  0.00    -0.061 S 
BRANCH  17  18
ATOM     18  C   UNL     1      -2.244  -0.294  -5.816  0.00  0.00    +0.278 A 
ATOM     19  N   UNL     1      -1.781  -1.396  -6.355  0.00  0.00    -0.101 NA
ATOM     20  N   UNL     1      -1.196  -1.114  -7.465  0.00  0.00    -0.111 NA
ATOM     21  C   UNL     1      -1.261   0.168  -7.678  0.00  0.00    +0.222 A 
ATOM     22  O   UNL     1      -1.929   0.719  -6.645  0.00  0.00    -0.415 OA
BRANCH  21  23
ATOM     23  C   UNL     1      -0.696   0.903  -8.866  0.00  0.00    +0.132 C 
BRANCH  23  24
ATOM     24  C   UNL     1      -1.736   0.971  -9.955  0.00  0.00    -0.038 A 
ATOM     25  C   UNL     1      -1.814  -0.036 -10.899  0.00  0.00    +0.007 A 
ATOM     26  C   UNL     1      -2.766   0.024 -11.899  0.00  0.00    +0.046 A 
ATOM     27  C   UNL     1      -3.645   1.096 -11.954  0.00  0.00    +0.120 A 
ATOM     28  C   UNL     1      -3.565   2.105 -11.005  0.00  0.00    +0.046 A 
ATOM     29  C   UNL     1      -2.615   2.037 -10.005  0.00  0.00    +0.007 A 
BRANCH  27  30
ATOM     30  O   UNL     1      -4.582   1.158 -12.936  0.00  0.00    -0.495 OA
ATOM     31  C   UNL     1      -5.453   2.291 -12.931  0.00  0.00    +0.277 C 
ENDBRANCH  27  30
ENDBRANCH  23  24
ENDBRANCH  21  23
ENDBRANCH  17  18
ENDBRANCH   1  17
TORSDOF 8
