REMARK  Name = ZINC40081252
REMARK  14 active torsions:
REMARK  status: ('A' for Active; 'I' for Inactive)
REMARK    1  A    between atoms: C_1  and  C_2
REMARK    2  A    between atoms: C_2  and  O_3
REMARK    3  A    between atoms: O_3  and  C_4
REMARK    4  A    between atoms: C_7  and  C_11
REMARK    5  A    between atoms: C_8  and  C_10
REMARK    6  A    between atoms: C_11  and  C_13
REMARK    7  A    between atoms: N_17  and  C_29
REMARK    8  A    between atoms: C_18  and  C_20
REMARK    9  A    between atoms: C_24  and  N_26
REMARK   10  A    between atoms: C_29  and  C_30
REMARK   11  A    between atoms: C_30  and  O_31
REMARK   12  A    between atoms: O_31  and  C_32
REMARK   13  A    between atoms: C_32  and  C_33
REMARK   14  A    between atoms: C_33  and  O_34
REMARK                            x       y       z     vdW  Elec       q    Type
REMARK                         _______ _______ _______ _____ _____    ______ ____
ROOT
ATOM      1  C   UNL     1       0.833  -7.104   0.141  0.00  0.00    +0.076 C 
ATOM      2  C   UNL     1       0.625  -8.415  -0.119  0.00  0.00    +0.249 C 
ATOM      3  C   UNL     1      -0.077  -8.548  -1.413  0.00  0.00    +0.288 C 
ATOM      4  O   UNL     1      -0.406  -9.600  -1.924  0.00  0.00    -0.266 OA
ATOM      5  N   UNL     1      -0.297  -7.331  -1.943  0.00  0.00    -0.281 N 
ATOM      6  C   UNL     1       0.245  -6.330  -1.016  0.00  0.00    +0.145 C 
ATOM      7  O   UNL     1       1.000  -9.442   0.678  0.00  0.00    -0.282 OA
ENDROOT
BRANCH   6   8
ATOM      8  C   UNL     1       1.319  -5.524  -1.699  0.00  0.00    -0.020 A 
ATOM      9  C   UNL     1       2.283  -6.160  -2.459  0.00  0.00    +0.006 A 
ATOM     10  C   UNL     1       3.268  -5.420  -3.086  0.00  0.00    +0.003 A 
ATOM     11  C   UNL     1       3.289  -4.044  -2.953  0.00  0.00    +0.033 A 
ATOM     12  C   UNL     1       2.324  -3.408  -2.195  0.00  0.00    +0.127 A 
ATOM     13  C   UNL     1       1.336  -4.148  -1.571  0.00  0.00    +0.038 A 
BRANCH  12  14
ATOM     14  N   UNL     1       2.346  -1.935  -2.053  0.00  0.00    +0.056 N 
ATOM     15  O   UNL     1       3.181  -1.284  -2.637  0.00  0.00    -0.126 OA
ATOM     16  O   UNL     1       1.529  -1.382  -1.354  0.00  0.00    -0.126 OA
ENDBRANCH  12  14
ENDBRANCH   6   8
BRANCH   1  17
ATOM     17  C   UNL     1       1.497  -6.542   1.322  0.00  0.00    +0.195 C 
ATOM     18  O   UNL     1       2.014  -7.281   2.139  0.00  0.00    -0.287 OA
BRANCH  17  22
ATOM     19  C   UNL     1       1.613  -2.334   1.889  0.00  0.00    +0.121 A 
ATOM     20  C   UNL     1       2.754  -3.009   1.468  0.00  0.00    +0.046 A 
ATOM     21  C   UNL     1       2.720  -4.372   1.283  0.00  0.00    +0.015 A 
ATOM     22  C   UNL     1       1.537  -5.079   1.519  0.00  0.00    +0.025 A 
ATOM     23  C   UNL     1       0.393  -4.397   1.943  0.00  0.00    -0.036 A 
ATOM     24  C   UNL     1       0.436  -3.034   2.130  0.00  0.00    +0.049 A 
ATOM     25  C   UNL     1      -0.885  -5.154   2.198  0.00  0.00    +0.044 C 
BRANCH  19  26
ATOM     26  O   UNL     1       1.650  -0.990   2.071  0.00  0.00    -0.492 OA
BRANCH  26  28
ATOM     27  C   UNL     1       2.693   1.184   1.911  0.00  0.00    +0.048 C 
ATOM     28  C   UNL     1       2.878  -0.328   1.763  0.00  0.00    +0.225 C 
ENDBRANCH  26  28
ENDBRANCH  19  26
ENDBRANCH  17  22
ENDBRANCH   1  17
BRANCH   5  29
ATOM     29  C   UNL     1      -0.967  -7.053  -3.216  0.00  0.00    +0.137 C 
BRANCH  29  30
ATOM     30  C   UNL     1      -2.469  -6.889  -2.978  0.00  0.00    +0.179 C 
BRANCH  30  31
ATOM     31  O   UNL     1      -2.700  -5.734  -2.169  0.00  0.00    -0.376 OA
BRANCH  31  32
ATOM     32  C   UNL     1      -4.079  -5.489  -1.885  0.00  0.00    +0.187 C 
BRANCH  32  33
ATOM     33  C   UNL     1      -4.206  -4.235  -1.018  0.00  0.00    +0.184 C 
BRANCH  33  34
ATOM     34  O   UNL     1      -3.765  -3.096  -1.760  0.00  0.00    -0.393 OA
ATOM     35  H   UNL     1      -3.818  -2.263  -1.271  0.00  0.00    +0.209 HD
ENDBRANCH  33  34
ENDBRANCH  32  33
ENDBRANCH  31  32
ENDBRANCH  30  31
ENDBRANCH  29  30
ENDBRANCH   5  29
TORSDOF 12
