REMARK  Name = ZINC23231010
REMARK  5 active torsions:
REMARK  status: ('A' for Active; 'I' for Inactive)
REMARK    1  A    between atoms: C_4  and  N_25
REMARK    2  A    between atoms: C_5  and  N_7
REMARK    3  A    between atoms: C_8  and  C_10
REMARK    4  A    between atoms: C_10  and  N_11
REMARK    5  A    between atoms: C_14  and  C_18
REMARK                            x       y       z     vdW  Elec       q    Type
REMARK                         _______ _______ _______ _____ _____    ______ ____
ROOT
ATOM      1  C   UNL     1       0.015   5.672   0.042  0.00  0.00    +0.222 C 
ENDROOT
BRANCH   1   2
ATOM      2  N   UNL     1      -0.042   4.208   0.040  0.00  0.00    -0.290 N 
ATOM      3  C   UNL     1       1.100   3.492   0.046  0.00  0.00    +0.203 A 
ATOM      4  N   UNL     1       1.094   2.188   0.045  0.00  0.00    -0.237 NA
ATOM      5  C   UNL     1      -0.058   1.495   0.037  0.00  0.00    +0.078 A 
ATOM      6  C   UNL     1      -1.264   2.176   0.025  0.00  0.00    +0.098 A 
ATOM      7  C   UNL     1      -1.238   3.582   0.032  0.00  0.00    +0.255 A 
ATOM      8  O   UNL     1      -2.276   4.224   0.026  0.00  0.00    -0.268 OA
BRANCH   5   9
ATOM      9  C   UNL     1      -0.038   0.014   0.036  0.00  0.00    +0.001 A 
ATOM     10  C   UNL     1      -1.234  -0.702   0.034  0.00  0.00    +0.011 A 
ATOM     11  C   UNL     1      -1.210  -2.082   0.028  0.00  0.00    +0.020 A 
ATOM     12  C   UNL     1       0.001  -2.755   0.034  0.00  0.00    +0.041 A 
ATOM     13  C   UNL     1       1.192  -2.048   0.041  0.00  0.00    +0.020 A 
ATOM     14  C   UNL     1       1.178  -0.669   0.043  0.00  0.00    +0.011 A 
ATOM     15 CL   UNL     1       0.025  -4.490   0.034  0.00  0.00    -0.084 Cl
ENDBRANCH   5   9
ENDBRANCH   1   2
BRANCH   1  17
ATOM     16  N   UNL     1       0.095   7.500  -1.623  0.00  0.00    -0.282 N 
ATOM     17  C   UNL     1       0.043   6.175  -1.379  0.00  0.00    +0.237 C 
ATOM     18  O   UNL     1       0.017   5.389  -2.301  0.00  0.00    -0.274 OA
ATOM     19  H   UNL     1       0.044   8.216  -0.789  0.00  0.00    +0.155 HD
BRANCH  16  24
ATOM     20  C   UNL     1      -0.298   7.750  -5.271  0.00  0.00    +0.002 A 
ATOM     21  C   UNL     1       0.451   8.881  -5.537  0.00  0.00    +0.002 A 
ATOM     22  C   UNL     1       1.082   9.555  -4.508  0.00  0.00    +0.034 A 
ATOM     23  C   UNL     1       0.966   9.100  -3.209  0.00  0.00    +0.147 A 
ATOM     24  C   UNL     1       0.214   7.964  -2.938  0.00  0.00    +0.064 A 
ATOM     25  C   UNL     1      -0.414   7.287  -3.975  0.00  0.00    +0.025 A 
BRANCH  23  26
ATOM     26  N   UNL     1       1.642   9.821  -2.108  0.00  0.00    +0.058 N 
ATOM     27  O   UNL     1       2.218  10.871  -2.331  0.00  0.00    -0.126 OA
ATOM     28  O   UNL     1       1.623   9.365  -0.979  0.00  0.00    -0.126 OA
ENDBRANCH  23  26
ENDBRANCH  16  24
ENDBRANCH   1  17
TORSDOF 5
