REMARK  Name = ZINC45411201
REMARK  10 active torsions:
REMARK  status: ('A' for Active; 'I' for Inactive)
REMARK    1  A    between atoms: C_1  and  C_2
REMARK    2  A    between atoms: C_3  and  N_27
REMARK    3  A    between atoms: C_5  and  S_9
REMARK    4  A    between atoms: S_9  and  N_12
REMARK    5  A    between atoms: N_12  and  C_13
REMARK    6  A    between atoms: N_12  and  C_14
REMARK    7  A    between atoms: C_14  and  C_16
REMARK    8  A    between atoms: C_14  and  C_17
REMARK    9  A    between atoms: C_20  and  S_23
REMARK   10  A    between atoms: S_23  and  N_26
REMARK                            x       y       z     vdW  Elec       q    Type
REMARK                         _______ _______ _______ _____ _____    ______ ____
ROOT
ATOM      1  N   UNL     1       1.775  -5.253  -0.121  0.00  0.00    -0.173 NA
ATOM      2  C   UNL     1       2.519  -5.244   1.140  0.00  0.00    +0.132 C 
ENDROOT
BRANCH   1   3
ATOM      3  S   UNL     1       0.141  -4.980  -0.121  0.00  0.00    +0.061 S 
ATOM      4  O   UNL     1      -0.328  -5.327   1.175  0.00  0.00    -0.153 OA
ATOM      5  O   UNL     1      -0.371  -5.581  -1.303  0.00  0.00    -0.153 OA
BRANCH   3  10
ATOM      6  C   UNL     1      -0.679   0.968  -0.718  0.00  0.00    +0.047 C 
ATOM      7  C   UNL     1      -0.474  -0.517  -0.569  0.00  0.00    -0.002 A 
ATOM      8  C   UNL     1      -0.400  -1.321  -1.690  0.00  0.00    +0.132 A 
ATOM      9  C   UNL     1      -0.212  -2.684  -1.554  0.00  0.00    +0.061 A 
ATOM     10  C   UNL     1      -0.097  -3.243  -0.294  0.00  0.00    +0.109 A 
ATOM     11  C   UNL     1      -0.171  -2.440   0.828  0.00  0.00    +0.049 A 
ATOM     12  C   UNL     1      -0.353  -1.075   0.691  0.00  0.00    +0.048 A 
ATOM     13 CL   UNL     1      -0.438  -0.065   2.101  0.00  0.00    -0.083 Cl
BRANCH   8  14
ATOM     14  N   UNL     1      -0.522  -0.723  -3.039  0.00  0.00    +0.057 N 
ATOM     15  O   UNL     1      -1.106  -1.319  -3.914  0.00  0.00    -0.126 OA
ATOM     16  O   UNL     1      -0.039   0.362  -3.265  0.00  0.00    -0.126 OA
ENDBRANCH   8  14
ENDBRANCH   3  10
ENDBRANCH   1   3
BRANCH   1  17
ATOM     17  C   UNL     1       2.475  -5.502  -1.384  0.00  0.00    +0.106 C 
ATOM     18  C   UNL     1       3.101  -6.898  -1.352  0.00  0.00    +0.031 C 
BRANCH  17  19
ATOM     19  C   UNL     1       3.558  -4.470  -1.570  0.00  0.00    -0.029 A 
ATOM     20  C   UNL     1       4.696  -4.785  -2.289  0.00  0.00    +0.007 A 
ATOM     21  C   UNL     1       5.689  -3.838  -2.460  0.00  0.00    +0.029 A 
ATOM     22  C   UNL     1       5.543  -2.577  -1.912  0.00  0.00    +0.105 A 
ATOM     23  C   UNL     1       4.404  -2.263  -1.194  0.00  0.00    +0.029 A 
ATOM     24  C   UNL     1       3.410  -3.208  -1.027  0.00  0.00    +0.007 A 
BRANCH  22  25
ATOM     25  S   UNL     1       6.809  -1.371  -2.129  0.00  0.00    +0.056 S 
ATOM     26  O   UNL     1       6.677  -0.446  -1.058  0.00  0.00    -0.153 OA
ATOM     27  O   UNL     1       8.013  -2.085  -2.375  0.00  0.00    -0.153 OA
BRANCH  25  28
ATOM     28  N   UNL     1       6.460  -0.539  -3.518  0.00  0.00    -0.204 NA
ATOM     29  H   UNL     1       5.672  -0.767  -4.035  0.00  0.00    +0.144 HD
ATOM     30  H   UNL     1       7.045   0.175  -3.815  0.00  0.00    +0.144 HD
ENDBRANCH  25  28
ENDBRANCH  22  25
ENDBRANCH  17  19
ENDBRANCH   1  17
TORSDOF 7
