REMARK  Name = ZINC13387874
REMARK  5 active torsions:
REMARK  status: ('A' for Active; 'I' for Inactive)
REMARK    1  A    between atoms: C_3  and  C_6
REMARK    2  A    between atoms: C_6  and  N_7
REMARK    3  A    between atoms: C_8  and  C_10
REMARK    4  A    between atoms: C_16  and  C_25
REMARK    5  A    between atoms: C_19  and  C_21
REMARK                            x       y       z     vdW  Elec       q    Type
REMARK                         _______ _______ _______ _____ _____    ______ ____
ROOT
ATOM      1  C   UNL     1       5.933   0.667   2.954  0.00  0.00    +0.091 C 
ATOM      2  C   UNL     1       7.245   0.750   3.339  0.00  0.00    +0.104 C 
ATOM      3  N   UNL     1       7.314   0.820   4.693  0.00  0.00    -0.269 N 
ATOM      4  N   UNL     1       6.033   0.803   5.231  0.00  0.00    -0.226 N 
ATOM      5  C   UNL     1       5.130   0.694   4.183  0.00  0.00    +0.126 C 
ATOM      6  N   UNL     1       3.840   0.638   4.345  0.00  0.00    -0.364 N 
ATOM      7  C   UNL     1       3.292   0.649   5.706  0.00  0.00    +0.113 C 
ATOM      8  C   UNL     1       4.182   1.475   6.636  0.00  0.00    +0.062 C 
ATOM      9  C   UNL     1       5.608   0.896   6.632  0.00  0.00    +0.201 C 
ATOM     10  H   UNL     1       8.135   0.874   5.207  0.00  0.00    +0.170 HD
ATOM     11  H   UNL     1       3.250   0.590   3.577  0.00  0.00    +0.161 HD
ENDROOT
BRANCH   7  12
ATOM     12  C   UNL     1       1.909   1.248   5.681  0.00  0.00    -0.021 A 
ATOM     13  C   UNL     1       1.644   2.338   4.873  0.00  0.00    +0.009 A 
ATOM     14  C   UNL     1       0.377   2.890   4.846  0.00  0.00    +0.050 A 
ATOM     15  C   UNL     1      -0.631   2.352   5.629  0.00  0.00    +0.166 A 
ATOM     16  C   UNL     1      -0.364   1.254   6.443  0.00  0.00    +0.167 A 
ATOM     17  C   UNL     1       0.907   0.702   6.461  0.00  0.00    +0.055 A 
ATOM     18  O   UNL     1      -1.507   0.915   7.108  0.00  0.00    -0.453 OA
ATOM     19  C   UNL     1      -2.367   2.066   7.003  0.00  0.00    +0.466 C 
ATOM     20  O   UNL     1      -1.941   2.702   5.784  0.00  0.00    -0.453 OA
ENDBRANCH   7  12
BRANCH   1  22
ATOM     21  N   UNL     1       4.113   0.378   1.357  0.00  0.00    -0.304 N 
ATOM     22  C   UNL     1       5.428   0.575   1.580  0.00  0.00    +0.249 C 
ATOM     23  O   UNL     1       6.196   0.675   0.641  0.00  0.00    -0.270 OA
ATOM     24  H   UNL     1       3.512   0.228   2.103  0.00  0.00    +0.149 HD
BRANCH  21  25
ATOM     25  C   UNL     1       3.592   0.392  -0.012  0.00  0.00    +0.179 C 
BRANCH  25  28
ATOM     26  C   UNL     1      -0.092   0.431   0.094  0.00  0.00    +0.041 A 
ATOM     27  C   UNL     1       1.155   1.098   0.104  0.00  0.00    +0.046 A 
ATOM     28  C   UNL     1       2.105   0.150   0.014  0.00  0.00    +0.122 A 
ATOM     29  O   UNL     1       1.503  -1.049  -0.050  0.00  0.00    -0.466 OA
ATOM     30  C   UNL     1       0.171  -0.885  -0.001  0.00  0.00    +0.195 A 
ENDBRANCH  25  28
ENDBRANCH  21  25
ENDBRANCH   1  22
BRANCH   9  31
ATOM     31  C   UNL     1       6.542   1.835   7.398  0.00  0.00    +0.410 C 
ATOM     32  F   UNL     1       6.501   3.108   6.819  0.00  0.00    -0.169 F 
ATOM     33  F   UNL     1       6.129   1.917   8.733  0.00  0.00    -0.169 F 
ATOM     34  F   UNL     1       7.849   1.340   7.344  0.00  0.00    -0.169 F 
ENDBRANCH   9  31
TORSDOF 5
