REMARK  Name = ZINC59309948
REMARK  9 active torsions:
REMARK  status: ('A' for Active; 'I' for Inactive)
REMARK    1  A    between atoms: C_1  and  C_2
REMARK    2  A    between atoms: C_3  and  C_9
REMARK    3  A    between atoms: C_4  and  C_8
REMARK    4  A    between atoms: N_5  and  C_7
REMARK    5  A    between atoms: N_10  and  N_11
REMARK    6  A    between atoms: C_14  and  S_17
REMARK    7  A    between atoms: S_17  and  C_18
REMARK    8  A    between atoms: C_18  and  C_19
REMARK    9  A    between atoms: N_21  and  C_22
REMARK                            x       y       z     vdW  Elec       q    Type
REMARK                         _______ _______ _______ _____ _____    ______ ____
ROOT
ATOM      1  N   UNL     1      -0.009   1.333  -4.152  0.00  0.00    -0.205 N 
ATOM      2  C   UNL     1      -0.031   2.685  -4.439  0.00  0.00    +0.232 A 
ATOM      3  N   UNL     1      -0.044   3.663  -3.557  0.00  0.00    -0.186 NA
ATOM      4  C   UNL     1      -0.063   4.840  -4.192  0.00  0.00    +0.211 A 
ATOM      5  N   UNL     1      -0.064   4.627  -5.486  0.00  0.00    -0.144 NA
ATOM      6  N   UNL     1      -0.038   3.235  -5.672  0.00  0.00    -0.245 N 
ATOM      7  H   UNL     1       0.003   0.684  -4.873  0.00  0.00    +0.177 HD
ATOM      8  H   UNL     1      -0.029   2.762  -6.518  0.00  0.00    +0.192 HD
ENDROOT
BRANCH   1  10
ATOM      9  C   UNL     1       0.017  -0.370  -2.550  0.00  0.00    +0.141 C 
ATOM     10  N   UNL     1      -0.004   0.899  -2.820  0.00  0.00    -0.187 NA
BRANCH   9  13
ATOM     11  C   UNL     1      -0.021   1.502   0.009  0.00  0.00    +0.068 C 
ATOM     12  C   UNL     1       0.005  -0.005   0.001  0.00  0.00    +0.069 A 
ATOM     13  C   UNL     1       0.021  -0.826  -1.147  0.00  0.00    +0.038 A 
ATOM     14  C   UNL     1       0.043  -2.134  -0.713  0.00  0.00    +0.045 A 
ATOM     15  N   UNL     1       0.040  -2.112   0.635  0.00  0.00    -0.271 N 
ATOM     16  N   UNL     1       0.022  -0.777   1.054  0.00  0.00    -0.176 NA
ATOM     17  C   UNL     1       0.058  -3.286   1.512  0.00  0.00    +0.172 C 
ATOM     18  C   UNL     1       0.066  -3.363  -1.585  0.00  0.00    +0.066 C 
ENDBRANCH   9  13
ENDBRANCH   1  10
BRANCH   4  19
ATOM     19  S   UNL     1      -0.086   6.422  -3.415  0.00  0.00    -0.075 S 
BRANCH  19  20
ATOM     20  C   UNL     1      -0.108   7.591  -4.802  0.00  0.00    +0.173 C 
BRANCH  20  21
ATOM     21  C   UNL     1      -0.128   9.001  -4.270  0.00  0.00    +0.227 C 
ATOM     22  O   UNL     1      -0.129   9.197  -3.073  0.00  0.00    -0.275 OA
ATOM     23  N   UNL     1      -0.147  10.043  -5.124  0.00  0.00    -0.285 N 
ATOM     24  H   UNL     1      -0.079   9.889  -6.079  0.00  0.00    +0.155 HD
BRANCH  23  25
ATOM     25  C   UNL     1      -0.263  11.348  -4.633  0.00  0.00    +0.036 A 
ATOM     26  C   UNL     1      -0.982  12.298  -5.346  0.00  0.00    +0.043 A 
ATOM     27  C   UNL     1      -1.097  13.587  -4.858  0.00  0.00    +0.044 A 
ATOM     28  C   UNL     1      -0.495  13.930  -3.660  0.00  0.00    +0.040 A 
ATOM     29  C   UNL     1       0.222  12.985  -2.947  0.00  0.00    +0.044 A 
ATOM     30  C   UNL     1       0.335  11.694  -3.428  0.00  0.00    +0.043 A 
ATOM     31 CL   UNL     1       0.976  13.420  -1.445  0.00  0.00    -0.083 Cl
ATOM     32 CL   UNL     1      -1.995  14.775  -5.750  0.00  0.00    -0.083 Cl
ENDBRANCH  23  25
ENDBRANCH  20  21
ENDBRANCH  19  20
ENDBRANCH   4  19
TORSDOF 6
