REMARK  Name = ZINC00653873
REMARK  7 active torsions:
REMARK  status: ('A' for Active; 'I' for Inactive)
REMARK    1  A    between atoms: C_1  and  C_2
REMARK    2  A    between atoms: C_2  and  N_3
REMARK    3  A    between atoms: C_5  and  N_28
REMARK    4  A    between atoms: C_6  and  C_8
REMARK    5  A    between atoms: C_11  and  C_21
REMARK    6  A    between atoms: C_14  and  C_16
REMARK    7  A    between atoms: C_26  and  O_27
REMARK                            x       y       z     vdW  Elec       q    Type
REMARK                         _______ _______ _______ _____ _____    ______ ____
ROOT
ATOM      1  C   UNL     1      -1.172  -0.897   0.008  0.00  0.00    +0.289 C 
ATOM      2  O   UNL     1      -1.018  -2.102  -0.001  0.00  0.00    -0.266 OA
ATOM      3  N   UNL     1      -2.415  -0.376   0.022  0.00  0.00    -0.180 N 
ATOM      4  C   UNL     1      -3.652  -1.170   0.023  0.00  0.00    +0.141 C 
ATOM      5  C   UNL     1      -4.765  -0.100   0.045  0.00  0.00    +0.087 C 
ATOM      6  C   UNL     1      -3.970   1.192   0.044  0.00  0.00    +0.075 C 
ATOM      7  N   UNL     1      -2.676   0.874   0.031  0.00  0.00    -0.180 NA
ENDROOT
BRANCH   4   8
ATOM      8  C   UNL     1      -3.744  -2.010  -1.224  0.00  0.00    +0.017 A 
ATOM      9  C   UNL     1      -2.979  -1.693  -2.330  0.00  0.00    +0.009 A 
ATOM     10  C   UNL     1      -3.060  -2.467  -3.473  0.00  0.00    +0.001 A 
ATOM     11  C   UNL     1      -3.914  -3.554  -3.516  0.00  0.00    +0.004 A 
ATOM     12  C   UNL     1      -4.685  -3.872  -2.415  0.00  0.00    +0.046 A 
ATOM     13  C   UNL     1      -4.602  -3.100  -1.265  0.00  0.00    +0.122 A 
BRANCH  13  14
ATOM     14  O   UNL     1      -5.360  -3.411  -0.181  0.00  0.00    -0.506 OA
ATOM     15  H   UNL     1      -6.226  -2.981  -0.170  0.00  0.00    +0.292 HD
ENDBRANCH  13  14
ENDBRANCH   4   8
BRANCH   1  19
ATOM     16  N   UNL     1       1.185   1.773   0.000  0.00  0.00    -0.269 N 
ATOM     17  C   UNL     1       2.075   0.749  -0.014  0.00  0.00    +0.141 A 
ATOM     18  C   UNL     1       1.361  -0.401  -0.013  0.00  0.00    +0.176 A 
ATOM     19  C   UNL     1       0.002  -0.004   0.002  0.00  0.00    +0.179 A 
ATOM     20  N   UNL     1      -0.016   1.315   0.009  0.00  0.00    -0.164 NA
BRANCH  18  21
ATOM     21  N   UNL     1       1.890  -1.783  -0.026  0.00  0.00    +0.060 N 
ATOM     22  O   UNL     1       3.191  -1.990  -0.040  0.00  0.00    -0.126 OA
ATOM     23  O   UNL     1       1.061  -2.806  -0.025  0.00  0.00    -0.126 OA
ENDBRANCH  18  21
BRANCH  16  25
ATOM     24  C   UNL     1       0.851   3.896  -1.167  0.00  0.00    +0.029 C 
ATOM     25  C   UNL     1       1.541   3.194   0.004  0.00  0.00    +0.140 C 
ENDBRANCH  16  25
ENDBRANCH   1  19
BRANCH   6  26
ATOM     26  C   UNL     1      -4.494   2.469   0.057  0.00  0.00    +0.035 A 
ATOM     27  C   UNL     1      -3.785   3.771   0.057  0.00  0.00    +0.017 A 
ATOM     28  C   UNL     1      -4.563   4.852   0.070  0.00  0.00    +0.008 A 
ATOM     29  C   UNL     1      -5.961   4.702   0.083  0.00  0.00    +0.046 A 
ATOM     30  S   UNL     1      -6.202   2.985   0.067  0.00  0.00    -0.095 S 
ENDBRANCH   6  26
TORSDOF 6
