REMARK  Name = ZINC13054912
REMARK  10 active torsions:
REMARK  status: ('A' for Active; 'I' for Inactive)
REMARK    1  A    between atoms: C_1  and  C_2
REMARK    2  A    between atoms: C_2  and  O_3
REMARK    3  A    between atoms: O_3  and  C_4
REMARK    4  A    between atoms: C_9  and  N_10
REMARK    5  A    between atoms: C_11  and  C_13
REMARK    6  A    between atoms: C_13  and  O_14
REMARK    7  A    between atoms: O_14  and  C_15
REMARK    8  A    between atoms: C_18  and  C_24
REMARK    9  A    between atoms: C_20  and  N_21
REMARK   10  A    between atoms: C_27  and  C_30
REMARK                            x       y       z     vdW  Elec       q    Type
REMARK                         _______ _______ _______ _____ _____    ______ ____
ROOT
ATOM      1  N   UNL     1      -0.077  -2.779  -0.021  0.00  0.00    -0.280 N 
ATOM      2  C   UNL     1      -0.079  -4.030  -0.521  0.00  0.00    +0.255 C 
ATOM      3  O   UNL     1      -1.082  -4.475  -1.038  0.00  0.00    -0.272 OA
ATOM      4  H   UNL     1       0.746  -2.394   0.320  0.00  0.00    +0.155 HD
ENDROOT
BRANCH   1  10
ATOM      5  C   UNL     1      -1.209  -0.642   0.023  0.00  0.00    +0.142 A 
ATOM      6  C   UNL     1      -2.386   0.089   0.048  0.00  0.00    +0.055 A 
ATOM      7  C   UNL     1      -3.601  -0.561   0.061  0.00  0.00    +0.001 A 
ATOM      8  C   UNL     1      -3.669  -1.949   0.046  0.00  0.00    +0.126 A 
ATOM      9  C   UNL     1      -2.486  -2.682   0.025  0.00  0.00    +0.073 A 
ATOM     10  C   UNL     1      -1.263  -2.034   0.007  0.00  0.00    +0.079 A 
ATOM     11  O   UNL     1      -4.962  -2.380   0.049  0.00  0.00    -0.488 OA
ATOM     12  C   UNL     1      -5.814  -1.316   0.506  0.00  0.00    +0.175 C 
ATOM     13  C   UNL     1      -5.028  -0.048   0.099  0.00  0.00    +0.083 C 
ATOM     14  C   UNL     1      -5.993  -1.380   2.024  0.00  0.00    +0.052 C 
BRANCH   5  15
ATOM     15  O   UNL     1      -0.007  -0.004   0.007  0.00  0.00    -0.490 OA
BRANCH  15  17
ATOM     16  C   UNL     1       1.402   1.959  -0.002  0.00  0.00    +0.048 C 
ATOM     17  C   UNL     1      -0.031   1.425   0.018  0.00  0.00    +0.226 C 
ENDBRANCH  15  17
ENDBRANCH   5  15
ENDBRANCH   1  10
BRANCH   2  18
ATOM     18  C   UNL     1       1.165  -4.877  -0.438  0.00  0.00    +0.325 C 
BRANCH  18  19
ATOM     19  O   UNL     1       0.913  -6.152  -1.032  0.00  0.00    -0.480 OA
BRANCH  19  20
ATOM     20  C   UNL     1       1.938  -7.041  -1.040  0.00  0.00    +0.151 A 
ATOM     21  C   UNL     1       3.166  -6.689  -0.491  0.00  0.00    +0.049 A 
ATOM     22  C   UNL     1       4.207  -7.590  -0.492  0.00  0.00    +0.019 A 
ATOM     23  C   UNL     1       4.032  -8.857  -1.056  0.00  0.00    +0.066 A 
ATOM     24  C   UNL     1       2.798  -9.205  -1.613  0.00  0.00    +0.051 A 
ATOM     25  C   UNL     1       1.760  -8.300  -1.603  0.00  0.00    +0.168 A 
BRANCH  25  26
ATOM     26  N   UNL     1       0.453  -8.667  -2.192  0.00  0.00    +0.060 N 
ATOM     27  O   UNL     1       0.296  -9.770  -2.686  0.00  0.00    -0.126 OA
ATOM     28  O   UNL     1      -0.466  -7.867  -2.184  0.00  0.00    -0.126 OA
ENDBRANCH  25  26
BRANCH  23  29
ATOM     29  C   UNL     1       5.146  -9.823  -1.065  0.00  0.00    +0.387 C 
ATOM     30  O   UNL     1       4.992 -10.923  -1.557  0.00  0.00    -0.241 OA
ATOM     31  O   UNL     1       6.334  -9.485  -0.528  0.00  0.00    -0.241 OA
ENDBRANCH  23  29
ENDBRANCH  19  20
ENDBRANCH  18  19
ENDBRANCH   2  18
TORSDOF 8
