REMARK  Name = ZINC57561563
REMARK  6 active torsions:
REMARK  status: ('A' for Active; 'I' for Inactive)
REMARK    1  A    between atoms: C_1  and  O_2
REMARK    2  A    between atoms: O_2  and  C_3
REMARK    3  A    between atoms: C_6  and  N_12
REMARK    4  A    between atoms: C_7  and  N_9
REMARK    5  A    between atoms: C_13  and  C_15
REMARK    6  A    between atoms: C_18  and  C_20
REMARK                            x       y       z     vdW  Elec       q    Type
REMARK                         _______ _______ _______ _____ _____    ______ ____
ROOT
ATOM      1  N   UNL     1       2.474  -2.422   4.090  0.00  0.00    -0.279 N 
ATOM      2  C   UNL     1       3.136  -1.642   4.968  0.00  0.00    +0.255 C 
ATOM      3  O   UNL     1       3.080  -0.430   4.868  0.00  0.00    -0.269 OA
ATOM      4  H   UNL     1       2.451  -3.383   4.217  0.00  0.00    +0.155 HD
ENDROOT
BRANCH   1   8
ATOM      5  C   UNL     1       0.527  -0.702   0.829  0.00  0.00    +0.122 A 
ATOM      6  C   UNL     1       1.601  -0.050   1.419  0.00  0.00    +0.047 A 
ATOM      7  C   UNL     1       2.246  -0.619   2.499  0.00  0.00    +0.029 A 
ATOM      8  C   UNL     1       1.820  -1.844   2.995  0.00  0.00    +0.064 A 
ATOM      9  C   UNL     1       0.746  -2.496   2.405  0.00  0.00    +0.151 A 
ATOM     10  C   UNL     1       0.098  -1.923   1.328  0.00  0.00    +0.080 A 
BRANCH   9  11
ATOM     11  N   UNL     1       0.291  -3.802   2.933  0.00  0.00    +0.058 N 
ATOM     12  O   UNL     1      -0.580  -4.415   2.361  0.00  0.00    -0.126 OA
ATOM     13  O   UNL     1       0.792  -4.256   3.935  0.00  0.00    -0.126 OA
ENDBRANCH   9  11
BRANCH   5  15
ATOM     14  C   UNL     1       0.388   1.117  -0.696  0.00  0.00    +0.277 C 
ATOM     15  O   UNL     1      -0.107  -0.141  -0.234  0.00  0.00    -0.495 OA
ENDBRANCH   5  15
ENDBRANCH   1   8
BRANCH   2  16
ATOM     16  C   UNL     1       3.921  -2.253   6.043  0.00  0.00    +0.075 A 
ATOM     17  C   UNL     1       4.662  -1.635   7.040  0.00  0.00    +0.021 A 
ATOM     18  C   UNL     1       5.321  -2.417   7.947  0.00  0.00    +0.017 A 
ATOM     19  C   UNL     1       5.225  -3.795   7.834  0.00  0.00    +0.020 A 
ATOM     20  S   UNL     1       4.165  -3.983   6.410  0.00  0.00    -0.084 S 
BRANCH  19  21
ATOM     21  C   UNL     1       5.838  -4.840   8.679  0.00  0.00    -0.008 A 
ATOM     22  C   UNL     1       6.636  -4.481   9.767  0.00  0.00    +0.013 A 
ATOM     23  C   UNL     1       7.208  -5.459  10.553  0.00  0.00    +0.050 A 
ATOM     24  C   UNL     1       6.993  -6.801  10.267  0.00  0.00    +0.162 A 
ATOM     25  C   UNL     1       6.196  -7.165   9.186  0.00  0.00    +0.163 A 
ATOM     26  C   UNL     1       5.616  -6.188   8.395  0.00  0.00    +0.058 A 
ATOM     27  O   UNL     1       5.969  -8.476   8.898  0.00  0.00    -0.485 OA
ATOM     28  C   UNL     1       6.861  -9.428   9.487  0.00  0.00    +0.270 C 
ATOM     29  C   UNL     1       7.032  -9.073  10.970  0.00  0.00    +0.270 C 
ATOM     30  O   UNL     1       7.571  -7.749  11.055  0.00  0.00    -0.485 OA
ENDBRANCH  19  21
ENDBRANCH   2  16
TORSDOF 5
