REMARK  Name = ZINC59293230
REMARK  10 active torsions:
REMARK  status: ('A' for Active; 'I' for Inactive)
REMARK    1  A    between atoms: C_1  and  C_2
REMARK    2  A    between atoms: N_16  and  C_19
REMARK    3  A    between atoms: C_19  and  C_20
REMARK    4  A    between atoms: C_20  and  O_22
REMARK    5  A    between atoms: O_22  and  C_23
REMARK    6  A    between atoms: C_23  and  C_24
REMARK    7  A    between atoms: C_30  and  C_34
REMARK    8  A    between atoms: C_31  and  N_33
REMARK    9  A    between atoms: C_34  and  O_36
REMARK   10  A    between atoms: O_36  and  C_37
REMARK                            x       y       z     vdW  Elec       q    Type
REMARK                         _______ _______ _______ _____ _____    ______ ____
ROOT
ATOM      1  C   UNL     1       0.047   1.488   0.010  0.00  0.00    +0.086 C 
ATOM      2  C   UNL     1       0.048  -0.019  -0.004  0.00  0.00    +0.110 A 
ATOM      3  C   UNL     1      -1.129  -0.673   0.015  0.00  0.00    +0.088 A 
ATOM      4  C   UNL     1      -1.142  -2.086   0.002  0.00  0.00    +0.145 A 
ATOM      5  C   UNL     1       0.066  -2.753  -0.026  0.00  0.00    +0.103 A 
ATOM      6  C   UNL     1       1.251  -2.009  -0.043  0.00  0.00    +0.345 A 
ATOM      7  O   UNL     1       2.326  -2.586  -0.065  0.00  0.00    -0.245 OA
ATOM      8  O   UNL     1       1.217  -0.668  -0.040  0.00  0.00    -0.427 OA
ATOM      9  C   UNL     1       0.109  -4.254  -0.038  0.00  0.00    +0.145 C 
ATOM     10  C   UNL     1       0.537  -4.765  -1.379  0.00  0.00    -0.002 A 
ATOM     11  C   UNL     1      -0.032  -4.639  -2.628  0.00  0.00    +0.007 A 
ATOM     12  C   UNL     1       0.633  -5.245  -3.688  0.00  0.00    +0.000 A 
ATOM     13  C   UNL     1       1.809  -5.941  -3.495  0.00  0.00    +0.002 A 
ATOM     14  C   UNL     1       2.387  -6.073  -2.242  0.00  0.00    +0.024 A 
ATOM     15  C   UNL     1       1.729  -5.468  -1.169  0.00  0.00    +0.042 A 
ATOM     16  N   UNL     1       2.075  -5.439   0.170  0.00  0.00    -0.259 N 
ATOM     17  C   UNL     1       1.183  -4.749   0.909  0.00  0.00    +0.240 C 
ATOM     18  O   UNL     1       1.231  -4.560   2.106  0.00  0.00    -0.274 OA
ATOM     19  C   UNL     1      -1.223  -4.825   0.355  0.00  0.00    +0.117 C 
ATOM     20  C   UNL     1      -2.341  -4.055   0.360  0.00  0.00    +0.196 C 
ATOM     21  O   UNL     1      -2.311  -2.757   0.015  0.00  0.00    -0.441 OA
ENDROOT
BRANCH  20  22
ATOM     22  N   UNL     1      -3.534  -4.617   0.727  0.00  0.00    -0.329 N 
ATOM     23  H   UNL     1      -3.561  -5.531   1.051  0.00  0.00    +0.145 HD
ATOM     24  H   UNL     1      -4.354  -4.102   0.663  0.00  0.00    +0.145 HD
ENDBRANCH  20  22
BRANCH  19  25
ATOM     25  C   UNL     1      -1.313  -6.176   0.722  0.00  0.00    +0.341 C 
ATOM     26  O   UNL     1      -1.337  -7.041  -0.135  0.00  0.00    -0.245 OA
BRANCH  25  27
ATOM     27  O   UNL     1      -1.375  -6.518   2.028  0.00  0.00    -0.465 OA
ATOM     28  C   UNL     1      -1.465  -7.912   2.330  0.00  0.00    +0.280 C 
ENDBRANCH  25  27
ENDBRANCH  19  25
BRANCH  16  29
ATOM     29  C   UNL     1       3.271  -6.083   0.721  0.00  0.00    +0.234 C 
BRANCH  29  30
ATOM     30  C   UNL     1       4.423  -5.111   0.692  0.00  0.00    +0.325 C 
ATOM     31  O   UNL     1       4.261  -3.996   0.256  0.00  0.00    -0.249 OA
BRANCH  30  32
ATOM     32  O   UNL     1       5.627  -5.485   1.151  0.00  0.00    -0.459 OA
BRANCH  32  33
ATOM     33  C   UNL     1       6.673  -4.513   1.093  0.00  0.00    +0.267 C 
BRANCH  33  34
ATOM     34  C   UNL     1       7.943  -5.108   1.647  0.00  0.00    -0.010 A 
ATOM     35  C   UNL     1       8.225  -5.001   2.996  0.00  0.00    +0.007 A 
ATOM     36  C   UNL     1       9.389  -5.546   3.504  0.00  0.00    +0.000 A 
ATOM     37  C   UNL     1      10.271  -6.199   2.663  0.00  0.00    +0.000 A 
ATOM     38  C   UNL     1       9.988  -6.306   1.314  0.00  0.00    +0.000 A 
ATOM     39  C   UNL     1       8.822  -5.765   0.807  0.00  0.00    +0.007 A 
ENDBRANCH  33  34
ENDBRANCH  32  33
ENDBRANCH  30  32
ENDBRANCH  29  30
ENDBRANCH  16  29
TORSDOF 8
