REMARK  Name = ZINC67036427
REMARK  7 active torsions:
REMARK  status: ('A' for Active; 'I' for Inactive)
REMARK    1  A    between atoms: C_1  and  C_2
REMARK    2  A    between atoms: C_5  and  C_8
REMARK    3  A    between atoms: C_8  and  C_10
REMARK    4  A    between atoms: C_8  and  N_11
REMARK    5  A    between atoms: C_12  and  C_14
REMARK    6  A    between atoms: C_16  and  N_21
REMARK    7  A    between atoms: C_19  and  C_20
REMARK                            x       y       z     vdW  Elec       q    Type
REMARK                         _______ _______ _______ _____ _____    ______ ____
ROOT
ATOM      1  N   UNL     1       1.546  -4.559   0.676  0.00  0.00    -0.305 N 
ATOM      2  C   UNL     1       1.956  -5.843   0.678  0.00  0.00    +0.245 C 
ATOM      3  O   UNL     1       1.759  -6.546  -0.294  0.00  0.00    -0.270 OA
ATOM      4  H   UNL     1       1.704  -3.998   1.452  0.00  0.00    +0.150 HD
ENDROOT
BRANCH   2   5
ATOM      5  C   UNL     1       2.647  -6.396   1.862  0.00  0.00    +0.042 A 
ATOM      6  C   UNL     1       2.992  -5.561   2.926  0.00  0.00    +0.046 A 
ATOM      7  C   UNL     1       3.636  -6.084   4.029  0.00  0.00    +0.127 A 
ATOM      8  C   UNL     1       3.940  -7.433   4.080  0.00  0.00    +0.033 A 
ATOM      9  C   UNL     1       3.602  -8.266   3.029  0.00  0.00    +0.006 A 
ATOM     10  C   UNL     1       2.952  -7.757   1.923  0.00  0.00    -0.038 A 
ATOM     11  C   UNL     1       2.579  -8.667   0.781  0.00  0.00    +0.044 C 
BRANCH   7  12
ATOM     12  N   UNL     1       4.002  -5.201   5.158  0.00  0.00    +0.056 N 
ATOM     13  O   UNL     1       3.737  -4.022   5.114  0.00  0.00    -0.126 OA
ATOM     14  O   UNL     1       4.566  -5.657   6.125  0.00  0.00    -0.126 OA
ENDBRANCH   7  12
ENDBRANCH   2   5
BRANCH   1  15
ATOM     15  C   UNL     1       0.862  -4.011  -0.498  0.00  0.00    +0.100 C 
ATOM     16  C   UNL     1      -0.631  -4.335  -0.415  0.00  0.00    +0.033 C 
BRANCH  15  21
ATOM     17  C   UNL     1       1.581   1.721  -0.645  0.00  0.00    +0.044 C 
ATOM     18  C   UNL     1       1.393   0.226  -0.607  0.00  0.00    -0.050 A 
ATOM     19  C   UNL     1       1.454  -0.508  -1.776  0.00  0.00    +0.004 A 
ATOM     20  C   UNL     1       1.282  -1.879  -1.741  0.00  0.00    +0.006 A 
ATOM     21  C   UNL     1       1.050  -2.516  -0.536  0.00  0.00    -0.027 A 
ATOM     22  C   UNL     1       0.990  -1.782   0.634  0.00  0.00    +0.006 A 
ATOM     23  C   UNL     1       1.166  -0.411   0.599  0.00  0.00    +0.004 A 
ENDBRANCH  15  21
ENDBRANCH   1  15
TORSDOF 4
