REMARK  Name = ZINC45469472
REMARK  10 active torsions:
REMARK  status: ('A' for Active; 'I' for Inactive)
REMARK    1  A    between atoms: C_1  and  C_2
REMARK    2  A    between atoms: C_2  and  O_3
REMARK    3  A    between atoms: O_3  and  C_4
REMARK    4  A    between atoms: C_11  and  C_18
REMARK    5  A    between atoms: C_13  and  O_14
REMARK    6  A    between atoms: C_18  and  N_19
REMARK    7  A    between atoms: N_19  and  C_20
REMARK    8  A    between atoms: N_19  and  C_26
REMARK    9  A    between atoms: C_20  and  C_21
REMARK   10  A    between atoms: C_26  and  C_27
REMARK                            x       y       z     vdW  Elec       q    Type
REMARK                         _______ _______ _______ _____ _____    ______ ____
ROOT
ATOM      1  C   UNL     1       2.018  -2.080   1.117  0.00  0.00    +0.405 C 
ATOM      2  O   UNL     1       1.169  -2.725   0.525  0.00  0.00    -0.226 OA
ATOM      3  N   UNL     1       2.666  -2.618   2.141  0.00  0.00    -0.251 N 
ATOM      4  C   UNL     1       2.492  -3.933   2.439  0.00  0.00    +0.040 A 
ATOM      5  C   UNL     1       2.877  -4.421   3.702  0.00  0.00    +0.024 A 
ATOM      6  C   UNL     1       2.708  -5.732   4.012  0.00  0.00    +0.013 A 
ATOM      7  C   UNL     1       2.147  -6.611   3.067  0.00  0.00    +0.019 A 
ATOM      8  C   UNL     1       1.964  -7.976   3.370  0.00  0.00    -0.047 A 
ATOM      9  C   UNL     1       1.407  -8.796   2.408  0.00  0.00    +0.090 A 
ATOM     10  C   UNL     1       1.044  -8.271   1.177  0.00  0.00    +0.285 A 
ATOM     11  O   UNL     1       1.219  -6.975   0.894  0.00  0.00    -0.425 OA
ATOM     12  C   UNL     1       1.758  -6.130   1.797  0.00  0.00    +0.141 A 
ATOM     13  C   UNL     1       1.928  -4.792   1.493  0.00  0.00    +0.070 A 
ATOM     14  H   UNL     1       3.264  -2.074   2.677  0.00  0.00    +0.158 HD
ENDROOT
BRANCH  10  15
ATOM     15  O   UNL     1       0.502  -9.082   0.249  0.00  0.00    -0.480 OA
ATOM     16  H   UNL     1       0.278  -8.636  -0.580  0.00  0.00    +0.295 HD
ENDBRANCH  10  15
BRANCH   1  17
ATOM     17  O   UNL     1       2.297  -0.815   0.730  0.00  0.00    -0.450 OA
BRANCH  17  19
ATOM     18  C   UNL     1       2.011   1.135  -0.669  0.00  0.00    +0.048 C 
ATOM     19  C   UNL     1       1.561  -0.299  -0.380  0.00  0.00    +0.230 C 
ENDBRANCH  17  19
ENDBRANCH   1  17
BRANCH   8  20
ATOM     20  C   UNL     1       2.366  -8.527   4.714  0.00  0.00    -0.041 C 
BRANCH  20  21
ATOM     21  N   UNL     1       1.200  -8.538   5.608  0.00  0.00    +0.392 N 
ATOM     22  H   UNL     1       0.805  -7.611   5.655  0.00  0.00    -0.080 HD
BRANCH  21  23
ATOM     23  C   UNL     1       0.194  -9.474   5.089  0.00  0.00    -0.002 C 
BRANCH  23  24
ATOM     24  C   UNL     1      -1.046  -9.401   5.942  0.00  0.00    +0.089 A 
ATOM     25  C   UNL     1      -2.125  -8.636   5.697  0.00  0.00    +0.042 A 
ATOM     26  C   UNL     1      -3.045  -8.877   6.744  0.00  0.00    +0.041 A 
ATOM     27  C   UNL     1      -2.473  -9.775   7.565  0.00  0.00    +0.195 A 
ATOM     28  O   UNL     1      -1.265 -10.093   7.072  0.00  0.00    -0.470 OA
ENDBRANCH  23  24
ENDBRANCH  21  23
BRANCH  21  29
ATOM     29  C   UNL     1       1.617  -8.962   6.951  0.00  0.00    -0.002 C 
BRANCH  29  30
ATOM     30  C   UNL     1       2.535  -7.923   7.543  0.00  0.00    +0.089 A 
ATOM     31  C   UNL     1       2.162  -6.910   8.345  0.00  0.00    +0.042 A 
ATOM     32  C   UNL     1       3.335  -6.187   8.664  0.00  0.00    +0.041 A 
ATOM     33  C   UNL     1       4.354  -6.802   8.037  0.00  0.00    +0.195 A 
ATOM     34  O   UNL     1       3.864  -7.856   7.365  0.00  0.00    -0.470 OA
ENDBRANCH  29  30
ENDBRANCH  21  29
ENDBRANCH  20  21
ENDBRANCH   8  20
TORSDOF 9
