REMARK  Name = ZINC33936973
REMARK  10 active torsions:
REMARK  status: ('A' for Active; 'I' for Inactive)
REMARK    1  A    between atoms: C_1  and  C_2
REMARK    2  A    between atoms: C_2  and  C_3
REMARK    3  A    between atoms: C_3  and  C_5
REMARK    4  A    between atoms: C_3  and  N_17
REMARK    5  A    between atoms: N_9  and  C_10
REMARK    6  A    between atoms: C_10  and  C_11
REMARK    7  A    between atoms: N_17  and  C_18
REMARK    8  A    between atoms: N_17  and  C_32
REMARK    9  A    between atoms: C_18  and  C_19
REMARK   10  A    between atoms: C_24  and  C_31
REMARK                            x       y       z     vdW  Elec       q    Type
REMARK                         _______ _______ _______ _____ _____    ______ ____
ROOT
ATOM      1  N   UNL     1      -0.941   1.070   1.665  0.00  0.00    +0.391 N 
ATOM      2  H   UNL     1      -0.236   1.559   2.195  0.00  0.00    -0.080 HD
ENDROOT
BRANCH   1   3
ATOM      3  C   UNL     1      -1.833   0.351   2.584  0.00  0.00    -0.067 C 
ATOM      4  C   UNL     1      -2.413   1.333   3.605  0.00  0.00    -0.015 C 
ATOM      5  C   UNL     1      -3.342   0.584   4.562  0.00  0.00    -0.002 C 
ATOM      6  C   UNL     1      -2.552  -0.504   5.292  0.00  0.00    -0.000 C 
ATOM      7  C   UNL     1      -1.973  -1.486   4.272  0.00  0.00    -0.002 C 
ATOM      8  C   UNL     1      -1.044  -0.737   3.314  0.00  0.00    -0.015 C 
ENDBRANCH   1   3
BRANCH   1   9
ATOM      9  C   UNL     1      -0.295   0.110   0.759  0.00  0.00    +0.003 C 
BRANCH   9  10
ATOM     10  C   UNL     1       0.951   0.728   0.179  0.00  0.00    +0.138 A 
ATOM     11  N   UNL     1       1.073   1.942  -0.300  0.00  0.00    -0.115 NA
ATOM     12  N   UNL     1       2.288   2.092  -0.700  0.00  0.00    -0.023 NA
ATOM     13  N   UNL     1       2.945   1.005  -0.488  0.00  0.00    -0.044 NA
ATOM     14  N   UNL     1       2.157   0.142   0.058  0.00  0.00    -0.228 N 
BRANCH  14  15
ATOM     15  C   UNL     1       2.507  -1.221   0.465  0.00  0.00    +0.178 C 
BRANCH  15  16
ATOM     16  C   UNL     1       2.261  -2.181  -0.700  0.00  0.00    +0.140 C 
ATOM     17  C   UNL     1       2.711  -3.614  -0.320  0.00  0.00    +0.035 C 
ATOM     18  C   UNL     1       1.829  -4.463  -1.276  0.00  0.00    +0.031 C 
ATOM     19  C   UNL     1       0.530  -3.631  -1.347  0.00  0.00    +0.160 C 
ATOM     20  O   UNL     1       0.855  -2.286  -0.972  0.00  0.00    -0.375 OA
ENDBRANCH  15  16
ENDBRANCH  14  15
ENDBRANCH   9  10
BRANCH   9  22
ATOM     21  C   UNL     1      -2.436  -1.048   0.196  0.00  0.00    +0.002 C 
ATOM     22  C   UNL     1      -1.259  -0.252  -0.372  0.00  0.00    -0.011 C 
ENDBRANCH   9  22
ENDBRANCH   1   9
BRANCH   1  23
ATOM     23  C   UNL     1      -1.722   2.035   0.879  0.00  0.00    -0.036 C 
BRANCH  23  24
ATOM     24  C   UNL     1      -2.013   3.250   1.722  0.00  0.00    +0.001 A 
ATOM     25  C   UNL     1      -1.217   3.545   2.780  0.00  0.00    +0.017 A 
ATOM     26  C   UNL     1      -1.526   4.732   3.578  0.00  0.00    -0.001 A 
ATOM     27  C   UNL     1      -0.742   5.088   4.680  0.00  0.00    +0.010 A 
ATOM     28  C   UNL     1      -1.057   6.203   5.404  0.00  0.00    +0.004 A 
ATOM     29  C   UNL     1      -2.150   6.985   5.057  0.00  0.00    -0.048 A 
ATOM     30  C   UNL     1      -2.937   6.654   3.975  0.00  0.00    +0.029 A 
ATOM     31  C   UNL     1      -2.635   5.524   3.222  0.00  0.00    +0.049 A 
ATOM     32  N   UNL     1      -3.405   5.169   2.135  0.00  0.00    -0.322 N 
ATOM     33  H   UNL     1      -4.168   5.715   1.892  0.00  0.00    +0.169 HD
ATOM     34  C   UNL     1      -3.110   4.080   1.405  0.00  0.00    +0.251 A 
ATOM     35  O   UNL     1      -3.809   3.799   0.447  0.00  0.00    -0.268 OA
ATOM     36  C   UNL     1      -2.478   8.210   5.871  0.00  0.00    +0.044 C 
ENDBRANCH  23  24
ENDBRANCH   1  23
TORSDOF 8
