REMARK  Name = ZINC64226751
REMARK  7 active torsions:
REMARK  status: ('A' for Active; 'I' for Inactive)
REMARK    1  A    between atoms: C_1  and  C_2
REMARK    2  A    between atoms: C_2  and  C_3
REMARK    3  A    between atoms: C_2  and  N_9
REMARK    4  A    between atoms: C_12  and  N_14
REMARK    5  A    between atoms: N_17  and  N_18
REMARK    6  A    between atoms: C_19  and  C_21
REMARK    7  A    between atoms: C_24  and  C_27
REMARK                            x       y       z     vdW  Elec       q    Type
REMARK                         _______ _______ _______ _____ _____    ______ ____
ROOT
ATOM      1  N   UNL     1      -2.653  -3.576   1.417  0.00  0.00    -0.297 N 
ATOM      2  C   UNL     1      -3.737  -4.342   1.648  0.00  0.00    +0.316 C 
ATOM      3  O   UNL     1      -4.809  -4.045   1.156  0.00  0.00    -0.251 OA
ATOM      4  N   UNL     1      -3.635  -5.438   2.426  0.00  0.00    -0.218 N 
ATOM      5  H   UNL     1      -1.799  -3.814   1.810  0.00  0.00    +0.150 HD
ATOM      6  H   UNL     1      -4.415  -5.990   2.592  0.00  0.00    +0.174 HD
ENDROOT
BRANCH   1  10
ATOM      7  N   UNL     1      -1.376  -0.512   0.012  0.00  0.00    +0.385 N 
ATOM      8  C   UNL     1      -2.053  -0.152   1.284  0.00  0.00    -0.076 C 
ATOM      9  C   UNL     1      -3.207  -1.170   1.414  0.00  0.00    +0.002 C 
ATOM     10  C   UNL     1      -2.765  -2.385   0.572  0.00  0.00    +0.056 C 
ATOM     11  C   UNL     1      -1.382  -1.998   0.004  0.00  0.00    -0.056 C 
ATOM     12  H   UNL     1      -1.891  -0.153  -0.778  0.00  0.00    -0.081 HD
BRANCH   7  14
ATOM     13  C   UNL     1      -0.019   1.526   0.010  0.00  0.00    -0.008 C 
ATOM     14  C   UNL     1       0.002  -0.004   0.002  0.00  0.00    -0.041 C 
BRANCH  14  15
ATOM     15  C   UNL     1       0.707  -0.490  -1.238  0.00  0.00    -0.061 A 
ATOM     16  C   UNL     1       0.038  -0.522  -2.447  0.00  0.00    +0.002 A 
ATOM     17  C   UNL     1       0.685  -0.967  -3.584  0.00  0.00    +0.000 A 
ATOM     18  C   UNL     1       2.002  -1.381  -3.513  0.00  0.00    +0.000 A 
ATOM     19  C   UNL     1       2.672  -1.349  -2.304  0.00  0.00    +0.000 A 
ATOM     20  C   UNL     1       2.026  -0.899  -1.167  0.00  0.00    +0.002 A 
ENDBRANCH  14  15
ENDBRANCH   7  14
ENDBRANCH   1  10
BRANCH   4  21
ATOM     21  N   UNL     1      -2.401  -5.781   2.993  0.00  0.00    -0.229 N 
ATOM     22  C   UNL     1      -2.298  -6.878   3.771  0.00  0.00    +0.260 C 
ATOM     23  O   UNL     1      -3.276  -7.568   3.980  0.00  0.00    -0.269 OA
ATOM     24  H   UNL     1      -1.620  -5.230   2.827  0.00  0.00    +0.173 HD
BRANCH  22  25
ATOM     25  C   UNL     1      -0.995  -7.240   4.370  0.00  0.00    +0.038 A 
ATOM     26  C   UNL     1       0.127  -6.443   4.135  0.00  0.00    +0.014 A 
ATOM     27  C   UNL     1       1.340  -6.780   4.693  0.00  0.00    +0.019 A 
ATOM     28  C   UNL     1       1.448  -7.919   5.494  0.00  0.00    +0.052 A 
ATOM     29  C   UNL     1       0.326  -8.716   5.729  0.00  0.00    +0.019 A 
ATOM     30  C   UNL     1      -0.889  -8.375   5.176  0.00  0.00    +0.014 A 
BRANCH  28  31
ATOM     31  C   UNL     1       2.710  -8.270   6.074  0.00  0.00    +0.099 C 
ATOM     32  N   UNL     1       3.710  -8.548   6.534  0.00  0.00    -0.191 NA
ENDBRANCH  28  31
ENDBRANCH  22  25
ENDBRANCH   4  21
TORSDOF 6
