REMARK  Name = ZINC05084017
REMARK  5 active torsions:
REMARK  status: ('A' for Active; 'I' for Inactive)
REMARK    1  A    between atoms: C_4  and  S_10
REMARK    2  A    between atoms: C_5  and  N_7
REMARK    3  A    between atoms: S_10  and  N_13
REMARK    4  A    between atoms: N_13  and  C_14
REMARK    5  A    between atoms: C_18  and  C_20
REMARK                            x       y       z     vdW  Elec       q    Type
REMARK                         _______ _______ _______ _____ _____    ______ ____
ROOT
ATOM      1  N   UNL     1      -0.511   1.024  -1.195  0.00  0.00    -0.216 N 
ATOM      2  H   UNL     1      -0.636   0.147  -1.591  0.00  0.00    +0.174 HD
ENDROOT
BRANCH   1   3
ATOM      3  C   UNL     1      -1.335   2.085  -1.576  0.00  0.00    +0.049 A 
ATOM      4  C   UNL     1      -1.871   2.930  -0.610  0.00  0.00    +0.024 A 
ATOM      5  C   UNL     1      -2.683   3.984  -0.984  0.00  0.00    +0.002 A 
ATOM      6  C   UNL     1      -2.975   4.198  -2.316  0.00  0.00    +0.010 A 
ATOM      7  C   UNL     1      -2.446   3.353  -3.290  0.00  0.00    +0.004 A 
ATOM      8  C   UNL     1      -1.624   2.293  -2.916  0.00  0.00    +0.034 A 
BRANCH   7   9
ATOM      9  C   UNL     1      -2.759   3.582  -4.722  0.00  0.00    +0.090 A 
ATOM     10  C   UNL     1      -3.539   4.567  -5.218  0.00  0.00    +0.116 A 
ATOM     11  N   UNL     1      -3.570   4.422  -6.605  0.00  0.00    -0.324 N 
ATOM     12  C   UNL     1      -2.794   3.339  -6.872  0.00  0.00    +0.170 A 
ATOM     13  N   UNL     1      -2.308   2.843  -5.765  0.00  0.00    -0.222 NA
ATOM     14  S   UNL     1      -2.808   3.119  -8.637  0.00  0.00    -0.086 S 
ATOM     15  C   UNL     1      -3.893   4.521  -9.100  0.00  0.00    +0.099 C 
ATOM     16  C   UNL     1      -4.202   5.123  -7.720  0.00  0.00    +0.135 C 
ENDBRANCH   7   9
ENDBRANCH   1   3
BRANCH   1  17
ATOM     17  S   UNL     1       0.679   1.262  -0.069  0.00  0.00    +0.075 S 
ATOM     18  O   UNL     1       0.052   1.838   1.069  0.00  0.00    -0.150 OA
ATOM     19  O   UNL     1       1.421   0.052   0.001  0.00  0.00    -0.150 OA
BRANCH  17  23
ATOM     20  C   UNL     1       3.483   4.404  -1.730  0.00  0.00    +0.002 A 
ATOM     21  C   UNL     1       2.787   4.647  -0.559  0.00  0.00    +0.002 A 
ATOM     22  C   UNL     1       1.927   3.690  -0.055  0.00  0.00    +0.031 A 
ATOM     23  C   UNL     1       1.771   2.485  -0.715  0.00  0.00    +0.139 A 
ATOM     24  C   UNL     1       2.466   2.242  -1.885  0.00  0.00    +0.153 A 
ATOM     25  C   UNL     1       3.322   3.202  -2.392  0.00  0.00    +0.035 A 
BRANCH  24  26
ATOM     26  N   UNL     1       2.294   0.955  -2.594  0.00  0.00    +0.058 N 
ATOM     27  O   UNL     1       3.006   0.682  -3.544  0.00  0.00    -0.126 OA
ATOM     28  O   UNL     1       1.439   0.167  -2.229  0.00  0.00    -0.126 OA
ENDBRANCH  24  26
ENDBRANCH  17  23
ENDBRANCH   1  17
TORSDOF 5
