REMARK  Name = ZINC45828542
REMARK  4 active torsions:
REMARK  status: ('A' for Active; 'I' for Inactive)
REMARK    1  A    between atoms: C_5  and  O_8
REMARK    2  A    between atoms: O_8  and  C_9
REMARK    3  A    between atoms: C_9  and  C_11
REMARK    4  A    between atoms: C_11  and  N_12
REMARK                            x       y       z     vdW  Elec       q    Type
REMARK                         _______ _______ _______ _____ _____    ______ ____
ROOT
ATOM      1  N   UNL     1       3.892  -4.164  -3.057  0.00  0.00    -0.213 N 
ATOM      2  C   UNL     1       5.231  -4.138  -2.895  0.00  0.00    +0.247 C 
ATOM      3  O   UNL     1       5.994  -3.254  -3.223  0.00  0.00    -0.273 OA
ATOM      4  C   UNL     1       5.581  -5.444  -2.219  0.00  0.00    +0.113 C 
ATOM      5  C   UNL     1       6.219  -5.184  -0.859  0.00  0.00    +0.035 C 
ATOM      6  C   UNL     1       6.537  -6.518  -0.179  0.00  0.00    +0.003 C 
ATOM      7  C   UNL     1       7.491  -7.325  -1.062  0.00  0.00    +0.000 C 
ATOM      8  C   UNL     1       6.828  -7.598  -2.414  0.00  0.00    +0.003 C 
ATOM      9  C   UNL     1       6.511  -6.268  -3.103  0.00  0.00    +0.035 C 
ATOM     10  N   UNL     1       4.288  -6.121  -2.061  0.00  0.00    -0.285 N 
ATOM     11  C   UNL     1       3.359  -5.293  -2.575  0.00  0.00    +0.310 C 
ATOM     12  O   UNL     1       2.170  -5.544  -2.603  0.00  0.00    -0.252 OA
ATOM     13  H   UNL     1       4.133  -6.991  -1.661  0.00  0.00    +0.151 HD
ENDROOT
BRANCH   1  14
ATOM     14  C   UNL     1       3.118  -3.086  -3.678  0.00  0.00    +0.238 C 
BRANCH  14  15
ATOM     15  C   UNL     1       2.692  -2.100  -2.621  0.00  0.00    +0.325 C 
ATOM     16  O   UNL     1       3.004  -2.279  -1.467  0.00  0.00    -0.249 OA
BRANCH  15  17
ATOM     17  O   UNL     1       1.966  -1.023  -2.961  0.00  0.00    -0.460 OA
BRANCH  17  22
ATOM     18  C   UNL     1      -0.019   1.538   0.011  0.00  0.00    +0.000 C 
ATOM     19  C   UNL     1       1.401   2.036  -0.000  0.00  0.00    +0.000 C 
ATOM     20  C   UNL     1       1.910   2.335  -1.423  0.00  0.00    +0.004 C 
ATOM     21  C   UNL     1       1.480   1.268  -2.449  0.00  0.00    +0.044 C 
ATOM     22  C   UNL     1       1.598  -0.131  -1.907  0.00  0.00    +0.176 C 
ATOM     23  C   UNL     1       0.231  -0.548  -1.328  0.00  0.00    +0.044 C 
ATOM     24  C   UNL     1       0.002  -0.004   0.002  0.00  0.00    +0.004 C 
ENDBRANCH  17  22
ENDBRANCH  15  17
ENDBRANCH  14  15
ENDBRANCH   1  14
TORSDOF 4
