REMARK  Name = ZINC13192998
REMARK  9 active torsions:
REMARK  status: ('A' for Active; 'I' for Inactive)
REMARK    1  A    between atoms: C_3  and  C_6
REMARK    2  A    between atoms: C_9  and  S_15
REMARK    3  A    between atoms: N_10  and  C_11
REMARK    4  A    between atoms: C_11  and  C_12
REMARK    5  A    between atoms: C_12  and  C_13
REMARK    6  A    between atoms: S_15  and  C_16
REMARK    7  A    between atoms: C_16  and  C_17
REMARK    8  A    between atoms: N_19  and  C_20
REMARK    9  A    between atoms: C_20  and  C_26
REMARK                            x       y       z     vdW  Elec       q    Type
REMARK                         _______ _______ _______ _____ _____    ______ ____
ROOT
ATOM      1  C   UNL     1       0.914   5.126   0.019  0.00  0.00    +0.172 A 
ATOM      2  N   UNL     1       0.212   6.201   0.304  0.00  0.00    -0.128 NA
ATOM      3  N   UNL     1       0.953   7.247   0.208  0.00  0.00    -0.122 NA
ATOM      4  C   UNL     1       2.172   6.906  -0.144  0.00  0.00    +0.192 A 
ATOM      5  N   UNL     1       2.193   5.545  -0.272  0.00  0.00    -0.301 N 
ENDROOT
BRANCH   1   8
ATOM      6  C   UNL     1      -1.081   1.915   0.017  0.00  0.00    +0.008 A 
ATOM      7  C   UNL     1      -0.866   3.275   0.026  0.00  0.00    +0.019 A 
ATOM      8  C   UNL     1       0.426   3.737   0.017  0.00  0.00    +0.056 A 
ATOM      9  S   UNL     1       1.361   2.216   0.001  0.00  0.00    -0.094 S 
ATOM     10  C   UNL     1      -0.013   1.076   0.008  0.00  0.00    +0.046 A 
ENDBRANCH   1   8
BRANCH   5  11
ATOM     11  C   UNL     1       3.337   4.708  -0.643  0.00  0.00    +0.137 C 
BRANCH  11  12
ATOM     12  C   UNL     1       3.376   4.544  -2.164  0.00  0.00    +0.147 C 
BRANCH  12  13
ATOM     13  C   UNL     1       4.553   3.682  -2.545  0.00  0.00    +0.358 C 
ATOM     14  O   UNL     1       5.284   3.245  -1.689  0.00  0.00    -0.246 OA
ATOM     15  O   UNL     1       4.788   3.401  -3.836  0.00  0.00    -0.246 OA
ENDBRANCH  12  13
ENDBRANCH  11  12
ENDBRANCH   5  11
BRANCH   4  16
ATOM     16  S   UNL     1       3.530   8.000  -0.397  0.00  0.00    -0.077 S 
BRANCH  16  17
ATOM     17  C   UNL     1       2.730   9.583  -0.038  0.00  0.00    +0.173 C 
BRANCH  17  18
ATOM     18  C   UNL     1       3.730  10.699  -0.195  0.00  0.00    +0.224 C 
ATOM     19  O   UNL     1       4.872  10.449  -0.518  0.00  0.00    -0.275 OA
ATOM     20  N   UNL     1       3.356  11.976   0.023  0.00  0.00    -0.297 N 
ATOM     21  H   UNL     1       2.443  12.176   0.282  0.00  0.00    +0.150 HD
BRANCH  20  22
ATOM     22  C   UNL     1       4.329  13.060  -0.130  0.00  0.00    +0.121 C 
ATOM     23  C   UNL     1       5.490  12.844   0.842  0.00  0.00    +0.041 C 
ATOM     24  C   UNL     1       6.506  13.977   0.683  0.00  0.00    +0.003 C 
ATOM     25  C   UNL     1       5.830  15.316   0.986  0.00  0.00    +0.000 C 
ATOM     26  C   UNL     1       4.668  15.532   0.015  0.00  0.00    +0.003 C 
ATOM     27  C   UNL     1       3.652  14.399   0.174  0.00  0.00    +0.041 C 
BRANCH  22  28
ATOM     28  C   UNL     1       4.839  13.071  -1.510  0.00  0.00    +0.088 C 
ATOM     29  N   UNL     1       5.233  13.079  -2.575  0.00  0.00    -0.194 NA
ENDBRANCH  22  28
ENDBRANCH  20  22
ENDBRANCH  17  18
ENDBRANCH  16  17
ENDBRANCH   4  16
TORSDOF 9
