REMARK  Name = ZINC05307583
REMARK  7 active torsions:
REMARK  status: ('A' for Active; 'I' for Inactive)
REMARK    1  A    between atoms: C_1  and  C_2
REMARK    2  A    between atoms: C_2  and  C_4
REMARK    3  A    between atoms: C_2  and  O_17
REMARK    4  A    between atoms: N_6  and  C_7
REMARK    5  A    between atoms: C_11  and  N_13
REMARK    6  A    between atoms: O_17  and  C_18
REMARK    7  A    between atoms: C_18  and  C_20
REMARK                            x       y       z     vdW  Elec       q    Type
REMARK                         _______ _______ _______ _____ _____    ______ ____
ROOT
ATOM      1  C   UNL     1      -8.282  -0.741   3.590  0.00  0.00    +0.062 C 
ATOM      2  C   UNL     1      -8.020   0.723   3.234  0.00  0.00    +0.259 C 
ENDROOT
BRANCH   2   3
ATOM      3  C   UNL     1      -8.407   1.600   4.397  0.00  0.00    +0.258 C 
ATOM      4  O   UNL     1      -7.576   2.308   4.926  0.00  0.00    -0.271 OA
ATOM      5  N   UNL     1      -9.677   1.597   4.850  0.00  0.00    -0.282 N 
ATOM      6  H   UNL     1     -10.356   1.083   4.386  0.00  0.00    +0.155 HD
BRANCH   5   7
ATOM      7  C   UNL     1     -10.015   2.337   5.990  0.00  0.00    +0.036 A 
ATOM      8  C   UNL     1     -10.977   1.857   6.869  0.00  0.00    +0.026 A 
ATOM      9  C   UNL     1     -11.305   2.585   7.996  0.00  0.00    +0.042 A 
ATOM     10  C   UNL     1     -10.684   3.798   8.243  0.00  0.00    +0.154 A 
ATOM     11  C   UNL     1      -9.729   4.280   7.365  0.00  0.00    +0.163 A 
ATOM     12  C   UNL     1      -9.393   3.553   6.239  0.00  0.00    +0.059 A 
ATOM     13  F   UNL     1     -11.011   4.511   9.343  0.00  0.00    -0.203 F 
BRANCH  11  14
ATOM     14  N   UNL     1      -9.066   5.577   7.631  0.00  0.00    +0.059 N 
ATOM     15  O   UNL     1      -8.226   6.002   6.859  0.00  0.00    -0.126 OA
ATOM     16  O   UNL     1      -9.362   6.219   8.623  0.00  0.00    -0.126 OA
ENDBRANCH  11  14
ENDBRANCH   5   7
ENDBRANCH   2   3
BRANCH   2  17
ATOM     17  O   UNL     1      -6.609   0.905   2.940  0.00  0.00    -0.448 OA
BRANCH  17  18
ATOM     18  C   UNL     1      -6.225   0.738   1.658  0.00  0.00    +0.347 C 
ATOM     19  O   UNL     1      -7.047   0.448   0.809  0.00  0.00    -0.244 OA
BRANCH  18  20
ATOM     20  C   UNL     1      -4.819   0.905   1.288  0.00  0.00    +0.097 A 
ATOM     21  C   UNL     1      -4.222   0.780   0.045  0.00  0.00    +0.026 A 
ATOM     22  C   UNL     1      -2.857   0.990  -0.049  0.00  0.00    -0.036 A 
ATOM     23  C   UNL     1      -2.202   1.306   1.108  0.00  0.00    -0.006 A 
ATOM     24  S   UNL     1      -3.424   1.322   2.321  0.00  0.00    -0.086 S 
ATOM     25  C   UNL     1      -0.735   1.577   1.274  0.00  0.00    +0.043 C 
ATOM     26  C   UNL     1      -0.011   1.084   0.012  0.00  0.00    +0.005 C 
ATOM     27  C   UNL     1      -0.754   1.605  -1.221  0.00  0.00    +0.005 C 
ATOM     28  C   UNL     1      -2.094   0.881  -1.366  0.00  0.00    +0.036 C 
ENDBRANCH  18  20
ENDBRANCH  17  18
ENDBRANCH   2  17
TORSDOF 6
