REMARK  Name = ZINC57351146
REMARK  5 active torsions:
REMARK  status: ('A' for Active; 'I' for Inactive)
REMARK    1  A    between atoms: C_3  and  N_23
REMARK    2  A    between atoms: C_6  and  C_7
REMARK    3  A    between atoms: C_7  and  N_12
REMARK    4  A    between atoms: N_12  and  C_13
REMARK    5  A    between atoms: C_14  and  C_21
REMARK                            x       y       z     vdW  Elec       q    Type
REMARK                         _______ _______ _______ _____ _____    ______ ____
ROOT
ATOM      1  C   UNL     1      -1.312  -0.806   0.000  0.00  0.00    +0.058 C 
ATOM      2  C   UNL     1      -1.642  -1.230   1.446  0.00  0.00    +0.030 C 
ATOM      3  C   UNL     1      -2.316  -2.616   1.292  0.00  0.00    +0.002 C 
ATOM      4  C   UNL     1      -1.503  -3.265   0.145  0.00  0.00    +0.002 C 
ATOM      5  C   UNL     1      -1.223  -2.100  -0.827  0.00  0.00    +0.030 C 
ENDROOT
BRANCH   1  11
ATOM      6  C   UNL     1       1.191  -0.790   0.033  0.00  0.00    +0.008 A 
ATOM      7  C   UNL     1       2.401  -0.122  -0.000  0.00  0.00    +0.033 A 
ATOM      8  C   UNL     1       2.428   1.256  -0.103  0.00  0.00    +0.126 A 
ATOM      9  C   UNL     1       1.244   1.967  -0.172  0.00  0.00    +0.033 A 
ATOM     10  C   UNL     1       0.034   1.300  -0.140  0.00  0.00    +0.008 A 
ATOM     11  C   UNL     1       0.007  -0.079  -0.036  0.00  0.00    -0.024 A 
BRANCH   8  12
ATOM     12  N   UNL     1       3.723   1.971  -0.138  0.00  0.00    +0.056 N 
ATOM     13  O   UNL     1       4.758   1.349  -0.076  0.00  0.00    -0.126 OA
ATOM     14  O   UNL     1       3.747   3.176  -0.227  0.00  0.00    -0.126 OA
ENDBRANCH   8  12
ENDBRANCH   1  11
BRANCH   1  15
ATOM     15  N   UNL     1      -2.374   0.055  -0.526  0.00  0.00    -0.328 N 
ATOM     16  H   UNL     1      -3.098   0.342   0.052  0.00  0.00    +0.147 HD
BRANCH  15  17
ATOM     17  C   UNL     1      -2.345   0.459  -1.850  0.00  0.00    +0.084 A 
ATOM     18  C   UNL     1      -3.215   1.317  -2.496  0.00  0.00    +0.083 A 
ATOM     19  C   UNL     1      -2.964   1.585  -3.912  0.00  0.00    -0.018 A 
ATOM     20  C   UNL     1      -1.892   0.942  -4.410  0.00  0.00    -0.004 A 
ATOM     21  S   UNL     1      -1.242   0.025  -3.036  0.00  0.00    -0.077 S 
ATOM     22  C   UNL     1      -1.682   1.248  -5.868  0.00  0.00    +0.043 C 
ATOM     23  C   UNL     1      -3.026   1.845  -6.339  0.00  0.00    +0.010 C 
ATOM     24  C   UNL     1      -3.594   2.419  -5.025  0.00  0.00    +0.037 C 
BRANCH  18  25
ATOM     25  C   UNL     1      -4.317   1.919  -1.808  0.00  0.00    +0.102 C 
ATOM     26  N   UNL     1      -5.192   2.396  -1.262  0.00  0.00    -0.191 NA
ENDBRANCH  18  25
ENDBRANCH  15  17
ENDBRANCH   1  15
TORSDOF 5
