REMARK  Name = ZINC33897415
REMARK  15 active torsions:
REMARK  status: ('A' for Active; 'I' for Inactive)
REMARK    1  A    between atoms: C_1  and  C_2
REMARK    2  A    between atoms: C_2  and  C_3
REMARK    3  A    between atoms: C_2  and  C_4
REMARK    4  A    between atoms: C_4  and  C_5
REMARK    5  A    between atoms: C_5  and  C_7
REMARK    6  A    between atoms: C_5  and  N_19
REMARK    7  A    between atoms: N_9  and  C_10
REMARK    8  A    between atoms: C_13  and  N_16
REMARK    9  A    between atoms: C_20  and  C_22
REMARK   10  A    between atoms: C_25  and  C_27
REMARK   11  A    between atoms: C_27  and  C_29
REMARK   12  A    between atoms: C_27  and  N_33
REMARK   13  A    between atoms: C_29  and  C_30
REMARK   14  A    between atoms: C_30  and  S_31
REMARK   15  A    between atoms: S_31  and  C_32
REMARK                            x       y       z     vdW  Elec       q    Type
REMARK                         _______ _______ _______ _____ _____    ______ ____
ROOT
ATOM      1  C   UNL     1      -1.413  -2.063  -0.118  0.00  0.00    +0.160 C 
ENDROOT
BRANCH   1   2
ATOM      2  C   UNL     1      -2.820  -2.588   0.012  0.00  0.00    +0.238 C 
ATOM      3  O   UNL     1      -3.323  -3.207  -0.902  0.00  0.00    -0.273 OA
ATOM      4  N   UNL     1      -3.518  -2.371   1.144  0.00  0.00    -0.284 N 
ATOM      5  H   UNL     1      -3.094  -1.935   1.899  0.00  0.00    +0.155 HD
BRANCH   4   6
ATOM      6  C   UNL     1      -4.856  -2.773   1.229  0.00  0.00    +0.034 A 
ATOM      7  C   UNL     1      -5.768  -2.008   1.944  0.00  0.00    +0.025 A 
ATOM      8  C   UNL     1      -7.088  -2.408   2.026  0.00  0.00    +0.034 A 
ATOM      9  C   UNL     1      -7.500  -3.568   1.397  0.00  0.00    +0.126 A 
ATOM     10  C   UNL     1      -6.594  -4.332   0.685  0.00  0.00    +0.034 A 
ATOM     11  C   UNL     1      -5.274  -3.935   0.594  0.00  0.00    +0.025 A 
BRANCH   9  12
ATOM     12  N   UNL     1      -8.915  -3.994   1.488  0.00  0.00    +0.056 N 
ATOM     13  O   UNL     1      -9.708  -3.327   2.110  0.00  0.00    -0.126 OA
ATOM     14  O   UNL     1      -9.277  -5.008   0.939  0.00  0.00    -0.126 OA
ENDBRANCH   9  12
ENDBRANCH   4   6
ENDBRANCH   1   2
BRANCH   1  15
ATOM     15  N   UNL     1      -0.875  -2.429  -1.431  0.00  0.00    -0.299 N 
ATOM     16  C   UNL     1       0.457  -2.533  -1.608  0.00  0.00    +0.266 C 
ATOM     17  O   UNL     1       1.212  -2.324  -0.678  0.00  0.00    -0.268 OA
ATOM     18  H   UNL     1      -1.478  -2.595  -2.173  0.00  0.00    +0.150 HD
BRANCH  16  19
ATOM     19  C   UNL     1       0.998  -2.901  -2.929  0.00  0.00    +0.163 A 
ATOM     20  C   UNL     1       2.312  -3.049  -3.252  0.00  0.00    +0.230 A 
ATOM     21  O   UNL     1       2.360  -3.387  -4.550  0.00  0.00    -0.449 OA
ATOM     22  C   UNL     1       1.105  -3.446  -5.015  0.00  0.00    +0.182 A 
ATOM     23  N   UNL     1       0.278  -3.162  -4.054  0.00  0.00    -0.210 NA
BRANCH  22  24
ATOM     24  C   UNL     1       0.713  -3.792  -6.429  0.00  0.00    +0.014 C 
BRANCH  24  25
ATOM     25  N   UNL     1       1.577  -3.064  -7.368  0.00  0.00    +0.386 N 
ATOM     26  H   UNL     1       1.315  -3.296  -8.315  0.00  0.00    -0.089 HD
ATOM     27  H   UNL     1       1.470  -2.071  -7.223  0.00  0.00    -0.089 HD
ATOM     28  H   UNL     1       2.539  -3.326  -7.212  0.00  0.00    -0.089 HD
ENDBRANCH  24  25
BRANCH  24  29
ATOM     29  C   UNL     1       0.874  -5.297  -6.649  0.00  0.00    +0.004 C 
BRANCH  29  30
ATOM     30  C   UNL     1       0.359  -5.667  -8.042  0.00  0.00    +0.068 C 
BRANCH  30  31
ATOM     31  S   UNL     1       0.551  -7.452  -8.303  0.00  0.00    -0.164 S 
ATOM     32  C   UNL     1      -0.097  -7.723  -9.975  0.00  0.00    +0.084 C 
ENDBRANCH  30  31
ENDBRANCH  29  30
ENDBRANCH  24  29
ENDBRANCH  22  24
ENDBRANCH  16  19
ENDBRANCH   1  15
BRANCH   1  33
ATOM     33  C   UNL     1      -1.423  -0.540   0.023  0.00  0.00    +0.034 C 
BRANCH  33  35
ATOM     34  C   UNL     1       0.003   1.512   0.031  0.00  0.00    +0.007 C 
ATOM     35  C   UNL     1       0.016  -0.018   0.015  0.00  0.00    -0.015 C 
ATOM     36  C   UNL     1       0.752  -0.535   1.253  0.00  0.00    +0.007 C 
ENDBRANCH  33  35
ENDBRANCH   1  33
TORSDOF 12
