REMARK  Name = ZINC51716023
REMARK  6 active torsions:
REMARK  status: ('A' for Active; 'I' for Inactive)
REMARK    1  A    between atoms: C_3  and  N_8
REMARK    2  A    between atoms: C_9  and  C_11
REMARK    3  A    between atoms: C_11  and  N_12
REMARK    4  A    between atoms: N_15  and  C_16
REMARK    5  A    between atoms: C_16  and  C_17
REMARK    6  A    between atoms: C_17  and  N_23
REMARK                            x       y       z     vdW  Elec       q    Type
REMARK                         _______ _______ _______ _____ _____    ______ ____
ROOT
ATOM      1  N   UNL     1      10.104   3.665  -3.018  0.00  0.00    -0.291 N 
ATOM      2  C   UNL     1       9.939   2.992  -1.862  0.00  0.00    +0.300 C 
ATOM      3  O   UNL     1       9.183   3.421  -1.012  0.00  0.00    -0.253 OA
ATOM      4  N   UNL     1      10.611   1.843  -1.649  0.00  0.00    -0.298 N 
ATOM      5  H   UNL     1      10.707   3.322  -3.696  0.00  0.00    +0.151 HD
ATOM      6  H   UNL     1      11.213   1.501  -2.327  0.00  0.00    +0.150 HD
ENDROOT
BRANCH   1   7
ATOM      7  C   UNL     1       9.374   4.914  -3.250  0.00  0.00    +0.202 C 
BRANCH   7   9
ATOM      8  N   UNL     1       9.179   6.612  -5.038  0.00  0.00    -0.284 N 
ATOM      9  C   UNL     1       9.734   5.462  -4.607  0.00  0.00    +0.234 C 
ATOM     10  O   UNL     1      10.523   4.868  -5.311  0.00  0.00    -0.274 OA
ATOM     11  H   UNL     1       8.606   7.125  -4.447  0.00  0.00    +0.155 HD
BRANCH   8  14
ATOM     12  C   UNL     1       9.861   6.603  -8.652  0.00  0.00    +0.005 A 
ATOM     13  C   UNL     1       9.614   6.154  -7.369  0.00  0.00    +0.023 A 
ATOM     14  C   UNL     1       9.430   7.065  -6.338  0.00  0.00    +0.036 A 
ATOM     15  C   UNL     1       9.493   8.428  -6.599  0.00  0.00    +0.061 A 
ATOM     16  C   UNL     1       9.741   8.872  -7.885  0.00  0.00    +0.125 A 
ATOM     17  C   UNL     1       9.924   7.959  -8.911  0.00  0.00    +0.038 A 
ATOM     18  F   UNL     1       9.803  10.197  -8.141  0.00  0.00    -0.205 F 
ENDBRANCH   8  14
ENDBRANCH   7   9
ENDBRANCH   1   7
BRANCH   4  19
ATOM     19  C   UNL     1      10.431   1.112  -0.392  0.00  0.00    +0.128 C 
BRANCH  19  20
ATOM     20  C   UNL     1      11.395  -0.075  -0.351  0.00  0.00    +0.038 C 
ATOM     21  C   UNL     1      12.835   0.438  -0.309  0.00  0.00    +0.024 C 
ATOM     22  C   UNL     1      13.034   1.300   0.939  0.00  0.00    +0.002 C 
ATOM     23  C   UNL     1      12.756   0.461   2.188  0.00  0.00    +0.000 C 
ATOM     24  C   UNL     1      11.315  -0.053   2.146  0.00  0.00    +0.002 C 
ATOM     25  C   UNL     1      11.117  -0.915   0.898  0.00  0.00    +0.024 C 
BRANCH  20  26
ATOM     26  N   UNL     1      11.204  -0.903  -1.550  0.00  0.00    -0.291 NA
ATOM     27  C   UNL     1      12.131  -2.044  -1.555  0.00  0.00    +0.113 C 
ATOM     28  C   UNL     1      11.940  -2.844  -2.846  0.00  0.00    +0.175 C 
ATOM     29  O   UNL     1      10.574  -3.255  -2.949  0.00  0.00    -0.377 OA
ATOM     30  C   UNL     1       9.644  -2.169  -2.947  0.00  0.00    +0.175 C 
ATOM     31  C   UNL     1       9.812  -1.362  -1.657  0.00  0.00    +0.113 C 
ENDBRANCH  20  26
ENDBRANCH  19  20
ENDBRANCH   4  19
TORSDOF 6
