REMARK  Name = ZINC09219025
REMARK  5 active torsions:
REMARK  status: ('A' for Active; 'I' for Inactive)
REMARK    1  A    between atoms: C_1  and  C_2
REMARK    2  A    between atoms: C_7  and  C_8
REMARK    3  A    between atoms: C_12  and  S_14
REMARK    4  A    between atoms: S_14  and  C_15
REMARK    5  A    between atoms: C_15  and  C_16
REMARK                            x       y       z     vdW  Elec       q    Type
REMARK                         _______ _______ _______ _____ _____    ______ ____
ROOT
ATOM      1  C   UNL     1      -0.122  -0.120   2.567  0.00  0.00    +0.182 A 
ATOM      2  N   UNL     1      -0.324   1.161   2.775  0.00  0.00    -0.152 NA
ATOM      3  H   UNL     1      -0.446   2.195   4.635  0.00  0.00    +0.191 HD
ATOM      4  N   UNL     1      -0.322   1.355   4.166  0.00  0.00    -0.253 N 
ATOM      5  C   UNL     1      -0.112   0.141   4.722  0.00  0.00    +0.185 A 
ATOM      6  N   UNL     1       0.000  -0.738   3.751  0.00  0.00    -0.201 NA
ENDROOT
BRANCH   1  13
ATOM      7  C   UNL     1       2.006  -2.000   2.014  0.00  0.00    +0.044 C 
ATOM      8  C   UNL     1       0.973  -1.684   0.963  0.00  0.00    -0.040 A 
ATOM      9  C   UNL     1       1.034  -2.297  -0.273  0.00  0.00    +0.004 A 
ATOM     10  C   UNL     1       0.086  -2.008  -1.238  0.00  0.00    +0.000 A 
ATOM     11  C   UNL     1      -0.927  -1.104  -0.972  0.00  0.00    +0.001 A 
ATOM     12  C   UNL     1      -0.997  -0.485   0.260  0.00  0.00    +0.012 A 
ATOM     13  C   UNL     1      -0.048  -0.777   1.238  0.00  0.00    +0.024 A 
ENDBRANCH   1  13
BRANCH   5  14
ATOM     14  S   UNL     1      -0.015  -0.205   6.447  0.00  0.00    -0.080 S 
BRANCH  14  15
ATOM     15  C   UNL     1       0.275  -1.994   6.521  0.00  0.00    +0.134 C 
BRANCH  15  16
ATOM     16  C   UNL     1       0.380  -2.427   7.960  0.00  0.00    +0.070 A 
ATOM     17  C   UNL     1       1.517  -2.474   8.689  0.00  0.00    +0.116 A 
ATOM     18  N   UNL     1       1.179  -2.917   9.938  0.00  0.00    -0.305 N 
ATOM     19  C   UNL     1       1.913  -3.152  11.065  0.00  0.00    +0.112 A 
ATOM     20  C   UNL     1       1.319  -3.599  12.192  0.00  0.00    +0.058 A 
ATOM     21  C   UNL     1      -0.068  -3.827  12.219  0.00  0.00    +0.025 A 
ATOM     22  C   UNL     1      -0.810  -3.597  11.103  0.00  0.00    +0.048 A 
ATOM     23  C   UNL     1      -0.175  -3.131   9.935  0.00  0.00    +0.138 A 
ATOM     24  N   UNL     1      -0.636  -2.823   8.730  0.00  0.00    -0.232 NA
ATOM     25 CL   UNL     1       2.271  -3.892  13.614  0.00  0.00    -0.082 Cl
ENDBRANCH  15  16
ENDBRANCH  14  15
ENDBRANCH   5  14
TORSDOF 4
