REMARK  Name = ZINC46568763
REMARK  7 active torsions:
REMARK  status: ('A' for Active; 'I' for Inactive)
REMARK    1  A    between atoms: C_1  and  C_2
REMARK    2  A    between atoms: C_2  and  C_15
REMARK    3  A    between atoms: N_3  and  N_4
REMARK    4  A    between atoms: N_4  and  C_5
REMARK    5  A    between atoms: C_8  and  S_11
REMARK    6  A    between atoms: S_11  and  N_14
REMARK    7  A    between atoms: C_18  and  N_21
REMARK                            x       y       z     vdW  Elec       q    Type
REMARK                         _______ _______ _______ _____ _____    ______ ____
ROOT
ATOM      1  C   UNL     1      -0.018   1.503   0.010  0.00  0.00    +0.068 C 
ATOM      2  C   UNL     1       0.002  -0.004   0.002  0.00  0.00    +0.063 C 
ATOM      3  N   UNL     1       0.022  -0.659   1.123  0.00  0.00    -0.187 NA
ENDROOT
BRANCH   2   4
ATOM      4  C   UNL     1      -0.000  -0.734  -1.278  0.00  0.00    -0.002 A 
ATOM      5  C   UNL     1      -0.015  -0.031  -2.486  0.00  0.00    +0.012 A 
ATOM      6  C   UNL     1      -0.017  -0.717  -3.681  0.00  0.00    +0.027 A 
ATOM      7  C   UNL     1      -0.003  -2.107  -3.686  0.00  0.00    +0.047 A 
ATOM      8  C   UNL     1       0.011  -2.810  -2.488  0.00  0.00    +0.027 A 
ATOM      9  C   UNL     1       0.019  -2.132  -1.288  0.00  0.00    +0.012 A 
BRANCH   7  10
ATOM     10  N   UNL     1      -0.005  -2.801  -4.904  0.00  0.00    -0.306 N 
ATOM     11  C   UNL     1       0.002  -4.162  -5.066  0.00  0.00    +0.112 A 
ATOM     12  C   UNL     1      -0.003  -4.397  -6.392  0.00  0.00    +0.130 A 
ATOM     13  N   UNL     1      -0.013  -3.216  -7.026  0.00  0.00    -0.244 NA
ATOM     14  C   UNL     1      -0.019  -2.252  -6.146  0.00  0.00    +0.204 A 
ENDBRANCH   7  10
ENDBRANCH   2   4
BRANCH   3  15
ATOM     15  N   UNL     1       0.024   0.035   2.340  0.00  0.00    -0.238 N 
ATOM     16  H   UNL     1       0.011   1.004   2.345  0.00  0.00    +0.174 HD
BRANCH  15  17
ATOM     17  C   UNL     1       0.045  -0.669   3.544  0.00  0.00    +0.048 A 
ATOM     18  C   UNL     1       0.069  -2.059   3.539  0.00  0.00    +0.026 A 
ATOM     19  C   UNL     1       0.091  -2.752   4.732  0.00  0.00    +0.030 A 
ATOM     20  C   UNL     1       0.087  -2.066   5.933  0.00  0.00    +0.105 A 
ATOM     21  C   UNL     1       0.062  -0.683   5.943  0.00  0.00    +0.030 A 
ATOM     22  C   UNL     1       0.047   0.017   4.753  0.00  0.00    +0.026 A 
BRANCH  20  23
ATOM     23  S   UNL     1       0.113  -2.955   7.454  0.00  0.00    +0.056 S 
ATOM     24  O   UNL     1      -0.446  -2.094   8.437  0.00  0.00    -0.153 OA
ATOM     25  O   UNL     1      -0.417  -4.244   7.180  0.00  0.00    -0.153 OA
BRANCH  23  26
ATOM     26  N   UNL     1       1.702  -3.174   7.866  0.00  0.00    -0.204 NA
ATOM     27  H   UNL     1       2.404  -2.829   7.292  0.00  0.00    +0.144 HD
ATOM     28  H   UNL     1       1.931  -3.648   8.681  0.00  0.00    +0.144 HD
ENDBRANCH  23  26
ENDBRANCH  20  23
ENDBRANCH  15  17
ENDBRANCH   3  15
TORSDOF 6
