REMARK  Name = ZINC45799907
REMARK  7 active torsions:
REMARK  status: ('A' for Active; 'I' for Inactive)
REMARK    1  A    between atoms: C_1  and  C_2
REMARK    2  A    between atoms: C_6  and  N_9
REMARK    3  A    between atoms: C_7  and  C_8
REMARK    4  A    between atoms: C_11  and  C_16
REMARK    5  A    between atoms: N_18  and  C_19
REMARK    6  A    between atoms: C_22  and  N_25
REMARK    7  A    between atoms: N_28  and  C_29
REMARK                            x       y       z     vdW  Elec       q    Type
REMARK                         _______ _______ _______ _____ _____    ______ ____
ROOT
ATOM      1  C   UNL     1      -0.809  -5.688   3.476  0.00  0.00    +0.222 C 
ATOM      2  O   UNL     1      -1.248  -5.829   2.353  0.00  0.00    -0.275 OA
ATOM      3  N   UNL     1      -0.423  -6.764   4.189  0.00  0.00    -0.285 N 
ATOM      4  H   UNL     1      -0.011  -6.646   5.059  0.00  0.00    +0.155 HD
ENDROOT
BRANCH   1   7
ATOM      5  N   UNL     1      -0.001  -2.794   2.347  0.00  0.00    -0.270 N 
ATOM      6  C   UNL     1      -1.194  -3.234   3.079  0.00  0.00    +0.127 C 
ATOM      7  C   UNL     1      -0.696  -4.308   4.072  0.00  0.00    +0.102 C 
ATOM      8  C   UNL     1       0.785  -3.904   4.256  0.00  0.00    +0.110 C 
ATOM      9  C   UNL     1       1.125  -3.157   2.986  0.00  0.00    +0.221 C 
ATOM     10  O   UNL     1       2.250  -2.917   2.601  0.00  0.00    -0.275 OA
BRANCH   5  16
ATOM     11  C   UNL     1      -0.109   1.494  -0.056  0.00  0.00    +0.044 C 
ATOM     12  C   UNL     1      -0.084  -0.013  -0.057  0.00  0.00    -0.046 A 
ATOM     13  C   UNL     1      -0.091  -0.703  -1.255  0.00  0.00    +0.004 A 
ATOM     14  C   UNL     1      -0.068  -2.086  -1.260  0.00  0.00    +0.002 A 
ATOM     15  C   UNL     1      -0.038  -2.782  -0.068  0.00  0.00    +0.024 A 
ATOM     16  C   UNL     1      -0.031  -2.092   1.137  0.00  0.00    +0.039 A 
ATOM     17  C   UNL     1      -0.049  -0.703   1.139  0.00  0.00    -0.026 A 
ATOM     18  C   UNL     1      -0.035   0.050   2.444  0.00  0.00    +0.046 C 
ENDBRANCH   5  16
ENDBRANCH   1   7
BRANCH   3  19
ATOM     19  C   UNL     1      -0.618  -8.052   3.674  0.00  0.00    +0.034 A 
ATOM     20  C   UNL     1      -0.939  -9.100   4.528  0.00  0.00    +0.025 A 
ATOM     21  C   UNL     1      -1.130 -10.369   4.020  0.00  0.00    +0.025 A 
ATOM     22  C   UNL     1      -1.001 -10.599   2.657  0.00  0.00    +0.035 A 
ATOM     23  C   UNL     1      -0.680  -9.551   1.804  0.00  0.00    +0.025 A 
ATOM     24  C   UNL     1      -0.495  -8.280   2.310  0.00  0.00    +0.025 A 
BRANCH  22  25
ATOM     25  N   UNL     1      -1.195 -11.887   2.142  0.00  0.00    -0.269 N 
ATOM     26  C   UNL     1      -0.457 -12.314   1.098  0.00  0.00    +0.304 C 
ATOM     27  O   UNL     1       0.317 -11.553   0.549  0.00  0.00    -0.253 OA
ATOM     28  N   UNL     1      -0.577 -13.584   0.662  0.00  0.00    -0.302 N 
ATOM     29  C   UNL     1       0.225 -14.047  -0.473  0.00  0.00    +0.129 C 
ATOM     30  H   UNL     1      -1.860 -12.472   2.537  0.00  0.00    +0.156 HD
ATOM     31  H   UNL     1      -1.195 -14.190   1.100  0.00  0.00    +0.150 HD
ENDBRANCH  22  25
ENDBRANCH   3  19
TORSDOF 4
