REMARK  Name = ZINC23894352
REMARK  8 active torsions:
REMARK  status: ('A' for Active; 'I' for Inactive)
REMARK    1  A    between atoms: C_1  and  C_2
REMARK    2  A    between atoms: C_3  and  O_33
REMARK    3  A    between atoms: C_12  and  C_13
REMARK    4  A    between atoms: C_13  and  S_14
REMARK    5  A    between atoms: S_14  and  C_15
REMARK    6  A    between atoms: C_18  and  C_27
REMARK    7  A    between atoms: N_19  and  C_20
REMARK    8  A    between atoms: C_20  and  C_21
REMARK                            x       y       z     vdW  Elec       q    Type
REMARK                         _______ _______ _______ _____ _____    ______ ____
ROOT
ATOM      1  C   UNL     1      -2.639  -2.807   1.322  0.00  0.00    +0.192 A 
ATOM      2  N   UNL     1      -2.224  -3.484   0.275  0.00  0.00    -0.122 NA
ATOM      3  N   UNL     1      -2.320  -4.746   0.498  0.00  0.00    -0.128 NA
ATOM      4  C   UNL     1      -2.812  -4.952   1.697  0.00  0.00    +0.167 A 
ATOM      5  N   UNL     1      -3.032  -3.717   2.262  0.00  0.00    -0.298 N 
ENDROOT
BRANCH   4   6
ATOM      6  C   UNL     1      -3.079  -6.265   2.323  0.00  0.00    +0.037 A 
ATOM      7  C   UNL     1      -2.919  -6.442   3.703  0.00  0.00    +0.014 A 
ATOM      8  C   UNL     1      -3.183  -7.689   4.239  0.00  0.00    +0.020 A 
ATOM      9  C   UNL     1      -3.593  -8.713   3.403  0.00  0.00    +0.111 A 
ATOM     10  N   UNL     1      -3.736  -8.517   2.106  0.00  0.00    -0.263 NA
ATOM     11  C   UNL     1      -3.502  -7.347   1.550  0.00  0.00    +0.122 A 
ENDBRANCH   4   6
BRANCH   1  12
ATOM     12  S   UNL     1      -2.689  -1.053   1.481  0.00  0.00    -0.081 S 
BRANCH  12  13
ATOM     13  C   UNL     1      -2.025  -0.573  -0.133  0.00  0.00    +0.113 C 
BRANCH  13  25
ATOM     14  C   UNL     1       0.363   5.287   0.389  0.00  0.00    +0.051 C 
ATOM     15  C   UNL     1       0.341   3.784   0.496  0.00  0.00    +0.034 A 
ATOM     16  C   UNL     1       1.443   3.106   0.992  0.00  0.00    +0.123 A 
ATOM     17  C   UNL     1       1.433   1.717   1.095  0.00  0.00    +0.046 A 
ATOM     18  C   UNL     1       0.335   1.003   0.709  0.00  0.00    +0.015 A 
ATOM     19  C   UNL     1      -0.785   1.670   0.201  0.00  0.00    +0.022 A 
ATOM     20  C   UNL     1      -0.782   3.074   0.100  0.00  0.00    +0.146 A 
ATOM     21  O   UNL     1      -1.867   3.715  -0.386  0.00  0.00    -0.422 OA
ATOM     22  C   UNL     1      -2.955   3.042  -0.792  0.00  0.00    +0.338 A 
ATOM     23  O   UNL     1      -3.908   3.662  -1.228  0.00  0.00    -0.245 OA
ATOM     24  C   UNL     1      -3.028   1.636  -0.713  0.00  0.00    +0.097 A 
ATOM     25  C   UNL     1      -1.974   0.930  -0.228  0.00  0.00    -0.020 A 
BRANCH  16  26
ATOM     26  O   UNL     1       2.543   3.802   1.379  0.00  0.00    -0.506 OA
ATOM     27  H   UNL     1       3.420   3.268   1.773  0.00  0.00    +0.292 HD
ENDBRANCH  16  26
ENDBRANCH  13  25
ENDBRANCH  12  13
ENDBRANCH   1  12
BRANCH   5  28
ATOM     28  C   UNL     1      -3.574  -3.437   3.593  0.00  0.00    +0.161 C 
BRANCH  28  29
ATOM     29  C   UNL     1      -5.080  -3.447   3.535  0.00  0.00    -0.028 A 
ATOM     30  C   UNL     1      -5.769  -2.279   3.267  0.00  0.00    +0.005 A 
ATOM     31  C   UNL     1      -7.150  -2.289   3.209  0.00  0.00    +0.000 A 
ATOM     32  C   UNL     1      -7.842  -3.466   3.429  0.00  0.00    +0.000 A 
ATOM     33  C   UNL     1      -7.153  -4.633   3.701  0.00  0.00    +0.000 A 
ATOM     34  C   UNL     1      -5.772  -4.623   3.755  0.00  0.00    +0.005 A 
ENDBRANCH  28  29
ENDBRANCH   5  28
TORSDOF 7
