REMARK  Name = ZINC07890473
REMARK  8 active torsions:
REMARK  status: ('A' for Active; 'I' for Inactive)
REMARK    1  A    between atoms: C_1  and  C_2
REMARK    2  A    between atoms: C_2  and  C_13
REMARK    3  A    between atoms: N_3  and  N_4
REMARK    4  A    between atoms: N_4  and  C_5
REMARK    5  A    between atoms: C_8  and  C_11
REMARK    6  A    between atoms: C_16  and  O_19
REMARK    7  A    between atoms: O_19  and  C_20
REMARK    8  A    between atoms: C_20  and  C_21
REMARK                            x       y       z     vdW  Elec       q    Type
REMARK                         _______ _______ _______ _____ _____    ______ ____
ROOT
ATOM      1  C   UNL     1      -2.406   5.573   0.044  0.00  0.00    -0.002 A 
ATOM      2  C   UNL     1      -3.625   6.256   0.047  0.00  0.00    +0.013 A 
ATOM      3  C   UNL     1      -3.640   7.634   0.059  0.00  0.00    +0.046 A 
ATOM      4  C   UNL     1      -2.447   8.344   0.058  0.00  0.00    +0.121 A 
ATOM      5  C   UNL     1      -1.233   7.669   0.049  0.00  0.00    +0.046 A 
ATOM      6  C   UNL     1      -1.207   6.291   0.042  0.00  0.00    +0.013 A 
ENDROOT
BRANCH   1   8
ATOM      7  C   UNL     1      -3.678   3.326   0.037  0.00  0.00    +0.068 C 
ATOM      8  C   UNL     1      -2.384   4.099   0.036  0.00  0.00    +0.063 C 
ATOM      9  N   UNL     1      -1.250   3.466   0.027  0.00  0.00    -0.187 NA
BRANCH   9  10
ATOM     10  N   UNL     1      -1.230   2.066   0.019  0.00  0.00    -0.238 N 
ATOM     11  H   UNL     1      -2.062   1.568   0.020  0.00  0.00    +0.174 HD
BRANCH  10  12
ATOM     12  C   UNL     1      -0.017   1.389   0.010  0.00  0.00    +0.048 A 
ATOM     13  C   UNL     1       1.178   2.105   0.002  0.00  0.00    +0.025 A 
ATOM     14  C   UNL     1       2.377   1.440  -0.013  0.00  0.00    +0.017 A 
ATOM     15  C   UNL     1       2.399   0.041  -0.021  0.00  0.00    +0.063 A 
ATOM     16  C   UNL     1       1.198  -0.675  -0.013  0.00  0.00    +0.017 A 
ATOM     17  C   UNL     1       0.002  -0.004   0.002  0.00  0.00    +0.025 A 
BRANCH  15  18
ATOM     18  C   UNL     1       3.686  -0.677  -0.036  0.00  0.00    +0.387 C 
ATOM     19  O   UNL     1       3.704  -1.892  -0.043  0.00  0.00    -0.241 OA
ATOM     20  O   UNL     1       4.843   0.014  -0.043  0.00  0.00    -0.241 OA
ENDBRANCH  15  18
ENDBRANCH  10  12
ENDBRANCH   9  10
ENDBRANCH   1   8
BRANCH   4  21
ATOM     21  O   UNL     1      -2.467   9.702   0.065  0.00  0.00    -0.483 OA
BRANCH  21  22
ATOM     22  C   UNL     1      -3.749  10.332   0.074  0.00  0.00    +0.324 C 
BRANCH  22  23
ATOM     23  C   UNL     1      -3.574  11.829   0.081  0.00  0.00    +0.253 C 
ATOM     24  O   UNL     1      -2.460  12.309   0.078  0.00  0.00    -0.272 OA
ATOM     25  N   UNL     1      -4.655  12.634   0.090  0.00  0.00    -0.294 N 
ATOM     26  C   UNL     1      -6.016  12.075   0.087  0.00  0.00    +0.136 C 
ATOM     27  C   UNL     1      -6.810  12.741   1.222  0.00  0.00    +0.179 C 
ATOM     28  O   UNL     1      -6.707  14.161   1.096  0.00  0.00    -0.377 OA
ATOM     29  C   UNL     1      -5.376  14.665   1.226  0.00  0.00    +0.179 C 
ATOM     30  C   UNL     1      -4.508  14.098   0.097  0.00  0.00    +0.136 C 
ENDBRANCH  22  23
ENDBRANCH  21  22
ENDBRANCH   4  21
TORSDOF 7
