REMARK  Name = ZINC13968578
REMARK  9 active torsions:
REMARK  status: ('A' for Active; 'I' for Inactive)
REMARK    1  A    between atoms: C_1  and  C_2
REMARK    2  A    between atoms: C_2  and  O_3
REMARK    3  A    between atoms: O_3  and  C_4
REMARK    4  A    between atoms: C_4  and  C_5
REMARK    5  A    between atoms: C_5  and  N_6
REMARK    6  A    between atoms: C_10  and  S_27
REMARK    7  A    between atoms: N_15  and  C_16
REMARK    8  A    between atoms: C_16  and  C_18
REMARK    9  A    between atoms: S_27  and  N_30
REMARK                            x       y       z     vdW  Elec       q    Type
REMARK                         _______ _______ _______ _____ _____    ______ ____
ROOT
ATOM      1  N   UNL     1      -1.109   2.232   0.035  0.00  0.00    -0.319 N 
ATOM      2  C   UNL     1      -0.019   1.381   0.066  0.00  0.00    +0.058 A 
ATOM      3  C   UNL     1      -0.011  -0.022   0.090  0.00  0.00    +0.029 A 
ATOM      4  C   UNL     1       1.174  -0.718   0.114  0.00  0.00    +0.030 A 
ATOM      5  C   UNL     1       2.393  -0.060   0.116  0.00  0.00    +0.106 A 
ATOM      6  C   UNL     1       2.414   1.324   0.093  0.00  0.00    +0.045 A 
ATOM      7  C   UNL     1       1.229   2.020   0.069  0.00  0.00    +0.041 A 
ATOM      8  S   UNL     1       0.805   3.744   0.035  0.00  0.00    -0.052 S 
ATOM      9  C   UNL     1      -0.921   3.580   0.019  0.00  0.00    +0.167 A 
ATOM     10  N   UNL     1      -1.840   4.539  -0.007  0.00  0.00    -0.152 NA
ENDROOT
BRANCH   5  11
ATOM     11  S   UNL     1       3.899  -0.973   0.148  0.00  0.00    +0.056 S 
ATOM     12  O   UNL     1       4.886  -0.110   0.695  0.00  0.00    -0.153 OA
ATOM     13  O   UNL     1       3.594  -2.239   0.718  0.00  0.00    -0.153 OA
BRANCH  11  14
ATOM     14  N   UNL     1       4.335  -1.255  -1.424  0.00  0.00    -0.204 NA
ATOM     15  H   UNL     1       5.272  -1.335  -1.661  0.00  0.00    +0.144 HD
ATOM     16  H   UNL     1       3.653  -1.339  -2.109  0.00  0.00    +0.144 HD
ENDBRANCH  11  14
ENDBRANCH   5  11
BRANCH  10  17
ATOM     17  C   UNL     1      -1.465   5.823  -0.025  0.00  0.00    +0.270 C 
ATOM     18  O   UNL     1      -0.281   6.113  -0.017  0.00  0.00    -0.268 OA
BRANCH  17  19
ATOM     19  C   UNL     1      -2.488   6.891  -0.055  0.00  0.00    +0.042 A 
ATOM     20  C   UNL     1      -3.844   6.561  -0.064  0.00  0.00    +0.017 A 
ATOM     21  C   UNL     1      -4.796   7.558  -0.092  0.00  0.00    +0.050 A 
ATOM     22  C   UNL     1      -4.411   8.891  -0.111  0.00  0.00    +0.166 A 
ATOM     23  C   UNL     1      -3.057   9.227  -0.102  0.00  0.00    +0.167 A 
ATOM     24  C   UNL     1      -2.099   8.232  -0.068  0.00  0.00    +0.062 A 
ATOM     25  O   UNL     1      -2.946  10.588  -0.124  0.00  0.00    -0.453 OA
ATOM     26  C   UNL     1      -4.240  11.085   0.266  0.00  0.00    +0.466 C 
ATOM     27  O   UNL     1      -5.144  10.041  -0.140  0.00  0.00    -0.453 OA
ENDBRANCH  17  19
ENDBRANCH  10  17
BRANCH   1  28
ATOM     28  C   UNL     1      -2.467   1.682   0.022  0.00  0.00    +0.152 C 
BRANCH  28  29
ATOM     29  C   UNL     1      -3.386   2.575   0.859  0.00  0.00    +0.181 C 
BRANCH  29  30
ATOM     30  O   UNL     1      -4.676   1.969   0.958  0.00  0.00    -0.378 OA
BRANCH  30  32
ATOM     31  C   UNL     1      -6.955   1.986   1.762  0.00  0.00    +0.034 C 
ATOM     32  C   UNL     1      -5.616   2.726   1.723  0.00  0.00    +0.156 C 
ENDBRANCH  30  32
ENDBRANCH  29  30
ENDBRANCH  28  29
ENDBRANCH   1  28
TORSDOF 8
