REMARK  Name = ZINC36689021
REMARK  6 active torsions:
REMARK  status: ('A' for Active; 'I' for Inactive)
REMARK    1  A    between atoms: C_1  and  C_2
REMARK    2  A    between atoms: C_6  and  C_25
REMARK    3  A    between atoms: C_7  and  O_8
REMARK    4  A    between atoms: O_8  and  C_9
REMARK    5  A    between atoms: C_9  and  C_10
REMARK    6  A    between atoms: C_10  and  N_11
REMARK                            x       y       z     vdW  Elec       q    Type
REMARK                         _______ _______ _______ _____ _____    ______ ____
ROOT
ATOM      1  N   UNL     1      -0.422   2.316   4.005  0.00  0.00    -0.221 N 
ATOM      2  C   UNL     1       0.907   2.546   3.929  0.00  0.00    +0.247 C 
ATOM      3  O   UNL     1       1.794   1.752   3.734  0.00  0.00    -0.273 OA
ATOM      4  C   UNL     1       1.044   4.036   4.191  0.00  0.00    +0.113 C 
ATOM      5  C   UNL     1       1.032   4.263   5.702  0.00  0.00    +0.035 C 
ATOM      6  C   UNL     1       1.556   5.652   6.068  0.00  0.00    +0.003 C 
ATOM      7  C   UNL     1       0.477   6.743   5.949  0.00  0.00    +0.000 C 
ATOM      8  C   UNL     1       0.283   7.074   4.459  0.00  0.00    +0.000 C 
ATOM      9  C   UNL     1       1.645   7.148   3.765  0.00  0.00    +0.000 C 
ATOM     10  C   UNL     1       1.848   5.975   2.812  0.00  0.00    +0.003 C 
ATOM     11  C   UNL     1       2.235   4.676   3.518  0.00  0.00    +0.035 C 
ATOM     12  N   UNL     1      -0.222   4.477   3.569  0.00  0.00    -0.285 N 
ATOM     13  C   UNL     1      -1.087   3.451   3.756  0.00  0.00    +0.309 C 
ATOM     14  O   UNL     1      -2.291   3.553   3.704  0.00  0.00    -0.252 OA
ATOM     15  H   UNL     1      -0.408   5.248   3.034  0.00  0.00    +0.151 HD
ENDROOT
BRANCH   1  16
ATOM     16  C   UNL     1      -1.043   1.022   4.274  0.00  0.00    +0.159 C 
BRANCH  16  17
ATOM     17  C   UNL     1      -1.246   0.270   2.957  0.00  0.00    +0.248 C 
BRANCH  17  18
ATOM     18  O   UNL     1       0.025  -0.033   2.381  0.00  0.00    -0.490 OA
BRANCH  18  25
ATOM     19  C   UNL     1      -0.018   1.503   0.010  0.00  0.00    +0.047 C 
ATOM     20  C   UNL     1       0.002  -0.004   0.002  0.00  0.00    -0.009 A 
ATOM     21  C   UNL     1       0.006  -0.689  -1.198  0.00  0.00    +0.007 A 
ATOM     22  C   UNL     1       0.024  -2.071  -1.206  0.00  0.00    +0.001 A 
ATOM     23  C   UNL     1       0.040  -2.772  -0.014  0.00  0.00    +0.007 A 
ATOM     24  C   UNL     1       0.036  -2.092   1.188  0.00  0.00    -0.009 A 
ATOM     25  C   UNL     1       0.023  -0.705   1.199  0.00  0.00    +0.126 A 
ATOM     26  C   UNL     1       0.052  -2.856   2.487  0.00  0.00    +0.047 C 
ENDBRANCH  18  25
ENDBRANCH  17  18
ENDBRANCH  16  17
ENDBRANCH   1  16
TORSDOF 4
