REMARK  Name = ZINC00509222
REMARK  5 active torsions:
REMARK  status: ('A' for Active; 'I' for Inactive)
REMARK    1  A    between atoms: C_1  and  O_2
REMARK    2  A    between atoms: O_2  and  C_3
REMARK    3  A    between atoms: N_5  and  N_6
REMARK    4  A    between atoms: C_7  and  C_8
REMARK    5  A    between atoms: C_11  and  C_13
REMARK                            x       y       z     vdW  Elec       q    Type
REMARK                         _______ _______ _______ _____ _____    ______ ____
ROOT
ATOM      1  C   UNL     1      -0.474  -4.824  -0.941  0.00  0.00    +0.148 A 
ATOM      2  C   UNL     1      -0.494  -6.189  -1.005  0.00  0.00    +0.051 A 
ATOM      3  C   UNL     1      -1.179  -6.533  -2.178  0.00  0.00    +0.050 A 
ATOM      4  C   UNL     1      -1.546  -5.367  -2.782  0.00  0.00    +0.136 A 
ATOM      5  O   UNL     1      -1.120  -4.340  -2.022  0.00  0.00    -0.454 OA
ENDROOT
BRANCH   4   6
ATOM      6  C   UNL     1      -2.292  -5.249  -4.051  0.00  0.00    +0.020 A 
ATOM      7  C   UNL     1      -2.688  -6.398  -4.740  0.00  0.00    +0.031 A 
ATOM      8  C   UNL     1      -3.385  -6.281  -5.926  0.00  0.00    +0.043 A 
ATOM      9  C   UNL     1      -3.690  -5.029  -6.433  0.00  0.00    +0.040 A 
ATOM     10  C   UNL     1      -3.299  -3.887  -5.755  0.00  0.00    +0.043 A 
ATOM     11  C   UNL     1      -2.608  -3.990  -4.564  0.00  0.00    +0.031 A 
ATOM     12 CL   UNL     1      -3.686  -2.322  -6.399  0.00  0.00    -0.083 Cl
ATOM     13 CL   UNL     1      -3.879  -7.707  -6.784  0.00  0.00    -0.083 Cl
ENDBRANCH   4   6
BRANCH   1  15
ATOM     14  N   UNL     1       0.088  -2.724   0.070  0.00  0.00    -0.182 NA
ATOM     15  C   UNL     1       0.140  -4.023   0.121  0.00  0.00    +0.176 C 
BRANCH  14  18
ATOM     16  C   UNL     1       0.620  -0.613   1.032  0.00  0.00    +0.420 C 
ATOM     17  O   UNL     1       1.129   0.051   1.914  0.00  0.00    -0.225 OA
ATOM     18  N   UNL     1       0.674  -1.958   1.086  0.00  0.00    -0.172 N 
ATOM     19  H   UNL     1       1.120  -2.397   1.827  0.00  0.00    +0.181 HD
BRANCH  16  21
ATOM     20  C   UNL     1      -0.017   1.425   0.010  0.00  0.00    +0.282 C 
ATOM     21  O   UNL     1       0.002  -0.004   0.002  0.00  0.00    -0.453 OA
ENDBRANCH  16  21
ENDBRANCH  14  18
ENDBRANCH   1  15
TORSDOF 4
