REMARK  Name = ZINC21209277
REMARK  8 active torsions:
REMARK  status: ('A' for Active; 'I' for Inactive)
REMARK    1  A    between atoms: C_1  and  C_2
REMARK    2  A    between atoms: C_5  and  S_8
REMARK    3  A    between atoms: S_8  and  N_11
REMARK    4  A    between atoms: C_15  and  C_17
REMARK    5  A    between atoms: N_19  and  C_20
REMARK    6  A    between atoms: C_23  and  N_26
REMARK    7  A    between atoms: N_29  and  C_30
REMARK    8  A    between atoms: C_30  and  C_31
REMARK                            x       y       z     vdW  Elec       q    Type
REMARK                         _______ _______ _______ _____ _____    ______ ____
ROOT
ATOM      1  C   UNL     1       6.460   1.401  -1.739  0.00  0.00    +0.236 C 
ATOM      2  O   UNL     1       6.707   1.881  -0.653  0.00  0.00    -0.274 OA
ATOM      3  N   UNL     1       7.424   0.760  -2.428  0.00  0.00    -0.284 N 
ATOM      4  H   UNL     1       7.180   0.253  -3.374  0.00  0.00    +0.155 HD
ENDROOT
BRANCH   3   5
ATOM      5  C   UNL     1       8.737   0.739  -1.941  0.00  0.00    +0.034 A 
ATOM      6  C   UNL     1       9.540  -0.374  -2.155  0.00  0.00    +0.025 A 
ATOM      7  C   UNL     1      10.836  -0.393  -1.680  0.00  0.00    +0.025 A 
ATOM      8  C   UNL     1      11.333   0.697  -0.977  0.00  0.00    +0.035 A 
ATOM      9  C   UNL     1      10.529   1.807  -0.758  0.00  0.00    +0.025 A 
ATOM     10  C   UNL     1       9.235   1.828  -1.238  0.00  0.00    +0.025 A 
BRANCH   8  11
ATOM     11  N   UNL     1      12.646   0.675  -0.489  0.00  0.00    -0.269 N 
ATOM     12  C   UNL     1      13.619   0.070  -1.199  0.00  0.00    +0.304 C 
ATOM     13  O   UNL     1      13.343  -0.530  -2.220  0.00  0.00    -0.252 OA
ATOM     14  N   UNL     1      14.898   0.129  -0.777  0.00  0.00    -0.292 N 
ATOM     15  H   UNL     1      12.884   1.153   0.473  0.00  0.00    +0.156 HD
ATOM     16  H   UNL     1      15.147   0.671   0.147  0.00  0.00    +0.151 HD
BRANCH  14  17
ATOM     17  C   UNL     1      15.955  -0.530  -1.548  0.00  0.00    +0.180 C 
BRANCH  17  18
ATOM     18  C   UNL     1      17.282  -0.315  -0.867  0.00  0.00    +0.122 A 
ATOM     19  C   UNL     1      17.826  -1.117   0.066  0.00  0.00    +0.046 A 
ATOM     20  C   UNL     1      19.066  -0.542   0.428  0.00  0.00    +0.041 A 
ATOM     21  C   UNL     1      19.205   0.577  -0.306  0.00  0.00    +0.195 A 
ATOM     22  O   UNL     1      18.124   0.706  -1.092  0.00  0.00    -0.466 OA
ENDBRANCH  17  18
ENDBRANCH  14  17
ENDBRANCH   8  11
ENDBRANCH   3   5
BRANCH   1  27
ATOM     23  N   UNL     1       4.206   2.259  -1.388  0.00  0.00    -0.165 NA
ATOM     24  C   UNL     1       3.742   3.493  -2.049  0.00  0.00    +0.110 C 
ATOM     25  C   UNL     1       3.831   3.188  -3.565  0.00  0.00    +0.019 C 
ATOM     26  C   UNL     1       5.121   2.328  -3.635  0.00  0.00    +0.031 C 
ATOM     27  C   UNL     1       5.074   1.523  -2.318  0.00  0.00    +0.166 C 
BRANCH  23  28
ATOM     28  S   UNL     1       3.819   1.784   0.151  0.00  0.00    +0.062 S 
ATOM     29  O   UNL     1       3.472   2.963   0.865  0.00  0.00    -0.153 OA
ATOM     30  O   UNL     1       4.855   0.911   0.579  0.00  0.00    -0.153 OA
BRANCH  28  35
ATOM     31  C   UNL     1      -1.200  -1.545  -0.218  0.00  0.00    +0.044 C 
ATOM     32  C   UNL     1       0.053  -0.713  -0.126  0.00  0.00    -0.050 A 
ATOM     33  C   UNL     1      -0.036   0.654   0.055  0.00  0.00    +0.005 A 
ATOM     34  C   UNL     1       1.114   1.417   0.140  0.00  0.00    +0.029 A 
ATOM     35  C   UNL     1       2.353   0.812   0.043  0.00  0.00    +0.106 A 
ATOM     36  C   UNL     1       2.443  -0.555  -0.137  0.00  0.00    +0.029 A 
ATOM     37  C   UNL     1       1.293  -1.318  -0.221  0.00  0.00    +0.005 A 
ENDBRANCH  28  35
ENDBRANCH  23  28
ENDBRANCH   1  27
TORSDOF 7
