REMARK  Name = ZINC13203774
REMARK  9 active torsions:
REMARK  status: ('A' for Active; 'I' for Inactive)
REMARK    1  A    between atoms: C_1  and  C_2
REMARK    2  A    between atoms: C_5  and  N_11
REMARK    3  A    between atoms: C_6  and  N_8
REMARK    4  A    between atoms: C_12  and  C_14
REMARK    5  A    between atoms: C_14  and  S_15
REMARK    6  A    between atoms: S_15  and  C_16
REMARK    7  A    between atoms: C_19  and  C_24
REMARK    8  A    between atoms: N_20  and  C_21
REMARK    9  A    between atoms: C_21  and  C_22
REMARK                            x       y       z     vdW  Elec       q    Type
REMARK                         _______ _______ _______ _____ _____    ______ ____
ROOT
ATOM      1  S   UNL     1       0.898   3.745   1.790  0.00  0.00    -0.077 S 
ENDROOT
BRANCH   1   2
ATOM      2  C   UNL     1      -0.468   2.668   2.070  0.00  0.00    +0.193 A 
ATOM      3  N   UNL     1      -1.397   2.810   2.988  0.00  0.00    -0.122 NA
ATOM      4  N   UNL     1      -2.239   1.842   2.917  0.00  0.00    -0.128 NA
ATOM      5  C   UNL     1      -1.903   1.026   1.946  0.00  0.00    +0.165 A 
ATOM      6  N   UNL     1      -0.760   1.531   1.371  0.00  0.00    -0.291 N 
BRANCH   5   7
ATOM      7  C   UNL     1      -2.617  -0.205   1.547  0.00  0.00    +0.019 A 
ATOM      8  C   UNL     1      -2.407  -0.758   0.282  0.00  0.00    +0.013 A 
ATOM      9  C   UNL     1      -3.073  -1.909  -0.084  0.00  0.00    +0.021 A 
ATOM     10  C   UNL     1      -3.955  -2.512   0.797  0.00  0.00    +0.041 A 
ATOM     11  C   UNL     1      -4.171  -1.965   2.051  0.00  0.00    +0.021 A 
ATOM     12  C   UNL     1      -3.508  -0.817   2.430  0.00  0.00    +0.013 A 
ATOM     13 CL   UNL     1      -4.794  -3.957   0.328  0.00  0.00    -0.084 Cl
ENDBRANCH   5   7
BRANCH   6  14
ATOM     14  C   UNL     1      -0.009   0.965   0.248  0.00  0.00    +0.250 C 
BRANCH  14  15
ATOM     15  C   UNL     1      -0.496   1.575  -1.040  0.00  0.00    +0.375 C 
ATOM     16  O   UNL     1      -1.380   2.399  -1.023  0.00  0.00    -0.244 OA
ATOM     17  O   UNL     1       0.052   1.204  -2.208  0.00  0.00    -0.244 OA
ENDBRANCH  14  15
ENDBRANCH   6  14
ENDBRANCH   1   2
BRANCH   1  18
ATOM     18  C   UNL     1       0.597   4.977   3.081  0.00  0.00    +0.173 C 
BRANCH  18  20
ATOM     19  N   UNL     1       1.654   7.056   3.905  0.00  0.00    -0.283 N 
ATOM     20  C   UNL     1       1.674   6.031   3.031  0.00  0.00    +0.228 C 
ATOM     21  O   UNL     1       2.558   5.956   2.204  0.00  0.00    -0.275 OA
ATOM     22  H   UNL     1       0.985   7.082   4.607  0.00  0.00    +0.155 HD
BRANCH  19  27
ATOM     23  C   UNL     1       5.488  11.217   3.483  0.00  0.00    +0.044 C 
ATOM     24  C   UNL     1       4.469  10.111   3.596  0.00  0.00    -0.048 A 
ATOM     25  C   UNL     1       4.842   8.803   3.350  0.00  0.00    +0.005 A 
ATOM     26  C   UNL     1       3.911   7.787   3.452  0.00  0.00    +0.026 A 
ATOM     27  C   UNL     1       2.600   8.082   3.801  0.00  0.00    +0.064 A 
ATOM     28  C   UNL     1       2.228   9.398   4.042  0.00  0.00    +0.148 A 
ATOM     29  C   UNL     1       3.165  10.408   3.944  0.00  0.00    +0.038 A 
BRANCH  28  30
ATOM     30  N   UNL     1       0.830   9.717   4.409  0.00  0.00    +0.058 N 
ATOM     31  O   UNL     1       0.486  10.878   4.548  0.00  0.00    -0.126 OA
ATOM     32  O   UNL     1       0.023   8.820   4.572  0.00  0.00    -0.126 OA
ENDBRANCH  28  30
ENDBRANCH  19  27
ENDBRANCH  18  20
ENDBRANCH   1  18
TORSDOF 8
