REMARK  Name = ZINC08589391
REMARK  7 active torsions:
REMARK  status: ('A' for Active; 'I' for Inactive)
REMARK    1  A    between atoms: C_1  and  C_2
REMARK    2  A    between atoms: C_2  and  C_3
REMARK    3  A    between atoms: C_6  and  S_9
REMARK    4  A    between atoms: S_9  and  C_12
REMARK    5  A    between atoms: N_24  and  C_25
REMARK    6  A    between atoms: C_25  and  C_26
REMARK    7  A    between atoms: C_25  and  C_27
REMARK                            x       y       z     vdW  Elec       q    Type
REMARK                         _______ _______ _______ _____ _____    ______ ____
ROOT
ATOM      1  C   UNL     1       3.331  -0.526  -5.868  0.00  0.00    +0.249 A 
ATOM      2  C   UNL     1       2.582   0.126  -6.835  0.00  0.00    +0.204 A 
ATOM      3  N   UNL     1       1.356  -0.101  -7.335  0.00  0.00    -0.209 NA
ATOM      4  C   UNL     1       0.859   0.687  -8.273  0.00  0.00    +0.137 A 
ATOM      5  C   UNL     1       1.613   1.764  -8.748  0.00  0.00    +0.077 A 
ATOM      6  C   UNL     1       2.893   2.039  -8.257  0.00  0.00    +0.087 A 
ATOM      7  N   UNL     1       3.355   1.166  -7.268  0.00  0.00    -0.192 N 
ATOM      8  N   UNL     1       4.551   1.108  -6.545  0.00  0.00    -0.057 NA
ATOM      9  N   UNL     1       4.490   0.107  -5.736  0.00  0.00    -0.108 NA
ATOM     10  C   UNL     1       3.535   3.144  -8.818  0.00  0.00    +0.036 A 
ATOM     11  C   UNL     1       2.920   3.876  -9.775  0.00  0.00    +0.048 A 
ATOM     12  S   UNL     1       1.354   3.037  -9.957  0.00  0.00    -0.092 S 
ATOM     13  N   UNL     1      -0.405   0.446  -8.784  0.00  0.00    -0.326 N 
ATOM     14  H   UNL     1      -0.768   1.024  -9.472  0.00  0.00    +0.148 HD
ENDROOT
BRANCH   1  15
ATOM     15  S   UNL     1       2.826  -1.951  -4.962  0.00  0.00    +0.047 S 
ATOM     16  O   UNL     1       4.014  -2.596  -4.526  0.00  0.00    -0.163 OA
ATOM     17  O   UNL     1       1.847  -2.610  -5.754  0.00  0.00    -0.163 OA
BRANCH  15  21
ATOM     18  C   UNL     1       0.707  -0.490  -1.238  0.00  0.00    -0.048 A 
ATOM     19  C   UNL     1      -0.011  -0.719  -2.397  0.00  0.00    +0.005 A 
ATOM     20  C   UNL     1       0.636  -1.164  -3.534  0.00  0.00    +0.028 A 
ATOM     21  C   UNL     1       2.002  -1.381  -3.513  0.00  0.00    +0.095 A 
ATOM     22  C   UNL     1       2.720  -1.152  -2.354  0.00  0.00    +0.028 A 
ATOM     23  C   UNL     1       2.073  -0.702  -1.218  0.00  0.00    +0.005 A 
BRANCH  18  25
ATOM     24  C   UNL     1      -0.019   1.526   0.010  0.00  0.00    +0.009 C 
ATOM     25  C   UNL     1       0.002  -0.004   0.002  0.00  0.00    +0.032 C 
ENDBRANCH  18  25
ENDBRANCH  15  21
ENDBRANCH   1  15
BRANCH  13  26
ATOM     26  C   UNL     1      -1.193  -0.684  -8.285  0.00  0.00    +0.066 C 
ATOM     27  C   UNL     1      -1.944  -0.263  -7.021  0.00  0.00    +0.027 C 
ATOM     28  C   UNL     1      -2.197  -1.117  -9.355  0.00  0.00    +0.027 C 
ENDBRANCH  13  26
TORSDOF 4
