REMARK  Name = ZINC13048545
REMARK  10 active torsions:
REMARK  status: ('A' for Active; 'I' for Inactive)
REMARK    1  A    between atoms: C_1  and  C_2
REMARK    2  A    between atoms: C_2  and  C_3
REMARK    3  A    between atoms: C_2  and  C_4
REMARK    4  A    between atoms: C_4  and  N_5
REMARK    5  A    between atoms: C_11  and  C_27
REMARK    6  A    between atoms: C_15  and  S_16
REMARK    7  A    between atoms: S_16  and  C_17
REMARK    8  A    between atoms: C_17  and  C_18
REMARK    9  A    between atoms: N_20  and  C_21
REMARK   10  A    between atoms: C_21  and  C_22
REMARK                            x       y       z     vdW  Elec       q    Type
REMARK                         _______ _______ _______ _____ _____    ______ ____
ROOT
ATOM      1  N   UNL     1       2.332   1.482  -0.012  0.00  0.00    -0.287 N 
ATOM      2  C   UNL     1       2.472   0.137  -0.021  0.00  0.00    +0.262 A 
ATOM      3  O   UNL     1       3.572  -0.383  -0.035  0.00  0.00    -0.267 OA
ATOM      4  C   UNL     1       1.245  -0.676  -0.013  0.00  0.00    +0.065 A 
ATOM      5  C   UNL     1       1.290  -2.070  -0.022  0.00  0.00    +0.016 A 
ATOM      6  C   UNL     1       0.129  -2.788  -0.015  0.00  0.00    +0.016 A 
ATOM      7  C   UNL     1      -1.112  -2.137   0.000  0.00  0.00    +0.065 A 
ATOM      8  C   UNL     1      -1.180  -0.750   0.009  0.00  0.00    +0.043 A 
ATOM      9  C   UNL     1       0.002  -0.004   0.002  0.00  0.00    +0.080 A 
ATOM     10  N   UNL     1      -0.016   1.350   0.009  0.00  0.00    -0.223 NA
ATOM     11  C   UNL     1       1.091   2.051   0.003  0.00  0.00    +0.173 A 
ENDROOT
BRANCH   7  12
ATOM     12  C   UNL     1      -2.359  -2.934   0.007  0.00  0.00    +0.387 C 
ATOM     13  O   UNL     1      -3.437  -2.374   0.020  0.00  0.00    -0.241 OA
ATOM     14  O   UNL     1      -2.299  -4.279  -0.001  0.00  0.00    -0.241 OA
ENDBRANCH   7  12
BRANCH   1  15
ATOM     15  C   UNL     1       3.522   2.336  -0.019  0.00  0.00    +0.130 C 
BRANCH  15  17
ATOM     16  C   UNL     1       5.089   3.633  -1.470  0.00  0.00    +0.009 C 
ATOM     17  C   UNL     1       3.923   2.642  -1.463  0.00  0.00    +0.003 C 
ATOM     18  C   UNL     1       4.351   1.347  -2.158  0.00  0.00    +0.009 C 
ENDBRANCH  15  17
ENDBRANCH   1  15
BRANCH  11  19
ATOM     19  S   UNL     1       0.972   3.809   0.013  0.00  0.00    -0.078 S 
BRANCH  19  20
ATOM     20  C   UNL     1      -0.828   4.002   0.032  0.00  0.00    +0.173 C 
BRANCH  20  21
ATOM     21  C   UNL     1      -1.176   5.468   0.043  0.00  0.00    +0.224 C 
ATOM     22  O   UNL     1      -0.294   6.301   0.039  0.00  0.00    -0.275 OA
ATOM     23  N   UNL     1      -2.467   5.854   0.057  0.00  0.00    -0.308 N 
ATOM     24  H   UNL     1      -3.172   5.189   0.060  0.00  0.00    +0.149 HD
BRANCH  23  25
ATOM     25  C   UNL     1      -2.805   7.280   0.068  0.00  0.00    +0.178 C 
BRANCH  25  26
ATOM     26  C   UNL     1      -4.303   7.441   0.083  0.00  0.00    +0.122 A 
ATOM     27  C   UNL     1      -5.075   7.519   1.182  0.00  0.00    +0.046 A 
ATOM     28  C   UNL     1      -6.409   7.664   0.737  0.00  0.00    +0.041 A 
ATOM     29  C   UNL     1      -6.372   7.666  -0.608  0.00  0.00    +0.195 A 
ATOM     30  O   UNL     1      -5.094   7.536  -0.998  0.00  0.00    -0.466 OA
ENDBRANCH  25  26
ENDBRANCH  23  25
ENDBRANCH  20  21
ENDBRANCH  19  20
ENDBRANCH  11  19
TORSDOF 8
