REMARK  Name = ZINC04368724
REMARK  7 active torsions:
REMARK  status: ('A' for Active; 'I' for Inactive)
REMARK    1  A    between atoms: C_1  and  C_2
REMARK    2  A    between atoms: C_2  and  C_3
REMARK    3  A    between atoms: C_3  and  O_4
REMARK    4  A    between atoms: O_4  and  C_5
REMARK    5  A    between atoms: C_10  and  C_11
REMARK    6  A    between atoms: C_13  and  C_22
REMARK    7  A    between atoms: C_14  and  C_21
REMARK                            x       y       z     vdW  Elec       q    Type
REMARK                         _______ _______ _______ _____ _____    ______ ____
ROOT
ATOM      1  C   UNL     1      -1.243  -4.566  -0.040  0.00  0.00    +0.167 C 
ATOM      2  C   UNL     1      -0.628  -4.359  -1.413  0.00  0.00    +0.062 C 
ATOM      3  C   UNL     1      -0.376  -5.476  -2.158  0.00  0.00    +0.052 C 
ATOM      4  N   UNL     1      -0.651  -6.694  -1.712  0.00  0.00    -0.218 NA
ATOM      5  C   UNL     1      -1.185  -6.963  -0.533  0.00  0.00    +0.237 C 
ATOM      6  N   UNL     1      -1.505  -5.958   0.343  0.00  0.00    -0.208 N 
ATOM      7  N   UNL     1      -2.044  -6.573   1.475  0.00  0.00    -0.251 N 
ATOM      8  C   UNL     1      -2.027  -7.905   1.233  0.00  0.00    +0.203 C 
ATOM      9  N   UNL     1      -1.521  -8.125   0.058  0.00  0.00    -0.205 NA
ATOM     10  C   UNL     1       0.234  -5.319  -3.527  0.00  0.00    +0.066 C 
ATOM     11  H   UNL     1      -2.366  -6.133   2.277  0.00  0.00    +0.171 HD
ENDROOT
BRANCH   1  17
ATOM     12  C   UNL     1      -3.074  -3.415   1.230  0.00  0.00    +0.126 A 
ATOM     13  C   UNL     1      -4.271  -2.716   1.272  0.00  0.00    +0.047 A 
ATOM     14  C   UNL     1      -4.940  -2.422   0.100  0.00  0.00    +0.019 A 
ATOM     15  C   UNL     1      -4.416  -2.825  -1.116  0.00  0.00    +0.018 A 
ATOM     16  C   UNL     1      -3.223  -3.522  -1.160  0.00  0.00    +0.024 A 
ATOM     17  C   UNL     1      -2.547  -3.812   0.010  0.00  0.00    +0.022 A 
ATOM     18 BR   UNL     1      -5.334  -2.422  -2.720  0.00  0.00    -0.050 Br
BRANCH  12  19
ATOM     19  O   UNL     1      -2.414  -3.704   2.382  0.00  0.00    -0.492 OA
BRANCH  19  20
ATOM     20  C   UNL     1      -2.954  -3.167   3.591  0.00  0.00    +0.229 C 
BRANCH  20  22
ATOM     21  C   UNL     1      -2.660  -3.021   6.068  0.00  0.00    +0.007 C 
ATOM     22  C   UNL     1      -2.083  -3.597   4.774  0.00  0.00    +0.038 C 
ENDBRANCH  20  22
ENDBRANCH  19  20
ENDBRANCH  12  19
ENDBRANCH   1  17
BRANCH   2  23
ATOM     23  C   UNL     1      -0.332  -3.072  -1.898  0.00  0.00    +0.241 C 
ATOM     24  O   UNL     1       0.097  -2.930  -3.030  0.00  0.00    -0.271 OA
ATOM     25  N   UNL     1      -0.522  -1.995  -1.110  0.00  0.00    -0.325 N 
ATOM     26  H   UNL     1      -0.790  -2.112  -0.185  0.00  0.00    +0.145 HD
ATOM     27  H   UNL     1      -0.389  -1.103  -1.467  0.00  0.00    +0.145 HD
ENDBRANCH   2  23
TORSDOF 5
