REMARK  Name = ZINC19949834
REMARK  9 active torsions:
REMARK  status: ('A' for Active; 'I' for Inactive)
REMARK    1  A    between atoms: C_4  and  S_7
REMARK    2  A    between atoms: S_7  and  N_10
REMARK    3  A    between atoms: N_10  and  C_11
REMARK    4  A    between atoms: N_10  and  C_26
REMARK    5  A    between atoms: C_11  and  C_12
REMARK    6  A    between atoms: N_14  and  N_15
REMARK    7  A    between atoms: C_16  and  C_17
REMARK    8  A    between atoms: C_22  and  C_23
REMARK    9  A    between atoms: C_30  and  N_32
REMARK                            x       y       z     vdW  Elec       q    Type
REMARK                         _______ _______ _______ _____ _____    ______ ____
ROOT
ATOM      1  N   UNL     1       4.645  -1.486   1.250  0.00  0.00    -0.194 N 
ENDROOT
BRANCH   1   2
ATOM      2  C   UNL     1       5.585  -0.585   1.755  0.00  0.00    +0.054 A 
ATOM      3  C   UNL     1       5.369   0.032   2.982  0.00  0.00    +0.025 A 
ATOM      4  C   UNL     1       6.301   0.922   3.478  0.00  0.00    +0.004 A 
ATOM      5  C   UNL     1       7.447   1.200   2.756  0.00  0.00    +0.033 A 
ATOM      6  C   UNL     1       7.664   0.589   1.535  0.00  0.00    +0.128 A 
ATOM      7  C   UNL     1       6.739  -0.306   1.035  0.00  0.00    +0.057 A 
BRANCH   6   8
ATOM      8  N   UNL     1       8.892   0.891   0.765  0.00  0.00    +0.056 N 
ATOM      9  O   UNL     1       9.704   1.672   1.204  0.00  0.00    -0.126 OA
ATOM     10  O   UNL     1       9.082   0.357  -0.302  0.00  0.00    -0.126 OA
ENDBRANCH   6   8
ENDBRANCH   1   2
BRANCH   1  11
ATOM     11  S   UNL     1       3.929  -1.201  -0.216  0.00  0.00    +0.075 S 
ATOM     12  O   UNL     1       3.622  -2.473  -0.772  0.00  0.00    -0.150 OA
ATOM     13  O   UNL     1       4.746  -0.253  -0.889  0.00  0.00    -0.150 OA
BRANCH  11  17
ATOM     14  C   UNL     1      -0.026   0.843   0.597  0.00  0.00    +0.000 A 
ATOM     15  C   UNL     1       1.118   1.598   0.418  0.00  0.00    +0.002 A 
ATOM     16  C   UNL     1       2.326   0.974   0.170  0.00  0.00    +0.029 A 
ATOM     17  C   UNL     1       2.390  -0.406   0.102  0.00  0.00    +0.109 A 
ATOM     18  C   UNL     1       1.246  -1.160   0.282  0.00  0.00    +0.029 A 
ATOM     19  C   UNL     1       0.037  -0.536   0.529  0.00  0.00    +0.002 A 
ENDBRANCH  11  17
ENDBRANCH   1  11
BRANCH   1  20
ATOM     20  C   UNL     1       4.292  -2.683   2.017  0.00  0.00    +0.228 C 
BRANCH  20  21
ATOM     21  C   UNL     1       5.285  -3.778   1.725  0.00  0.00    +0.251 C 
ATOM     22  O   UNL     1       6.198  -3.578   0.951  0.00  0.00    -0.272 OA
ATOM     23  N   UNL     1       5.160  -4.979   2.322  0.00  0.00    -0.206 N 
ATOM     24  H   UNL     1       4.430  -5.139   2.941  0.00  0.00    +0.177 HD
BRANCH  23  25
ATOM     25  N   UNL     1       6.083  -5.997   2.050  0.00  0.00    -0.188 NA
ATOM     26  C   UNL     1       5.962  -7.155   2.626  0.00  0.00    +0.139 C 
BRANCH  26  27
ATOM     27  C   UNL     1       6.932  -8.224   2.341  0.00  0.00    +0.009 A 
ATOM     28  C   UNL     1       8.055  -7.963   1.554  0.00  0.00    +0.010 A 
ATOM     29  C   UNL     1       8.960  -8.969   1.289  0.00  0.00    +0.001 A 
ATOM     30  C   UNL     1       8.766 -10.243   1.799  0.00  0.00    +0.001 A 
ATOM     31  C   UNL     1       7.663 -10.524   2.579  0.00  0.00    +0.016 A 
ATOM     32  C   UNL     1       6.737  -9.520   2.865  0.00  0.00    +0.072 A 
BRANCH  32  33
ATOM     33  C   UNL     1       5.562  -9.812   3.702  0.00  0.00    +0.387 C 
ATOM     34  O   UNL     1       5.333 -10.960   4.056  0.00  0.00    -0.241 OA
ATOM     35  O   UNL     1       4.814  -8.906   4.044  0.00  0.00    -0.241 OA
ENDBRANCH  32  33
ENDBRANCH  26  27
ENDBRANCH  23  25
ENDBRANCH  20  21
ENDBRANCH   1  20
TORSDOF 9
