REMARK  Name = ZINC44390705
REMARK  6 active torsions:
REMARK  status: ('A' for Active; 'I' for Inactive)
REMARK    1  A    between atoms: C_1  and  C_2
REMARK    2  A    between atoms: C_2  and  C_4
REMARK    3  A    between atoms: C_2  and  N_16
REMARK    4  A    between atoms: N_6  and  C_7
REMARK    5  A    between atoms: C_12  and  N_13
REMARK    6  A    between atoms: C_21  and  C_23
REMARK                            x       y       z     vdW  Elec       q    Type
REMARK                         _______ _______ _______ _____ _____    ______ ____
ROOT
ATOM      1  C   UNL     1      -0.027   1.536   0.034  0.00  0.00    +0.043 C 
ATOM      2  C   UNL     1      -0.000   0.007   0.007  0.00  0.00    +0.194 C 
ENDROOT
BRANCH   2   3
ATOM      3  N   UNL     1      -1.373  -0.506   0.014  0.00  0.00    -0.217 N 
ATOM      4  C   UNL     1      -1.790  -1.274  -1.010  0.00  0.00    +0.268 A 
ATOM      5  O   UNL     1      -1.032  -1.536  -1.930  0.00  0.00    -0.266 OA
ATOM      6  C   UNL     1      -3.111  -1.772  -1.013  0.00  0.00    +0.074 A 
ATOM      7  C   UNL     1      -3.917  -1.450   0.038  0.00  0.00    +0.035 A 
ATOM      8  C   UNL     1      -3.384  -0.637   1.066  0.00  0.00    +0.092 A 
ATOM      9  N   UNL     1      -2.143  -0.216   0.999  0.00  0.00    -0.168 NA
BRANCH   8  10
ATOM     10  C   UNL     1      -4.229  -0.264   2.227  0.00  0.00    +0.002 A 
ATOM     11  C   UNL     1      -3.711   0.541   3.239  0.00  0.00    +0.010 A 
ATOM     12  C   UNL     1      -4.502   0.885   4.317  0.00  0.00    +0.001 A 
ATOM     13  C   UNL     1      -5.807   0.432   4.393  0.00  0.00    +0.000 A 
ATOM     14  C   UNL     1      -6.326  -0.367   3.391  0.00  0.00    +0.001 A 
ATOM     15  C   UNL     1      -5.546  -0.713   2.306  0.00  0.00    +0.010 A 
ENDBRANCH   8  10
ENDBRANCH   2   3
BRANCH   2  16
ATOM     16  C   UNL     1       0.732  -0.504   1.222  0.00  0.00    +0.242 C 
ATOM     17  O   UNL     1       0.164  -1.225   2.014  0.00  0.00    -0.273 OA
ATOM     18  N   UNL     1       2.019  -0.159   1.426  0.00  0.00    -0.282 N 
ATOM     19  H   UNL     1       2.498   0.351   0.754  0.00  0.00    +0.155 HD
BRANCH  18  20
ATOM     20  C   UNL     1       2.664  -0.536   2.609  0.00  0.00    +0.064 A 
ATOM     21  C   UNL     1       1.924  -0.777   3.760  0.00  0.00    +0.025 A 
ATOM     22  C   UNL     1       2.564  -1.149   4.925  0.00  0.00    +0.002 A 
ATOM     23  C   UNL     1       3.941  -1.281   4.949  0.00  0.00    +0.002 A 
ATOM     24  C   UNL     1       4.681  -1.040   3.805  0.00  0.00    +0.034 A 
ATOM     25  C   UNL     1       4.046  -0.674   2.634  0.00  0.00    +0.147 A 
BRANCH  25  26
ATOM     26  N   UNL     1       4.838  -0.424   1.409  0.00  0.00    +0.058 N 
ATOM     27  O   UNL     1       6.029  -0.631   1.407  0.00  0.00    -0.126 OA
ATOM     28  O   UNL     1       4.294  -0.013   0.411  0.00  0.00    -0.126 OA
ENDBRANCH  25  26
ENDBRANCH  18  20
ENDBRANCH   2  16
TORSDOF 5
