REMARK  Name = ZINC67632460
REMARK  5 active torsions:
REMARK  status: ('A' for Active; 'I' for Inactive)
REMARK    1  A    between atoms: C_4  and  N_7
REMARK    2  A    between atoms: N_7  and  C_8
REMARK    3  A    between atoms: N_16  and  C_17
REMARK    4  A    between atoms: C_17  and  C_18
REMARK    5  A    between atoms: C_18  and  N_23
REMARK                            x       y       z     vdW  Elec       q    Type
REMARK                         _______ _______ _______ _____ _____    ______ ____
ROOT
ATOM      1  C   UNL     1       4.580  -1.277   0.794  0.00  0.00    +0.089 C 
ATOM      2  C   UNL     1       5.874  -1.892   0.200  0.00  0.00    +0.043 C 
ATOM      3  C   UNL     1       5.740  -3.374   0.631  0.00  0.00    +0.111 C 
ATOM      4  N   UNL     1       5.135  -3.323   1.975  0.00  0.00    -0.284 N 
ATOM      5  C   UNL     1       4.393  -2.058   2.112  0.00  0.00    +0.131 C 
ATOM      6  C   UNL     1       5.239  -4.278   2.920  0.00  0.00    +0.302 C 
ATOM      7  O   UNL     1       4.696  -4.129   3.997  0.00  0.00    -0.253 OA
ATOM      8  N   UNL     1       5.947  -5.398   2.671  0.00  0.00    -0.297 N 
ATOM      9  H   UNL     1       6.380  -5.517   1.812  0.00  0.00    +0.150 HD
ENDROOT
BRANCH   1  10
ATOM     10  N   UNL     1       4.759   0.153   1.059  0.00  0.00    -0.339 N 
ATOM     11  H   UNL     1       5.651   0.515   1.180  0.00  0.00    +0.146 HD
BRANCH  10  15
ATOM     12  C   UNL     1       1.443   2.660   1.293  0.00  0.00    +0.000 A 
ATOM     13  C   UNL     1       2.714   3.178   1.466  0.00  0.00    +0.002 A 
ATOM     14  C   UNL     1       3.816   2.349   1.389  0.00  0.00    +0.023 A 
ATOM     15  C   UNL     1       3.647   0.994   1.138  0.00  0.00    +0.027 A 
ATOM     16  C   UNL     1       2.369   0.476   0.964  0.00  0.00    +0.023 A 
ATOM     17  C   UNL     1       1.272   1.311   1.042  0.00  0.00    +0.002 A 
ENDBRANCH  10  15
ENDBRANCH   1  10
BRANCH   8  18
ATOM     18  C   UNL     1       6.060  -6.436   3.698  0.00  0.00    +0.128 C 
BRANCH  18  19
ATOM     19  C   UNL     1       6.889  -7.602   3.156  0.00  0.00    +0.047 C 
ATOM     20  C   UNL     1       7.194  -8.562   4.305  0.00  0.00    +0.035 C 
ATOM     21  C   UNL     1       6.080  -9.641   4.417  0.00  0.00    +0.071 C 
ATOM     22  S   UNL     1       5.778  -9.957   2.622  0.00  0.00    -0.159 S 
ATOM     23  C   UNL     1       6.117  -8.259   1.995  0.00  0.00    +0.093 C 
BRANCH  19  24
ATOM     24  N   UNL     1       8.159  -7.074   2.639  0.00  0.00    -0.290 NA
ATOM     25  C   UNL     1       8.967  -8.144   2.035  0.00  0.00    +0.113 C 
ATOM     26  C   UNL     1      10.250  -7.542   1.457  0.00  0.00    +0.175 C 
ATOM     27  O   UNL     1      10.954  -6.849   2.491  0.00  0.00    -0.377 OA
ATOM     28  C   UNL     1      10.196  -5.800   3.101  0.00  0.00    +0.175 C 
ATOM     29  C   UNL     1       8.912  -6.385   3.696  0.00  0.00    +0.113 C 
ENDBRANCH  19  24
ENDBRANCH  18  19
ENDBRANCH   8  18
TORSDOF 5
