REMARK  Name = ZINC40801259
REMARK  6 active torsions:
REMARK  status: ('A' for Active; 'I' for Inactive)
REMARK    1  A    between atoms: C_2  and  C_3
REMARK    2  A    between atoms: C_3  and  N_4
REMARK    3  A    between atoms: C_5  and  C_7
REMARK    4  A    between atoms: C_11  and  N_12
REMARK    5  A    between atoms: C_13  and  C_15
REMARK    6  A    between atoms: C_15  and  C_16
REMARK                            x       y       z     vdW  Elec       q    Type
REMARK                         _______ _______ _______ _____ _____    ______ ____
ROOT
ATOM      1  N   UNL     1       3.521  -1.767   4.027  0.00  0.00    -0.279 N 
ATOM      2  C   UNL     1       3.974  -1.571   5.281  0.00  0.00    +0.222 C 
ATOM      3  O   UNL     1       3.935  -2.475   6.088  0.00  0.00    -0.275 OA
ATOM      4  H   UNL     1       3.552  -1.043   3.381  0.00  0.00    +0.155 HD
ENDROOT
BRANCH   1   9
ATOM      5  C   UNL     1       2.507  -3.384   2.426  0.00  0.00    +0.069 A 
ATOM      6  C   UNL     1       2.035  -4.751   2.295  0.00  0.00    -0.023 A 
ATOM      7  C   UNL     1       2.150  -5.485   3.422  0.00  0.00    -0.004 A 
ATOM      8  S   UNL     1       2.862  -4.381   4.606  0.00  0.00    -0.077 S 
ATOM      9  C   UNL     1       3.012  -3.003   3.659  0.00  0.00    +0.084 A 
ATOM     10  C   UNL     1       1.753  -6.917   3.607  0.00  0.00    +0.043 C 
ATOM     11  C   UNL     1       0.848  -7.322   2.434  0.00  0.00    +0.005 C 
ATOM     12  C   UNL     1       1.502  -6.872   1.125  0.00  0.00    +0.005 C 
ATOM     13  C   UNL     1       1.457  -5.346   1.019  0.00  0.00    +0.037 C 
BRANCH   5  15
ATOM     14  N   UNL     1       1.367  -1.676   1.111  0.00  0.00    -0.308 N 
ATOM     15  C   UNL     1       2.457  -2.447   1.299  0.00  0.00    +0.247 C 
ATOM     16  O   UNL     1       3.399  -2.366   0.532  0.00  0.00    -0.270 OA
ATOM     17  H   UNL     1       0.617  -1.740   1.722  0.00  0.00    +0.149 HD
BRANCH  14  18
ATOM     18  C   UNL     1       1.317  -0.740  -0.015  0.00  0.00    +0.131 C 
BRANCH  18  20
ATOM     19  C   UNL     1      -0.016   1.306   0.009  0.00  0.00    +0.005 C 
ATOM     20  C   UNL     1       0.002  -0.004   0.002  0.00  0.00    -0.016 C 
ENDBRANCH  18  20
ENDBRANCH  14  18
ENDBRANCH   5  15
ENDBRANCH   1   9
BRANCH   2  21
ATOM     21  C   UNL     1       4.528  -0.227   5.681  0.00  0.00    +0.150 C 
BRANCH  21  22
ATOM     22  C   UNL     1       4.968  -0.273   7.146  0.00  0.00    +0.268 C 
ATOM     23  C   UNL     1       5.635   1.030   7.509  0.00  0.00    +0.259 C 
ATOM     24  O   UNL     1       6.839   1.144   7.414  0.00  0.00    -0.271 OA
ATOM     25  N   UNL     1       4.888   2.067   7.941  0.00  0.00    -0.280 N 
ATOM     26  C   UNL     1       3.517   1.877   8.164  0.00  0.00    +0.076 A 
ATOM     27  C   UNL     1       2.682   2.960   8.385  0.00  0.00    +0.027 A 
ATOM     28  C   UNL     1       1.330   2.756   8.590  0.00  0.00    +0.002 A 
ATOM     29  C   UNL     1       0.810   1.475   8.575  0.00  0.00    +0.004 A 
ATOM     30  C   UNL     1       1.639   0.389   8.360  0.00  0.00    +0.047 A 
ATOM     31  C   UNL     1       2.995   0.585   8.160  0.00  0.00    +0.143 A 
ATOM     32  O   UNL     1       3.825  -0.476   7.980  0.00  0.00    -0.477 OA
ATOM     33  H   UNL     1       5.294   2.934   8.095  0.00  0.00    +0.155 HD
ENDBRANCH  21  22
ENDBRANCH   2  21
TORSDOF 6
