REMARK  Name = ZINC12833414
REMARK  9 active torsions:
REMARK  status: ('A' for Active; 'I' for Inactive)
REMARK    1  A    between atoms: C_1  and  O_2
REMARK    2  A    between atoms: O_2  and  C_3
REMARK    3  A    between atoms: C_10  and  C_15
REMARK    4  A    between atoms: C_15  and  N_58
REMARK    5  A    between atoms: C_16  and  C_17
REMARK    6  A    between atoms: C_16  and  N_58
REMARK    7  A    between atoms: C_22  and  C_23
REMARK    8  A    between atoms: C_22  and  N_58
REMARK    9  A    between atoms: N_27  and  C_28
REMARK                            x       y       z     vdW  Elec       q    Type
REMARK                         _______ _______ _______ _____ _____    ______ ____
ROOT
ATOM      1  N   UNL     1      -7.593   3.063   4.681  0.00  0.00    +0.390 N 
ATOM      2  H   UNL     1      -7.068   3.729   4.103  0.00  0.00    -0.080 HD
ENDROOT
BRANCH   1   3
ATOM      3  C   UNL     1      -6.701   1.944   5.054  0.00  0.00    -0.036 C 
BRANCH   3  11
ATOM      4  C   UNL     1      -2.447   1.185   0.610  0.00  0.00    +0.121 A 
ATOM      5  C   UNL     1      -3.152   0.221  -0.108  0.00  0.00    +0.047 A 
ATOM      6  C   UNL     1      -4.389  -0.207   0.318  0.00  0.00    +0.030 A 
ATOM      7  C   UNL     1      -4.947   0.324   1.476  0.00  0.00    +0.049 A 
ATOM      8  C   UNL     1      -4.239   1.298   2.205  0.00  0.00    +0.002 A 
ATOM      9  C   UNL     1      -2.980   1.721   1.765  0.00  0.00    +0.055 A 
ATOM     10  C   UNL     1      -4.838   1.849   3.422  0.00  0.00    +0.017 A 
ATOM     11  C   UNL     1      -6.058   1.398   3.806  0.00  0.00    +0.001 A 
ATOM     12  C   UNL     1      -6.727   0.420   3.040  0.00  0.00    +0.251 A 
ATOM     13  O   UNL     1      -7.822   0.028   3.403  0.00  0.00    -0.268 OA
ATOM     14  N   UNL     1      -6.186  -0.092   1.921  0.00  0.00    -0.322 N 
ATOM     15  H   UNL     1      -6.673  -0.763   1.418  0.00  0.00    +0.169 HD
BRANCH   4  17
ATOM     16  C   UNL     1      -0.731   0.996  -1.025  0.00  0.00    +0.277 C 
ATOM     17  O   UNL     1      -1.226   1.595   0.174  0.00  0.00    -0.495 OA
ENDBRANCH   4  17
ENDBRANCH   3  11
ENDBRANCH   1   3
BRANCH   1  18
ATOM     18  C   UNL     1      -8.743   2.554   3.904  0.00  0.00    -0.035 C 
BRANCH  18  19
ATOM     19  C   UNL     1      -9.552   3.725   3.409  0.00  0.00    -0.027 A 
ATOM     20  C   UNL     1      -9.353   4.496   2.312  0.00  0.00    +0.009 A 
ATOM     21  C   UNL     1     -10.236   5.527   2.048  0.00  0.00    +0.008 A 
ATOM     22  C   UNL     1     -11.267   5.743   2.901  0.00  0.00    +0.045 A 
ATOM     23  S   UNL     1     -11.015   4.462   4.118  0.00  0.00    -0.103 S 
ENDBRANCH  18  19
ENDBRANCH   1  18
BRANCH   1  24
ATOM     24  C   UNL     1      -8.070   3.755   5.897  0.00  0.00    +0.001 C 
BRANCH  24  25
ATOM     25  C   UNL     1      -6.945   4.590   6.452  0.00  0.00    +0.135 A 
ATOM     26  N   UNL     1      -6.123   4.254   7.415  0.00  0.00    -0.115 NA
ATOM     27  N   UNL     1      -5.304   5.231   7.598  0.00  0.00    -0.023 NA
ATOM     28  N   UNL     1      -5.587   6.185   6.782  0.00  0.00    -0.044 NA
ATOM     29  N   UNL     1      -6.594   5.828   6.058  0.00  0.00    -0.228 N 
BRANCH  29  30
ATOM     30  C   UNL     1      -7.233   6.620   5.005  0.00  0.00    +0.111 C 
ATOM     31  C   UNL     1      -6.222   6.915   3.877  0.00  0.00    +0.027 C 
ATOM     32  C   UNL     1      -6.567   8.357   3.425  0.00  0.00    +0.002 C 
ATOM     33  C   UNL     1      -6.919   9.059   4.761  0.00  0.00    +0.002 C 
ATOM     34  C   UNL     1      -7.676   7.983   5.566  0.00  0.00    +0.027 C 
ENDBRANCH  29  30
ENDBRANCH  24  25
ENDBRANCH   1  24
TORSDOF 8
