REMARK  Name = ZINC11098545
REMARK  10 active torsions:
REMARK  status: ('A' for Active; 'I' for Inactive)
REMARK    1  A    between atoms: C_1  and  C_2
REMARK    2  A    between atoms: C_2  and  C_3
REMARK    3  A    between atoms: C_2  and  N_4
REMARK    4  A    between atoms: C_6  and  C_11
REMARK    5  A    between atoms: N_13  and  C_14
REMARK    6  A    between atoms: C_17  and  C_20
REMARK    7  A    between atoms: N_22  and  C_23
REMARK    8  A    between atoms: C_28  and  C_29
REMARK    9  A    between atoms: N_31  and  C_32
REMARK   10  A    between atoms: C_32  and  C_33
REMARK                            x       y       z     vdW  Elec       q    Type
REMARK                         _______ _______ _______ _____ _____    ______ ____
ROOT
ATOM      1  C   UNL     1      -5.902  -1.200  -0.351  0.00  0.00    +0.248 C 
ATOM      2  O   UNL     1      -6.981  -0.640  -0.380  0.00  0.00    -0.270 OA
ATOM      3  N   UNL     1      -5.841  -2.546  -0.383  0.00  0.00    -0.281 N 
ATOM      4  H   UNL     1      -4.987  -2.995  -0.282  0.00  0.00    +0.155 HD
ENDROOT
BRANCH   1   8
ATOM      5  C   UNL     1      -2.328   1.084  -0.148  0.00  0.00    +0.033 A 
ATOM      6  C   UNL     1      -2.263  -0.305  -0.187  0.00  0.00    +0.024 A 
ATOM      7  C   UNL     1      -3.420  -1.049  -0.247  0.00  0.00    +0.015 A 
ATOM      8  C   UNL     1      -4.660  -0.406  -0.281  0.00  0.00    +0.037 A 
ATOM      9  C   UNL     1      -4.722   0.990  -0.247  0.00  0.00    +0.015 A 
ATOM     10  C   UNL     1      -3.562   1.727  -0.181  0.00  0.00    +0.024 A 
BRANCH   5  13
ATOM     11  C   UNL     1      -0.088   1.359   0.592  0.00  0.00    +0.222 C 
ATOM     12  O   UNL     1      -0.178   0.324   1.218  0.00  0.00    -0.275 OA
ATOM     13  N   UNL     1      -1.154   1.835  -0.082  0.00  0.00    -0.285 N 
ATOM     14  H   UNL     1      -1.105   2.698  -0.520  0.00  0.00    +0.155 HD
BRANCH  11  17
ATOM     15  N   UNL     1       2.988   0.534   0.201  0.00  0.00    -0.298 N 
ATOM     16  C   UNL     1       2.334   1.306   1.264  0.00  0.00    +0.121 C 
ATOM     17  C   UNL     1       1.218   2.111   0.562  0.00  0.00    +0.101 C 
ATOM     18  C   UNL     1       1.764   2.215  -0.881  0.00  0.00    +0.110 C 
ATOM     19  C   UNL     1       2.689   1.026  -1.014  0.00  0.00    +0.217 C 
ATOM     20  O   UNL     1       3.102   0.581  -2.064  0.00  0.00    -0.276 OA
BRANCH  15  22
ATOM     21  C   UNL     1       3.261  -1.853  -0.259  0.00  0.00    +0.028 C 
ATOM     22  C   UNL     1       3.854  -0.624   0.433  0.00  0.00    +0.070 C 
ATOM     23  C   UNL     1       5.247  -0.342  -0.135  0.00  0.00    +0.028 C 
ENDBRANCH  15  22
ENDBRANCH  11  17
ENDBRANCH   5  13
ENDBRANCH   1   8
BRANCH   3  24
ATOM     24  C   UNL     1      -7.003  -3.292  -0.562  0.00  0.00    +0.046 A 
ATOM     25  C   UNL     1      -8.081  -2.749  -1.248  0.00  0.00    +0.024 A 
ATOM     26  C   UNL     1      -9.230  -3.492  -1.428  0.00  0.00    +0.002 A 
ATOM     27  C   UNL     1      -9.322  -4.777  -0.918  0.00  0.00    +0.001 A 
ATOM     28  C   UNL     1      -8.264  -5.330  -0.230  0.00  0.00    +0.015 A 
ATOM     29  C   UNL     1      -7.092  -4.592  -0.044  0.00  0.00    +0.058 A 
BRANCH  29  30
ATOM     30  C   UNL     1      -5.955  -5.178   0.692  0.00  0.00    +0.246 C 
ATOM     31  O   UNL     1      -4.980  -4.497   0.945  0.00  0.00    -0.270 OA
ATOM     32  N   UNL     1      -5.998  -6.466   1.084  0.00  0.00    -0.309 N 
ATOM     33  H   UNL     1      -6.777  -7.009   0.881  0.00  0.00    +0.149 HD
BRANCH  32  34
ATOM     34  C   UNL     1      -4.870  -7.048   1.815  0.00  0.00    +0.136 C 
BRANCH  34  35
ATOM     35  C   UNL     1      -5.171  -8.513   2.138  0.00  0.00    +0.135 C 
ATOM     36  C   UNL     1      -3.990  -9.134   2.908  0.00  0.00    +0.035 C 
ATOM     37  C   UNL     1      -4.615  -9.615   4.239  0.00  0.00    +0.031 C 
ATOM     38  C   UNL     1      -6.118  -9.719   3.873  0.00  0.00    +0.160 C 
ATOM     39  O   UNL     1      -6.327  -8.598   2.988  0.00  0.00    -0.375 OA
ENDBRANCH  34  35
ENDBRANCH  32  34
ENDBRANCH  29  30
ENDBRANCH   3  24
TORSDOF 8
