REMARK  Name = ZINC33565085
REMARK  9 active torsions:
REMARK  status: ('A' for Active; 'I' for Inactive)
REMARK    1  A    between atoms: C_1  and  C_2
REMARK    2  A    between atoms: N_4  and  C_5
REMARK    3  A    between atoms: C_5  and  C_16
REMARK    4  A    between atoms: C_6  and  C_7
REMARK    5  A    between atoms: C_11  and  N_13
REMARK    6  A    between atoms: C_24  and  C_26
REMARK    7  A    between atoms: C_26  and  C_27
REMARK    8  A    between atoms: C_27  and  O_29
REMARK    9  A    between atoms: O_29  and  C_30
REMARK                            x       y       z     vdW  Elec       q    Type
REMARK                         _______ _______ _______ _____ _____    ______ ____
ROOT
ATOM      1  C   UNL     1      -0.016  -2.713   0.224  0.00  0.00    +0.261 C 
ATOM      2  O   UNL     1      -0.024  -3.929   0.236  0.00  0.00    -0.269 OA
ATOM      3  N   UNL     1       0.557  -2.033   1.237  0.00  0.00    -0.283 N 
ATOM      4  C   UNL     1       0.471  -0.565   1.319  0.00  0.00    +0.127 C 
ATOM      5  C   UNL     1      -0.266  -0.202   2.610  0.00  0.00    +0.123 C 
ATOM      6  N   UNL     1       0.259  -0.962   3.736  0.00  0.00    -0.312 N 
ATOM      7  C   UNL     1       0.923  -2.115   3.628  0.00  0.00    +0.234 C 
ATOM      8  O   UNL     1       1.242  -2.696   4.643  0.00  0.00    -0.274 OA
ATOM      9  C   UNL     1       1.288  -2.727   2.307  0.00  0.00    +0.173 C 
ATOM     10  H   UNL     1       0.117  -0.606   4.627  0.00  0.00    +0.149 HD
ENDROOT
BRANCH   1  11
ATOM     11  C   UNL     1      -0.630  -1.984  -0.896  0.00  0.00    +0.097 C 
ATOM     12  C   UNL     1      -1.775  -1.290  -0.705  0.00  0.00    +0.036 C 
BRANCH  12  13
ATOM     13  C   UNL     1      -2.306  -0.437  -1.780  0.00  0.00    -0.021 A 
ATOM     14  C   UNL     1      -1.442   0.121  -2.727  0.00  0.00    +0.008 A 
ATOM     15  C   UNL     1      -1.947   0.919  -3.731  0.00  0.00    +0.003 A 
ATOM     16  C   UNL     1      -3.307   1.168  -3.803  0.00  0.00    +0.033 A 
ATOM     17  C   UNL     1      -4.169   0.619  -2.870  0.00  0.00    +0.127 A 
ATOM     18  C   UNL     1      -3.679  -0.185  -1.863  0.00  0.00    +0.040 A 
BRANCH  17  19
ATOM     19  N   UNL     1      -5.621   0.892  -2.956  0.00  0.00    +0.056 N 
ATOM     20  O   UNL     1      -6.053   1.593  -3.842  0.00  0.00    -0.126 OA
ATOM     21  O   UNL     1      -6.376   0.414  -2.142  0.00  0.00    -0.126 OA
ENDBRANCH  17  19
ENDBRANCH  12  13
BRANCH  11  25
ATOM     22  C   UNL     1       1.922  -1.707  -3.649  0.00  0.00    +0.109 C 
ATOM     23  C   UNL     1       1.239  -1.581  -2.311  0.00  0.00    +0.214 C 
ATOM     24  O   UNL     1       1.832  -1.095  -1.371  0.00  0.00    -0.276 OA
ATOM     25  N   UNL     1      -0.030  -2.009  -2.160  0.00  0.00    -0.282 N 
ATOM     26  H   UNL     1      -0.527  -2.334  -2.926  0.00  0.00    +0.155 HD
ENDBRANCH  11  25
ENDBRANCH   1  11
BRANCH   9  27
ATOM     27  C   UNL     1       0.909  -4.209   2.308  0.00  0.00    +0.152 C 
BRANCH  27  28
ATOM     28  C   UNL     1       1.667  -4.922   1.218  0.00  0.00    +0.310 C 
ATOM     29  O   UNL     1       2.510  -4.333   0.584  0.00  0.00    -0.251 OA
BRANCH  28  30
ATOM     30  O   UNL     1       1.405  -6.211   0.951  0.00  0.00    -0.461 OA
BRANCH  30  31
ATOM     31  C   UNL     1       2.161  -6.823  -0.096  0.00  0.00    +0.176 C 
ATOM     32  C   UNL     1       1.430  -6.640  -1.427  0.00  0.00    +0.044 C 
ATOM     33  C   UNL     1       2.240  -7.295  -2.548  0.00  0.00    +0.004 C 
ATOM     34  C   UNL     1       2.399  -8.789  -2.255  0.00  0.00    +0.000 C 
ATOM     35  C   UNL     1       3.130  -8.972  -0.924  0.00  0.00    +0.004 C 
ATOM     36  C   UNL     1       2.321  -8.316   0.197  0.00  0.00    +0.044 C 
ENDBRANCH  30  31
ENDBRANCH  28  30
ENDBRANCH  27  28
ENDBRANCH   9  27
TORSDOF 8
