REMARK  Name = ZINC22494226
REMARK  5 active torsions:
REMARK  status: ('A' for Active; 'I' for Inactive)
REMARK    1  A    between atoms: C_1  and  C_2
REMARK    2  A    between atoms: C_4  and  N_28
REMARK    3  A    between atoms: C_7  and  N_8
REMARK    4  A    between atoms: C_9  and  C_11
REMARK    5  A    between atoms: C_20  and  C_23
REMARK                            x       y       z     vdW  Elec       q    Type
REMARK                         _______ _______ _______ _____ _____    ______ ____
ROOT
ATOM      1  C   UNL     1       4.113   5.909  -1.029  0.00  0.00    +0.078 C 
ATOM      2  C   UNL     1       3.181   6.232   0.142  0.00  0.00    +0.032 C 
ATOM      3  C   UNL     1       1.889   5.425  -0.003  0.00  0.00    +0.107 C 
ATOM      4  N   UNL     1       2.205   3.991  -0.019  0.00  0.00    -0.314 N 
ATOM      5  C   UNL     1       3.061   3.648  -1.163  0.00  0.00    +0.107 C 
ATOM      6  C   UNL     1       4.388   4.402  -1.052  0.00  0.00    +0.032 C 
ATOM      7  C   UNL     1       1.045   3.224  -0.018  0.00  0.00    +0.144 A 
ATOM      8  C   UNL     1       1.128   1.830  -0.032  0.00  0.00    +0.047 A 
ATOM      9  C   UNL     1      -0.051   1.109  -0.031  0.00  0.00    +0.034 A 
ATOM     10  C   UNL     1      -1.258   1.823  -0.021  0.00  0.00    +0.100 A 
ATOM     11  N   UNL     1      -1.238   3.150  -0.003  0.00  0.00    -0.147 NA
ATOM     12  N   UNL     1      -0.140   3.816  -0.004  0.00  0.00    -0.134 NA
ENDROOT
BRANCH  10  13
ATOM     13  C   UNL     1      -2.546   1.101  -0.026  0.00  0.00    +0.039 A 
ATOM     14  C   UNL     1      -3.819   1.607  -0.018  0.00  0.00    +0.018 A 
ATOM     15  C   UNL     1      -4.880   0.729  -0.026  0.00  0.00    +0.008 A 
ATOM     16  C   UNL     1      -4.635  -0.607  -0.040  0.00  0.00    +0.046 A 
ATOM     17  S   UNL     1      -2.850  -0.658  -0.051  0.00  0.00    -0.095 S 
ENDBRANCH  10  13
BRANCH   1  19
ATOM     18  N   UNL     1       6.389   6.522  -1.779  0.00  0.00    -0.285 N 
ATOM     19  C   UNL     1       5.412   6.655  -0.861  0.00  0.00    +0.220 C 
ATOM     20  O   UNL     1       5.577   7.375   0.102  0.00  0.00    -0.275 OA
ATOM     21  H   UNL     1       6.277   5.802  -2.602  0.00  0.00    +0.155 HD
BRANCH  18  28
ATOM     22  C   UNL     1       8.771   5.540  -2.986  0.00  0.00    +0.046 C 
ATOM     23  C   UNL     1       8.732   6.860  -2.260  0.00  0.00    -0.027 A 
ATOM     24  C   UNL     1       9.873   7.632  -2.166  0.00  0.00    +0.038 A 
ATOM     25  C   UNL     1       9.838   8.843  -1.500  0.00  0.00    +0.127 A 
ATOM     26  C   UNL     1       8.660   9.286  -0.926  0.00  0.00    +0.034 A 
ATOM     27  C   UNL     1       7.514   8.521  -1.020  0.00  0.00    +0.026 A 
ATOM     28  C   UNL     1       7.548   7.302  -1.685  0.00  0.00    +0.036 A 
BRANCH  25  29
ATOM     29  N   UNL     1      11.063   9.668  -1.402  0.00  0.00    +0.056 N 
ATOM     30  O   UNL     1      12.101   9.280  -1.907  0.00  0.00    -0.126 OA
ATOM     31  O   UNL     1      11.033  10.735  -0.815  0.00  0.00    -0.126 OA
ENDBRANCH  25  29
ENDBRANCH  18  28
ENDBRANCH   1  19
TORSDOF 4
