REMARK  Name = ZINC15851553
REMARK  8 active torsions:
REMARK  status: ('A' for Active; 'I' for Inactive)
REMARK    1  A    between atoms: C_1  and  C_2
REMARK    2  A    between atoms: C_2  and  C_4
REMARK    3  A    between atoms: C_2  and  O_15
REMARK    4  A    between atoms: N_6  and  C_7
REMARK    5  A    between atoms: C_8  and  C_12
REMARK    6  A    between atoms: O_15  and  C_16
REMARK    7  A    between atoms: C_16  and  C_18
REMARK    8  A    between atoms: C_22  and  N_24
REMARK                            x       y       z     vdW  Elec       q    Type
REMARK                         _______ _______ _______ _____ _____    ______ ____
ROOT
ATOM      1  C   UNL     1      -5.952   2.801   0.043  0.00  0.00    +0.340 C 
ATOM      2  O   UNL     1      -5.760   4.001   0.049  0.00  0.00    -0.245 OA
ENDROOT
BRANCH   1   3
ATOM      3  C   UNL     1      -4.804   1.871   0.032  0.00  0.00    +0.061 A 
ATOM      4  C   UNL     1      -5.021   0.491   0.025  0.00  0.00    +0.015 A 
ATOM      5  C   UNL     1      -3.948  -0.376   0.015  0.00  0.00    +0.003 A 
ATOM      6  C   UNL     1      -2.656   0.116   0.013  0.00  0.00    +0.024 A 
ATOM      7  C   UNL     1      -2.429   1.487   0.020  0.00  0.00    +0.045 A 
ATOM      8  C   UNL     1      -3.500   2.366   0.035  0.00  0.00    +0.039 A 
BRANCH   7   9
ATOM      9  N   UNL     1      -1.117   1.980   0.018  0.00  0.00    -0.202 N 
ATOM     10  C   UNL     1      -0.014   1.210   0.009  0.00  0.00    +0.258 C 
ATOM     11  O   UNL     1       0.002  -0.004   0.002  0.00  0.00    -0.269 OA
ATOM     12  C   UNL     1       1.174   2.089   0.002  0.00  0.00    +0.050 A 
ATOM     13  C   UNL     1       2.542   1.867  -0.012  0.00  0.00    +0.014 A 
ATOM     14  C   UNL     1       3.413   2.946  -0.015  0.00  0.00    +0.001 A 
ATOM     15  C   UNL     1       2.926   4.240  -0.004  0.00  0.00    +0.001 A 
ATOM     16  C   UNL     1       1.560   4.477   0.011  0.00  0.00    +0.014 A 
ATOM     17  C   UNL     1       0.678   3.409   0.014  0.00  0.00    +0.050 A 
ATOM     18  C   UNL     1      -0.795   3.287   0.027  0.00  0.00    +0.258 C 
ATOM     19  O   UNL     1      -1.583   4.211   0.040  0.00  0.00    -0.269 OA
ENDBRANCH   7   9
ENDBRANCH   1   3
BRANCH   1  20
ATOM     20  O   UNL     1      -7.210   2.320   0.045  0.00  0.00    -0.449 OA
BRANCH  20  22
ATOM     21  C   UNL     1      -8.673   3.643  -1.383  0.00  0.00    +0.062 C 
ATOM     22  C   UNL     1      -8.288   3.292   0.056  0.00  0.00    +0.259 C 
BRANCH  22  23
ATOM     23  C   UNL     1      -9.482   2.711   0.768  0.00  0.00    +0.258 C 
ATOM     24  O   UNL     1      -9.429   1.588   1.222  0.00  0.00    -0.271 OA
ATOM     25  N   UNL     1     -10.608   3.440   0.900  0.00  0.00    -0.276 N 
ATOM     26  H   UNL     1     -10.650   4.338   0.537  0.00  0.00    +0.155 HD
BRANCH  25  27
ATOM     27  C   UNL     1     -11.707   2.905   1.556  0.00  0.00    +0.084 A 
ATOM     28  C   UNL     1     -12.941   3.496   1.795  0.00  0.00    +0.065 A 
ATOM     29  C   UNL     1     -13.915   2.702   2.505  0.00  0.00    +0.022 A 
ATOM     30  C   UNL     1     -13.542   1.466   2.882  0.00  0.00    +0.048 A 
ATOM     31  S   UNL     1     -11.870   1.341   2.281  0.00  0.00    -0.081 S 
BRANCH  28  32
ATOM     32  C   UNL     1     -13.242   4.859   1.345  0.00  0.00    +0.244 C 
ATOM     33  O   UNL     1     -12.399   5.501   0.745  0.00  0.00    -0.270 OA
ATOM     34  N   UNL     1     -14.450   5.400   1.594  0.00  0.00    -0.325 N 
ATOM     35  H   UNL     1     -15.122   4.888   2.072  0.00  0.00    +0.145 HD
ATOM     36  H   UNL     1     -14.649   6.302   1.297  0.00  0.00    +0.145 HD
ENDBRANCH  28  32
ENDBRANCH  25  27
ENDBRANCH  22  23
ENDBRANCH  20  22
ENDBRANCH   1  20
TORSDOF 7
