REMARK  Name = ZINC13566958
REMARK  9 active torsions:
REMARK  status: ('A' for Active; 'I' for Inactive)
REMARK    1  A    between atoms: N_10  and  C_11
REMARK    2  A    between atoms: N_10  and  N_21
REMARK    3  A    between atoms: C_11  and  C_12
REMARK    4  A    between atoms: N_14  and  C_15
REMARK    5  A    between atoms: C_15  and  C_16
REMARK    6  A    between atoms: N_21  and  C_22
REMARK    7  A    between atoms: C_22  and  C_23
REMARK    8  A    between atoms: N_25  and  C_26
REMARK    9  A    between atoms: C_26  and  C_27
REMARK                            x       y       z     vdW  Elec       q    Type
REMARK                         _______ _______ _______ _____ _____    ______ ____
ROOT
ATOM      1  C   UNL     1      -6.027   4.818  -4.650  0.00  0.00    +0.002 A 
ATOM      2  C   UNL     1      -4.907   4.380  -5.339  0.00  0.00    +0.004 A 
ATOM      3  C   UNL     1      -3.751   4.054  -4.660  0.00  0.00    +0.048 A 
ATOM      4  C   UNL     1      -3.706   4.164  -3.279  0.00  0.00    +0.157 A 
ATOM      5  C   UNL     1      -4.837   4.607  -2.578  0.00  0.00    +0.111 A 
ATOM      6  C   UNL     1      -6.000   4.934  -3.277  0.00  0.00    +0.031 A 
ATOM      7  N   UNL     1      -4.502   4.608  -1.258  0.00  0.00    -0.194 NA
ATOM      8  C   UNL     1      -3.262   4.208  -1.141  0.00  0.00    +0.309 A 
ATOM      9  O   UNL     1      -2.750   3.927  -2.352  0.00  0.00    -0.423 OA
ATOM     10  N   UNL     1      -2.582   4.088   0.050  0.00  0.00    -0.190 N 
ENDROOT
BRANCH  10  11
ATOM     11  N   UNL     1      -3.218   4.410   1.256  0.00  0.00    -0.189 N 
ATOM     12  C   UNL     1      -3.154   5.668   1.736  0.00  0.00    +0.339 C 
ATOM     13  O   UNL     1      -3.777   5.970   2.735  0.00  0.00    -0.247 OA
ATOM     14  N   UNL     1      -2.399   6.591   1.109  0.00  0.00    -0.259 N 
ATOM     15  C   UNL     1      -1.723   6.428  -0.077  0.00  0.00    +0.116 A 
ATOM     16  C   UNL     1      -1.106   7.594  -0.338  0.00  0.00    +0.130 A 
ATOM     17  N   UNL     1      -1.383   8.449   0.660  0.00  0.00    -0.244 NA
ATOM     18  C   UNL     1      -2.155   7.864   1.532  0.00  0.00    +0.207 A 
BRANCH  11  19
ATOM     19  C   UNL     1      -3.953   3.381   1.995  0.00  0.00    +0.228 C 
BRANCH  19  20
ATOM     20  C   UNL     1      -3.055   2.780   3.046  0.00  0.00    +0.233 C 
ATOM     21  O   UNL     1      -1.914   3.173   3.166  0.00  0.00    -0.274 OA
ATOM     22  N   UNL     1      -3.520   1.805   3.852  0.00  0.00    -0.307 N 
ATOM     23  H   UNL     1      -4.433   1.491   3.756  0.00  0.00    +0.149 HD
BRANCH  22  24
ATOM     24  C   UNL     1      -2.648   1.221   4.874  0.00  0.00    +0.178 C 
BRANCH  24  25
ATOM     25  C   UNL     1      -3.403   0.162   5.634  0.00  0.00    +0.122 A 
ATOM     26  C   UNL     1      -3.463  -1.144   5.315  0.00  0.00    +0.046 A 
ATOM     27  C   UNL     1      -4.275  -1.767   6.290  0.00  0.00    +0.041 A 
ATOM     28  C   UNL     1      -4.662  -0.805   7.147  0.00  0.00    +0.195 A 
ATOM     29  O   UNL     1      -4.127   0.360   6.748  0.00  0.00    -0.466 OA
ENDBRANCH  24  25
ENDBRANCH  22  24
ENDBRANCH  19  20
ENDBRANCH  11  19
ENDBRANCH  10  11
BRANCH  10  30
ATOM     30  C   UNL     1      -1.192   3.623   0.057  0.00  0.00    +0.228 C 
BRANCH  30  31
ATOM     31  C   UNL     1      -1.167   2.116   0.056  0.00  0.00    +0.233 C 
ATOM     32  O   UNL     1      -2.208   1.492   0.051  0.00  0.00    -0.274 OA
ATOM     33  N   UNL     1       0.011   1.461   0.062  0.00  0.00    -0.307 N 
ATOM     34  H   UNL     1       0.843   1.960   0.062  0.00  0.00    +0.149 HD
BRANCH  33  35
ATOM     35  C   UNL     1       0.035  -0.004   0.062  0.00  0.00    +0.178 C 
BRANCH  35  36
ATOM     36  C   UNL     1       1.464  -0.482   0.061  0.00  0.00    +0.122 A 
ATOM     37  C   UNL     1       2.210  -0.732   1.152  0.00  0.00    +0.046 A 
ATOM     38  C   UNL     1       3.478  -1.157   0.693  0.00  0.00    +0.041 A 
ATOM     39  C   UNL     1       3.431  -1.141  -0.651  0.00  0.00    +0.195 A 
ATOM     40  O   UNL     1       2.207  -0.737  -1.028  0.00  0.00    -0.466 OA
ENDBRANCH  35  36
ENDBRANCH  33  35
ENDBRANCH  30  31
ENDBRANCH  10  30
TORSDOF 9
