REMARK  Name = ZINC24903406
REMARK  6 active torsions:
REMARK  status: ('A' for Active; 'I' for Inactive)
REMARK    1  A    between atoms: C_8  and  N_16
REMARK    2  A    between atoms: C_9  and  N_11
REMARK    3  A    between atoms: C_17  and  C_19
REMARK    4  A    between atoms: C_19  and  C_20
REMARK    5  A    between atoms: C_20  and  C_21
REMARK    6  A    between atoms: C_23  and  C_26
REMARK                            x       y       z     vdW  Elec       q    Type
REMARK                         _______ _______ _______ _____ _____    ______ ____
ROOT
ATOM      1  N   UNL     1       2.433   1.554  -0.493  0.00  0.00    -0.268 N 
ATOM      2  C   UNL     1       3.548   2.297  -0.640  0.00  0.00    +0.219 C 
ATOM      3  O   UNL     1       3.487   3.505  -0.552  0.00  0.00    -0.275 OA
ATOM      4  H   UNL     1       2.488   0.459  -0.573  0.00  0.00    +0.156 HD
ENDROOT
BRANCH   1  12
ATOM      5  C   UNL     1      -1.363   6.065   0.238  0.00  0.00    +0.002 A 
ATOM      6  C   UNL     1      -2.491   5.291   0.498  0.00  0.00    +0.002 A 
ATOM      7  C   UNL     1      -2.418   3.931   0.511  0.00  0.00    +0.030 A 
ATOM      8  C   UNL     1      -1.191   3.296   0.258  0.00  0.00    +0.091 A 
ATOM      9  C   UNL     1      -0.044   4.083  -0.007  0.00  0.00    +0.091 A 
ATOM     10  C   UNL     1      -0.157   5.483  -0.011  0.00  0.00    +0.030 A 
ATOM     11  N   UNL     1       1.131   3.487  -0.250  0.00  0.00    -0.227 NA
ATOM     12  C   UNL     1       1.212   2.173  -0.241  0.00  0.00    +0.166 A 
ATOM     13  C   UNL     1       0.067   1.386   0.024  0.00  0.00    +0.162 A 
ATOM     14  N   UNL     1      -1.095   1.959   0.259  0.00  0.00    -0.227 NA
BRANCH  13  15
ATOM     15  N   UNL     1       0.168   0.003   0.030  0.00  0.00    -0.312 N 
ATOM     16  C   UNL     1       0.280  -0.516   1.417  0.00  0.00    +0.106 C 
ATOM     17  C   UNL     1      -0.145  -2.000   1.275  0.00  0.00    +0.020 C 
ATOM     18  C   UNL     1      -1.280  -1.936   0.228  0.00  0.00    +0.020 C 
ATOM     19  C   UNL     1      -1.048  -0.619  -0.537  0.00  0.00    +0.106 C 
ENDBRANCH  13  15
ENDBRANCH   1  12
BRANCH   2  20
ATOM     20  C   UNL     1       4.869   1.627  -0.914  0.00  0.00    +0.105 C 
BRANCH  20  21
ATOM     21  C   UNL     1       5.964   2.689  -1.036  0.00  0.00    +0.108 C 
BRANCH  21  22
ATOM     22  C   UNL     1       7.286   2.019  -1.310  0.00  0.00    +0.228 A 
ATOM     23  N   UNL     1       7.786   1.740  -2.487  0.00  0.00    -0.191 NA
ATOM     24  C   UNL     1       8.979   1.148  -2.244  0.00  0.00    +0.209 A 
ATOM     25  N   UNL     1       9.129   1.103  -0.943  0.00  0.00    -0.056 NA
ATOM     26  O   UNL     1       8.169   1.604  -0.396  0.00  0.00    -0.338 OA
BRANCH  24  27
ATOM     27  C   UNL     1       9.932   0.645  -3.255  0.00  0.00    +0.060 A 
ATOM     28  C   UNL     1      11.150   0.046  -3.070  0.00  0.00    +0.019 A 
ATOM     29  C   UNL     1      11.868  -0.347  -4.176  0.00  0.00    +0.008 A 
ATOM     30  C   UNL     1      11.356  -0.120  -5.414  0.00  0.00    +0.046 A 
ATOM     31  S   UNL     1       9.800   0.669  -5.035  0.00  0.00    -0.093 S 
ENDBRANCH  24  27
ENDBRANCH  21  22
ENDBRANCH  20  21
ENDBRANCH   2  20
TORSDOF 6
