REMARK  Name = ZINC58358415
REMARK  16 active torsions:
REMARK  status: ('A' for Active; 'I' for Inactive)
REMARK    1  A    between atoms: C_1  and  C_2
REMARK    2  A    between atoms: C_2  and  O_3
REMARK    3  A    between atoms: O_3  and  C_4
REMARK    4  A    between atoms: C_4  and  C_6
REMARK    5  A    between atoms: C_7  and  C_17
REMARK    6  A    between atoms: C_8  and  C_12
REMARK    7  A    between atoms: C_10  and  N_11
REMARK    8  A    between atoms: C_12  and  O_14
REMARK    9  A    between atoms: O_14  and  C_15
REMARK   10  A    between atoms: C_15  and  C_16
REMARK   11  A    between atoms: C_17  and  S_18
REMARK   12  A    between atoms: S_18  and  C_19
REMARK   13  A    between atoms: N_23  and  C_24
REMARK   14  A    between atoms: C_24  and  C_25
REMARK   15  A    between atoms: C_24  and  C_26
REMARK   16  A    between atoms: C_24  and  C_27
REMARK                            x       y       z     vdW  Elec       q    Type
REMARK                         _______ _______ _______ _____ _____    ______ ____
ROOT
ATOM      1  C   UNL     1      -2.844  -2.417   0.016  0.00  0.00    +0.092 A 
ATOM      2  C   UNL     1      -3.514  -2.699  -1.166  0.00  0.00    -0.000 A 
ATOM      3  C   UNL     1      -4.767  -3.238  -1.040  0.00  0.00    +0.103 A 
ATOM      4  S   UNL     1      -4.977  -3.336   0.726  0.00  0.00    -0.066 S 
ATOM      5  C   UNL     1      -3.498  -2.710   1.217  0.00  0.00    +0.078 A 
ENDROOT
BRANCH   5   6
ATOM      6  N   UNL     1      -3.039  -2.525   2.500  0.00  0.00    -0.352 N 
ATOM      7  H   UNL     1      -2.158  -2.148   2.650  0.00  0.00    +0.143 HD
ATOM      8  H   UNL     1      -3.597  -2.772   3.254  0.00  0.00    +0.143 HD
ENDBRANCH   5   6
BRANCH   1   9
ATOM      9  C   UNL     1      -1.497  -1.838   0.006  0.00  0.00    +0.342 C 
ATOM     10  O   UNL     1      -0.523  -2.566  -0.007  0.00  0.00    -0.245 OA
BRANCH   9  11
ATOM     11  O   UNL     1      -1.339  -0.499   0.012  0.00  0.00    -0.461 OA
BRANCH  11  13
ATOM     12  C   UNL     1      -0.019   1.526   0.010  0.00  0.00    +0.048 C 
ATOM     13  C   UNL     1       0.002  -0.004   0.002  0.00  0.00    +0.229 C 
ENDBRANCH  11  13
ENDBRANCH   9  11
ENDBRANCH   1   9
BRANCH   3  14
ATOM     14  C   UNL     1      -5.700  -3.634  -2.093  0.00  0.00    +0.346 C 
ATOM     15  O   UNL     1      -5.392  -3.496  -3.262  0.00  0.00    -0.244 OA
BRANCH  14  16
ATOM     16  O   UNL     1      -6.903  -4.152  -1.769  0.00  0.00    -0.461 OA
BRANCH  16  17
ATOM     17  C   UNL     1      -7.764  -4.517  -2.849  0.00  0.00    +0.229 C 
ATOM     18  C   UNL     1      -9.072  -5.081  -2.290  0.00  0.00    +0.048 C 
ENDBRANCH  16  17
ENDBRANCH  14  16
ENDBRANCH   3  14
BRANCH   2  19
ATOM     19  C   UNL     1      -2.897  -2.427  -2.514  0.00  0.00    +0.114 C 
BRANCH  19  20
ATOM     20  S   UNL     1      -1.974  -3.890  -3.062  0.00  0.00    -0.080 S 
BRANCH  20  21
ATOM     21  C   UNL     1      -1.323  -3.419  -4.630  0.00  0.00    +0.210 A 
ATOM     22  N   UNL     1      -1.487  -2.259  -5.228  0.00  0.00    -0.101 NA
ATOM     23  N   UNL     1      -0.879  -2.247  -6.360  0.00  0.00    -0.022 NA
ATOM     24  N   UNL     1      -0.293  -3.376  -6.566  0.00  0.00    -0.043 NA
ATOM     25  N   UNL     1      -0.555  -4.181  -5.444  0.00  0.00    -0.215 N 
BRANCH  25  26
ATOM     26  C   UNL     1      -0.097  -5.553  -5.207  0.00  0.00    +0.060 C 
ATOM     27  C   UNL     1      -1.308  -6.474  -5.048  0.00  0.00    +0.036 C 
ATOM     28  C   UNL     1       0.748  -6.021  -6.394  0.00  0.00    +0.036 C 
ATOM     29  C   UNL     1       0.747  -5.596  -3.932  0.00  0.00    +0.036 C 
ENDBRANCH  25  26
ENDBRANCH  20  21
ENDBRANCH  19  20
ENDBRANCH   2  19
TORSDOF 11
