REMARK  Name = ZINC66983595
REMARK  5 active torsions:
REMARK  status: ('A' for Active; 'I' for Inactive)
REMARK    1  A    between atoms: C_1  and  C_2
REMARK    2  A    between atoms: C_2  and  C_4
REMARK    3  A    between atoms: C_2  and  C_22
REMARK    4  A    between atoms: C_4  and  N_5
REMARK    5  A    between atoms: C_14  and  C_16
REMARK                            x       y       z     vdW  Elec       q    Type
REMARK                         _______ _______ _______ _____ _____    ______ ____
ROOT
ATOM      1  N   UNL     1      -3.707  -1.771   1.210  0.00  0.00    -0.299 N 
ATOM      2  C   UNL     1      -3.096  -0.927   2.064  0.00  0.00    +0.302 C 
ATOM      3  O   UNL     1      -1.915  -0.671   1.926  0.00  0.00    -0.253 OA
ATOM      4  N   UNL     1      -3.793  -0.366   3.072  0.00  0.00    -0.283 N 
ATOM      5  C   UNL     1      -3.172   0.645   3.940  0.00  0.00    +0.128 C 
ATOM      6  C   UNL     1      -4.043   1.908   3.922  0.00  0.00    +0.127 C 
ATOM      7  N   UNL     1      -5.438   1.520   4.172  0.00  0.00    -0.298 N 
ATOM      8  C   UNL     1      -6.059   0.510   3.304  0.00  0.00    +0.127 C 
ATOM      9  C   UNL     1      -5.191  -0.749   3.318  0.00  0.00    +0.128 C 
ATOM     10  C   UNL     1      -6.136   2.081   5.179  0.00  0.00    +0.219 C 
ATOM     11  O   UNL     1      -5.649   2.986   5.824  0.00  0.00    -0.275 OA
ATOM     12  H   UNL     1      -4.629  -2.033   1.363  0.00  0.00    +0.150 HD
ENDROOT
BRANCH  10  13
ATOM     13  C   UNL     1      -7.521   1.585   5.505  0.00  0.00    +0.075 C 
ATOM     14  C   UNL     1      -8.501   2.072   4.437  0.00  0.00    +0.013 C 
ATOM     15  C   UNL     1      -9.908   1.568   4.768  0.00  0.00    +0.001 C 
ATOM     16  C   UNL     1     -10.334   2.106   6.135  0.00  0.00    +0.000 C 
ATOM     17  C   UNL     1      -9.353   1.618   7.203  0.00  0.00    +0.001 C 
ATOM     18  C   UNL     1      -7.947   2.122   6.873  0.00  0.00    +0.013 C 
ENDBRANCH  10  13
BRANCH   1  19
ATOM     19  C   UNL     1      -2.979  -2.295   0.052  0.00  0.00    +0.113 C 
BRANCH  19  21
ATOM     20  C   UNL     1      -4.244  -4.449   0.098  0.00  0.00    +0.014 C 
ATOM     21  C   UNL     1      -3.895  -3.224  -0.749  0.00  0.00    +0.033 C 
BRANCH  21  22
ATOM     22  C   UNL     1      -3.189  -3.665  -2.005  0.00  0.00    -0.043 A 
ATOM     23  C   UNL     1      -2.001  -4.367  -1.919  0.00  0.00    +0.004 A 
ATOM     24  C   UNL     1      -1.353  -4.772  -3.071  0.00  0.00    +0.000 A 
ATOM     25  C   UNL     1      -1.893  -4.476  -4.309  0.00  0.00    +0.000 A 
ATOM     26  C   UNL     1      -3.082  -3.774  -4.394  0.00  0.00    +0.000 A 
ATOM     27  C   UNL     1      -3.732  -3.373  -3.242  0.00  0.00    +0.004 A 
ENDBRANCH  21  22
ENDBRANCH  19  21
ENDBRANCH   1  19
TORSDOF 4
