REMARK  Name = ZINC10446521
REMARK  6 active torsions:
REMARK  status: ('A' for Active; 'I' for Inactive)
REMARK    1  A    between atoms: C_3  and  N_11
REMARK    2  A    between atoms: C_6  and  N_7
REMARK    3  A    between atoms: C_12  and  C_14
REMARK    4  A    between atoms: C_14  and  O_15
REMARK    5  A    between atoms: O_15  and  C_16
REMARK    6  A    between atoms: C_21  and  N_22
REMARK                            x       y       z     vdW  Elec       q    Type
REMARK                         _______ _______ _______ _____ _____    ______ ____
ROOT
ATOM      1  N   UNL     1      -6.009  -0.479   0.085  0.00  0.00    -0.282 N 
ATOM      2  C   UNL     1      -4.771   0.054   0.064  0.00  0.00    +0.255 C 
ATOM      3  O   UNL     1      -4.630   1.259   0.072  0.00  0.00    -0.272 OA
ATOM      4  H   UNL     1      -6.124  -1.440   0.013  0.00  0.00    +0.155 HD
ENDROOT
BRANCH   1   7
ATOM      5  C   UNL     1      -8.233   2.430  -0.249  0.00  0.00    +0.034 A 
ATOM      6  C   UNL     1      -7.128   1.611  -0.374  0.00  0.00    +0.026 A 
ATOM      7  C   UNL     1      -7.128   0.352   0.210  0.00  0.00    +0.048 A 
ATOM      8  C   UNL     1      -8.243  -0.083   0.916  0.00  0.00    +0.041 A 
ATOM      9  C   UNL     1      -9.344   0.743   1.043  0.00  0.00    +0.049 A 
ATOM     10  C   UNL     1      -9.340   1.997   0.459  0.00  0.00    +0.127 A 
ATOM     11 BR   UNL     1      -8.252  -1.800   1.708  0.00  0.00    -0.048 Br
BRANCH  10  12
ATOM     12  N   UNL     1     -10.523   2.877   0.590  0.00  0.00    +0.056 N 
ATOM     13  O   UNL     1     -10.521   3.981   0.076  0.00  0.00    -0.126 OA
ATOM     14  O   UNL     1     -11.498   2.496   1.213  0.00  0.00    -0.126 OA
ENDBRANCH  10  12
ENDBRANCH   1   7
BRANCH   2  15
ATOM     15  C   UNL     1      -3.563  -0.846   0.031  0.00  0.00    +0.325 C 
BRANCH  15  16
ATOM     16  O   UNL     1      -2.377  -0.050   0.013  0.00  0.00    -0.480 OA
BRANCH  16  17
ATOM     17  C   UNL     1      -1.190  -0.712  -0.017  0.00  0.00    +0.154 A 
ATOM     18  C   UNL     1      -1.169  -2.099  -0.036  0.00  0.00    +0.086 A 
ATOM     19  C   UNL     1       0.041  -2.770  -0.061  0.00  0.00    +0.127 A 
ATOM     20  C   UNL     1       1.228  -2.058  -0.074  0.00  0.00    +0.041 A 
ATOM     21  C   UNL     1       1.207  -0.676  -0.061  0.00  0.00    +0.039 A 
ATOM     22  C   UNL     1       0.001  -0.002  -0.036  0.00  0.00    +0.168 A 
ATOM     23  F   UNL     1       0.063  -4.121  -0.073  0.00  0.00    -0.205 F 
BRANCH  22  24
ATOM     24  N   UNL     1      -0.019   1.478  -0.021  0.00  0.00    +0.060 N 
ATOM     25  O   UNL     1       1.027   2.102  -0.032  0.00  0.00    -0.126 OA
ATOM     26  O   UNL     1      -1.082   2.072  -0.004  0.00  0.00    -0.126 OA
ENDBRANCH  22  24
ENDBRANCH  16  17
ENDBRANCH  15  16
ENDBRANCH   2  15
TORSDOF 6
