REMARK  Name = ZINC07357239
REMARK  5 active torsions:
REMARK  status: ('A' for Active; 'I' for Inactive)
REMARK    1  A    between atoms: C_6  and  S_11
REMARK    2  A    between atoms: S_11  and  N_14
REMARK    3  A    between atoms: N_14  and  C_15
REMARK    4  A    between atoms: C_18  and  N_24
REMARK    5  A    between atoms: C_19  and  N_21
REMARK                            x       y       z     vdW  Elec       q    Type
REMARK                         _______ _______ _______ _____ _____    ______ ____
ROOT
ATOM      1  N   UNL     1       0.049  -4.171  -0.123  0.00  0.00    -0.216 N 
ATOM      2  H   UNL     1      -0.583  -4.639  -0.690  0.00  0.00    +0.174 HD
ENDROOT
BRANCH   1   3
ATOM      3  C   UNL     1       0.035  -2.772  -0.063  0.00  0.00    +0.050 A 
ATOM      4  C   UNL     1       1.227  -2.062  -0.125  0.00  0.00    +0.026 A 
ATOM      5  C   UNL     1       1.213  -0.683  -0.067  0.00  0.00    +0.027 A 
ATOM      6  C   UNL     1       0.007  -0.005   0.053  0.00  0.00    +0.055 A 
ATOM      7  C   UNL     1      -1.185  -0.715   0.120  0.00  0.00    +0.148 A 
ATOM      8  C   UNL     1      -1.171  -2.095   0.057  0.00  0.00    +0.059 A 
BRANCH   7   9
ATOM      9  N   UNL     1      -2.470   0.007   0.254  0.00  0.00    +0.058 N 
ATOM     10  O   UNL     1      -3.358  -0.455   0.947  0.00  0.00    -0.126 OA
ATOM     11  O   UNL     1      -2.639   1.063  -0.329  0.00  0.00    -0.126 OA
ENDBRANCH   7   9
BRANCH   6  12
ATOM     12  N   UNL     1      -0.008   1.393   0.112  0.00  0.00    -0.356 N 
ATOM     13  H   UNL     1       0.809   1.894  -0.044  0.00  0.00    +0.142 HD
ATOM     14  H   UNL     1      -0.835   1.862   0.305  0.00  0.00    +0.142 HD
ENDBRANCH   6  12
ENDBRANCH   1   3
BRANCH   1  15
ATOM     15  S   UNL     1       1.146  -5.027   0.775  0.00  0.00    +0.072 S 
ATOM     16  O   UNL     1       0.893  -6.402   0.523  0.00  0.00    -0.150 OA
ATOM     17  O   UNL     1       2.415  -4.431   0.543  0.00  0.00    -0.150 OA
BRANCH  15  23
ATOM     18  C   UNL     1      -0.994  -4.882   7.133  0.00  0.00    +0.001 A 
ATOM     19  C   UNL     1      -1.586  -5.951   6.462  0.00  0.00    +0.001 A 
ATOM     20  C   UNL     1      -1.311  -6.195   5.152  0.00  0.00    +0.008 A 
ATOM     21  C   UNL     1      -0.418  -5.358   4.461  0.00  0.00    -0.016 A 
ATOM     22  C   UNL     1      -0.109  -5.578   3.108  0.00  0.00    +0.037 A 
ATOM     23  C   UNL     1       0.761  -4.747   2.472  0.00  0.00    +0.109 A 
ATOM     24  C   UNL     1       1.357  -3.681   3.144  0.00  0.00    +0.029 A 
ATOM     25  C   UNL     1       1.077  -3.434   4.453  0.00  0.00    +0.010 A 
ATOM     26  C   UNL     1       0.184  -4.271   5.143  0.00  0.00    -0.018 A 
ATOM     27  C   UNL     1      -0.124  -4.051   6.497  0.00  0.00    +0.008 A 
ENDBRANCH  15  23
ENDBRANCH   1  15
TORSDOF 5
