REMARK  Name = ZINC25675643
REMARK  5 active torsions:
REMARK  status: ('A' for Active; 'I' for Inactive)
REMARK    1  A    between atoms: C_4  and  C_7
REMARK    2  A    between atoms: C_7  and  C_9
REMARK    3  A    between atoms: C_7  and  N_12
REMARK    4  A    between atoms: N_12  and  S_13
REMARK    5  A    between atoms: S_13  and  C_16
REMARK                            x       y       z     vdW  Elec       q    Type
REMARK                         _______ _______ _______ _____ _____    ______ ____
ROOT
ATOM      1  S   UNL     1       4.716  -2.419  -1.861  0.00  0.00    +0.059 S 
ATOM      2  O   UNL     1       4.157  -3.368  -2.759  0.00  0.00    -0.153 OA
ATOM      3  O   UNL     1       5.482  -1.308  -2.306  0.00  0.00    -0.153 OA
ENDROOT
BRANCH   1   4
ATOM      4  C   UNL     1       5.738  -3.322  -0.746  0.00  0.00    +0.107 A 
ATOM      5  C   UNL     1       6.862  -2.686  -0.182  0.00  0.00    +0.030 A 
ATOM      6  C   UNL     1       7.687  -3.324   0.680  0.00  0.00    +0.027 A 
ATOM      7  C   UNL     1       7.423  -4.673   1.034  0.00  0.00    +0.055 A 
ATOM      8  N   UNL     1       8.207  -5.319   1.871  0.00  0.00    -0.276 N 
ATOM      9  C   UNL     1       7.936  -6.600   2.193  0.00  0.00    +0.304 C 
ATOM     10  O   UNL     1       8.655  -7.202   2.965  0.00  0.00    -0.265 OA
ATOM     11  C   UNL     1       6.742  -7.274   1.595  0.00  0.00    +0.304 C 
ATOM     12  O   UNL     1       6.486  -8.427   1.877  0.00  0.00    -0.265 OA
ATOM     13  N   UNL     1       5.952  -6.592   0.740  0.00  0.00    -0.276 N 
ATOM     14  C   UNL     1       6.237  -5.343   0.440  0.00  0.00    +0.057 A 
ATOM     15  C   UNL     1       5.418  -4.602  -0.453  0.00  0.00    +0.053 A 
ATOM     16  H   UNL     1       5.177  -7.022   0.347  0.00  0.00    +0.155 HD
ATOM     17  H   UNL     1       8.980  -4.874   2.254  0.00  0.00    +0.155 HD
ENDBRANCH   1   4
BRANCH   1  18
ATOM     18  N   UNL     1       3.456  -1.802  -0.980  0.00  0.00    -0.182 NA
ATOM     19  H   UNL     1       2.547  -2.082  -1.172  0.00  0.00    +0.149 HD
BRANCH  18  20
ATOM     20  C   UNL     1       3.714  -0.834   0.088  0.00  0.00    +0.109 C 
BRANCH  20  24
ATOM     21  C   UNL     1       3.205   3.127  -1.429  0.00  0.00    +0.000 A 
ATOM     22  C   UNL     1       4.240   2.849  -0.556  0.00  0.00    +0.000 A 
ATOM     23  C   UNL     1       4.405   1.567  -0.065  0.00  0.00    +0.005 A 
ATOM     24  C   UNL     1       3.534   0.564  -0.446  0.00  0.00    -0.029 A 
ATOM     25  C   UNL     1       2.498   0.842  -1.318  0.00  0.00    +0.005 A 
ATOM     26  C   UNL     1       2.334   2.124  -1.810  0.00  0.00    +0.000 A 
ENDBRANCH  20  24
BRANCH  20  27
ATOM     27  C   UNL     1       2.734  -1.070   1.239  0.00  0.00    +0.012 C 
ATOM     28  C   UNL     1       3.312  -1.156   2.653  0.00  0.00    +0.006 C 
ATOM     29  C   UNL     1       2.800  -2.419   1.957  0.00  0.00    +0.006 C 
ENDBRANCH  20  27
ENDBRANCH  18  20
ENDBRANCH   1  18
TORSDOF 5
