REMARK  Name = ZINC04904494
REMARK  7 active torsions:
REMARK  status: ('A' for Active; 'I' for Inactive)
REMARK    1  A    between atoms: C_1  and  C_2
REMARK    2  A    between atoms: C_5  and  N_11
REMARK    3  A    between atoms: C_6  and  N_8
REMARK    4  A    between atoms: C_12  and  C_14
REMARK    5  A    between atoms: C_14  and  C_16
REMARK    6  A    between atoms: C_14  and  O_17
REMARK    7  A    between atoms: O_17  and  C_18
REMARK                            x       y       z     vdW  Elec       q    Type
REMARK                         _______ _______ _______ _____ _____    ______ ____
ROOT
ATOM      1  N   UNL     1      -1.065   1.333   0.121  0.00  0.00    -0.281 N 
ATOM      2  C   UNL     1      -0.173   0.390  -0.243  0.00  0.00    +0.258 C 
ATOM      3  O   UNL     1      -0.521  -0.767  -0.344  0.00  0.00    -0.271 OA
ATOM      4  H   UNL     1      -0.771   2.243   0.281  0.00  0.00    +0.155 HD
ENDROOT
BRANCH   1   9
ATOM      5  C   UNL     1      -6.541  -0.024   0.716  0.00  0.00    +0.044 C 
ATOM      6  C   UNL     1      -5.087   0.336   0.558  0.00  0.00    -0.048 A 
ATOM      7  C   UNL     1      -4.108  -0.522   1.025  0.00  0.00    +0.005 A 
ATOM      8  C   UNL     1      -2.774  -0.195   0.882  0.00  0.00    +0.026 A 
ATOM      9  C   UNL     1      -2.416   0.998   0.268  0.00  0.00    +0.064 A 
ATOM     10  C   UNL     1      -3.401   1.861  -0.195  0.00  0.00    +0.148 A 
ATOM     11  C   UNL     1      -4.733   1.525  -0.054  0.00  0.00    +0.038 A 
BRANCH  10  12
ATOM     12  N   UNL     1      -3.023   3.136  -0.845  0.00  0.00    +0.058 N 
ATOM     13  O   UNL     1      -3.887   3.906  -1.223  0.00  0.00    -0.126 OA
ATOM     14  O   UNL     1      -1.848   3.416  -1.000  0.00  0.00    -0.126 OA
ENDBRANCH  10  12
ENDBRANCH   1   9
BRANCH   2  15
ATOM     15  C   UNL     1       1.255   0.776  -0.530  0.00  0.00    +0.256 C 
ATOM     16  C   UNL     1       1.914   1.286   0.753  0.00  0.00    +0.062 C 
BRANCH  15  17
ATOM     17  O   UNL     1       1.969  -0.365  -1.010  0.00  0.00    -0.480 OA
BRANCH  17  18
ATOM     18  C   UNL     1       3.072  -0.129  -1.768  0.00  0.00    +0.123 A 
ATOM     19  C   UNL     1       3.508   1.172  -1.974  0.00  0.00    +0.046 A 
ATOM     20  C   UNL     1       4.633   1.410  -2.740  0.00  0.00    +0.005 A 
ATOM     21  C   UNL     1       5.318   0.353  -3.311  0.00  0.00    +0.020 A 
ATOM     22  C   UNL     1       4.883  -0.945  -3.111  0.00  0.00    +0.044 A 
ATOM     23  C   UNL     1       3.761  -1.188  -2.341  0.00  0.00    +0.065 A 
ATOM     24 CL   UNL     1       5.746  -2.269  -3.829  0.00  0.00    -0.083 Cl
ENDBRANCH  17  18
ENDBRANCH  15  17
ENDBRANCH   2  15
TORSDOF 5
