REMARK  Name = ZINC23039049
REMARK  13 active torsions:
REMARK  status: ('A' for Active; 'I' for Inactive)
REMARK    1  A    between atoms: C_1  and  C_2
REMARK    2  A    between atoms: C_6  and  N_9
REMARK    3  A    between atoms: C_7  and  C_8
REMARK    4  A    between atoms: C_10  and  C_12
REMARK    5  A    between atoms: C_12  and  N_13
REMARK    6  A    between atoms: N_13  and  C_14
REMARK    7  A    between atoms: N_13  and  C_15
REMARK    8  A    between atoms: C_15  and  C_16
REMARK    9  A    between atoms: N_18  and  N_19
REMARK   10  A    between atoms: C_22  and  C_26
REMARK   11  A    between atoms: C_22  and  C_27
REMARK   12  A    between atoms: C_27  and  C_28
REMARK   13  A    between atoms: C_28  and  C_29
REMARK                            x       y       z     vdW  Elec       q    Type
REMARK                         _______ _______ _______ _____ _____    ______ ____
ROOT
ATOM      1  C   UNL     1       4.154   1.329  -1.165  0.00  0.00    +0.213 C 
ATOM      2  O   UNL     1       3.512   1.552  -2.169  0.00  0.00    -0.276 OA
ATOM      3  N   UNL     1       3.527   0.946  -0.035  0.00  0.00    -0.225 N 
ATOM      4  H   UNL     1       4.110   0.743   0.876  0.00  0.00    +0.173 HD
ENDROOT
BRANCH   3   5
ATOM      5  N   UNL     1       2.134   0.806  -0.020  0.00  0.00    -0.137 N 
ATOM      6  C   UNL     1       1.492  -0.379  -0.028  0.00  0.00    +0.263 C 
ATOM      7  O   UNL     1       1.992  -1.483  -0.049  0.00  0.00    -0.271 OA
ATOM      8  C   UNL     1       0.013  -0.045  -0.007  0.00  0.00    +0.112 C 
ATOM      9  N   UNL     1      -0.008   1.428   0.013  0.00  0.00    -0.284 N 
ATOM     10  C   UNL     1       1.275   1.832   0.003  0.00  0.00    +0.326 C 
ATOM     11  O   UNL     1       1.617   2.998   0.014  0.00  0.00    -0.251 OA
ATOM     12  C   UNL     1      -0.652  -0.609   1.250  0.00  0.00    +0.041 C 
ATOM     13  H   UNL     1      -0.969   1.964   0.031  0.00  0.00    +0.151 HD
BRANCH   8  14
ATOM     14  C   UNL     1      -0.677  -0.576  -1.264  0.00  0.00    +0.040 C 
BRANCH  14  15
ATOM     15  C   UNL     1      -2.104  -0.029  -1.332  0.00  0.00    +0.038 C 
BRANCH  15  16
ATOM     16  C   UNL     1      -2.784  -0.553  -2.571  0.00  0.00    -0.047 A 
ATOM     17  C   UNL     1      -2.708   0.158  -3.754  0.00  0.00    +0.003 A 
ATOM     18  C   UNL     1      -3.329  -0.325  -4.891  0.00  0.00    +0.000 A 
ATOM     19  C   UNL     1      -4.033  -1.513  -4.843  0.00  0.00    +0.000 A 
ATOM     20  C   UNL     1      -4.113  -2.222  -3.659  0.00  0.00    +0.000 A 
ATOM     21  C   UNL     1      -3.489  -1.741  -2.522  0.00  0.00    +0.003 A 
ENDBRANCH  15  16
ENDBRANCH  14  15
ENDBRANCH   8  14
ENDBRANCH   3   5
BRANCH   1  22
ATOM     22  C   UNL     1       5.654   1.480  -1.180  0.00  0.00    +0.020 C 
BRANCH  22  23
ATOM     23  N   UNL     1       6.089   1.903  -2.518  0.00  0.00    +0.389 N 
ATOM     24  C   UNL     1       5.833   0.852  -3.512  0.00  0.00    -0.095 C 
ATOM     25  H   UNL     1       5.500   2.787  -2.801  0.00  0.00    -0.081 HD
BRANCH  23  26
ATOM     26  C   UNL     1       7.507   2.289  -2.512  0.00  0.00    +0.019 C 
BRANCH  26  28
ATOM     27  N   UNL     1       9.109   3.382  -4.047  0.00  0.00    -0.287 N 
ATOM     28  C   UNL     1       7.854   2.944  -3.824  0.00  0.00    +0.201 C 
ATOM     29  O   UNL     1       7.005   3.077  -4.679  0.00  0.00    -0.278 OA
ATOM     30  H   UNL     1       9.856   3.345  -3.240  0.00  0.00    +0.155 HD
BRANCH  27  36
ATOM     31  C   UNL     1      12.004   6.249  -6.799  0.00  0.00    +0.044 C 
ATOM     32  C   UNL     1      10.861   5.276  -6.667  0.00  0.00    -0.046 A 
ATOM     33  C   UNL     1      10.159   4.879  -7.791  0.00  0.00    +0.004 A 
ATOM     34  C   UNL     1       9.110   3.986  -7.674  0.00  0.00    +0.002 A 
ATOM     35  C   UNL     1       8.759   3.488  -6.434  0.00  0.00    +0.023 A 
ATOM     36  C   UNL     1       9.462   3.885  -5.304  0.00  0.00    +0.036 A 
ATOM     37  C   UNL     1      10.511   4.787  -5.424  0.00  0.00    -0.026 A 
ATOM     38  C   UNL     1      11.273   5.225  -4.199  0.00  0.00    +0.046 C 
ENDBRANCH  27  36
ENDBRANCH  26  28
ENDBRANCH  23  26
ENDBRANCH  22  23
ENDBRANCH   1  22
TORSDOF 9
