REMARK  Name = ZINC28054070
REMARK  4 active torsions:
REMARK  status: ('A' for Active; 'I' for Inactive)
REMARK    1  A    between atoms: C_1  and  C_2
REMARK    2  A    between atoms: C_5  and  C_8
REMARK    3  A    between atoms: C_14  and  C_28
REMARK    4  A    between atoms: C_19  and  C_21
REMARK                            x       y       z     vdW  Elec       q    Type
REMARK                         _______ _______ _______ _____ _____    ______ ____
ROOT
ATOM      1  C   UNL     1      -0.036   3.573  -0.487  0.00  0.00    +0.174 C 
ATOM      2  C   UNL     1      -1.340   2.871  -0.200  0.00  0.00    +0.026 C 
ATOM      3  C   UNL     1      -1.409   1.558   0.020  0.00  0.00    +0.050 C 
ATOM      4  C   UNL     1      -2.741   0.952   0.268  0.00  0.00    +0.038 A 
ATOM      5  C   UNL     1      -2.872  -0.316   0.821  0.00  0.00    +0.016 A 
ATOM      6  C   UNL     1      -4.132  -0.841   1.029  0.00  0.00    -0.050 A 
ATOM      7  C   UNL     1      -5.258  -0.111   0.689  0.00  0.00    +0.007 A 
ATOM      8  C   UNL     1      -5.137   1.152   0.139  0.00  0.00    +0.046 A 
ATOM      9  C   UNL     1      -3.881   1.690  -0.076  0.00  0.00    +0.131 A 
ATOM     10  O   UNL     1      -3.720   2.925  -0.614  0.00  0.00    -0.479 OA
ATOM     11  C   UNL     1      -2.608   3.694  -0.157  0.00  0.00    +0.237 C 
ATOM     12  C   UNL     1      -4.282  -2.216   1.628  0.00  0.00    +0.044 C 
ATOM     13  N   UNL     1      -0.273   0.740   0.032  0.00  0.00    -0.282 N 
ATOM     14  C   UNL     1       0.961   1.367   0.070  0.00  0.00    +0.240 A 
ATOM     15  N   UNL     1       1.084   2.700  -0.166  0.00  0.00    -0.201 N 
ATOM     16  N   UNL     1       2.444   2.976  -0.034  0.00  0.00    -0.042 NA
ATOM     17  N   UNL     1       3.022   1.855   0.251  0.00  0.00    -0.021 NA
ATOM     18  N   UNL     1       2.153   0.904   0.312  0.00  0.00    -0.092 NA
ATOM     19  H   UNL     1      -0.384  -0.355   0.011  0.00  0.00    +0.155 HD
ENDROOT
BRANCH   1  24
ATOM     20  C   UNL     1       0.186   4.994  -6.084  0.00  0.00    +0.044 C 
ATOM     21  C   UNL     1       0.128   4.623  -4.624  0.00  0.00    -0.050 A 
ATOM     22  C   UNL     1       0.185   5.610  -3.658  0.00  0.00    +0.004 A 
ATOM     23  C   UNL     1       0.132   5.271  -2.319  0.00  0.00    +0.006 A 
ATOM     24  C   UNL     1       0.022   3.944  -1.947  0.00  0.00    -0.019 A 
ATOM     25  C   UNL     1      -0.029   2.957  -2.913  0.00  0.00    +0.006 A 
ATOM     26  C   UNL     1       0.019   3.297  -4.252  0.00  0.00    +0.004 A 
ENDBRANCH   1  24
BRANCH  11  27
ATOM     27  C   UNL     1      -2.862   4.141   1.259  0.00  0.00    +0.032 A 
ATOM     28  C   UNL     1      -3.692   3.401   2.080  0.00  0.00    +0.010 A 
ATOM     29  C   UNL     1      -3.920   3.808   3.381  0.00  0.00    +0.001 A 
ATOM     30  C   UNL     1      -3.329   4.963   3.860  0.00  0.00    +0.003 A 
ATOM     31  C   UNL     1      -2.503   5.707   3.039  0.00  0.00    +0.039 A 
ATOM     32  C   UNL     1      -2.269   5.298   1.737  0.00  0.00    +0.130 A 
ATOM     33  F   UNL     1      -1.462   6.025   0.934  0.00  0.00    -0.205 F 
ENDBRANCH  11  27
TORSDOF 2
