REMARK  Name = ZINC66327255
REMARK  9 active torsions:
REMARK  status: ('A' for Active; 'I' for Inactive)
REMARK    1  A    between atoms: C_1  and  C_2
REMARK    2  A    between atoms: C_5  and  N_25
REMARK    3  A    between atoms: C_7  and  S_8
REMARK    4  A    between atoms: S_8  and  N_11
REMARK    5  A    between atoms: C_16  and  C_18
REMARK    6  A    between atoms: N_20  and  C_21
REMARK    7  A    between atoms: C_21  and  C_22
REMARK    8  A    between atoms: C_21  and  C_23
REMARK    9  A    between atoms: C_21  and  C_24
REMARK                            x       y       z     vdW  Elec       q    Type
REMARK                         _______ _______ _______ _____ _____    ______ ____
ROOT
ATOM      1  N   UNL     1       1.609   1.098   3.016  0.00  0.00    -0.165 NA
ATOM      2  C   UNL     1       2.756   0.312   3.489  0.00  0.00    +0.110 C 
ATOM      3  C   UNL     1       3.326   0.978   4.746  0.00  0.00    +0.017 C 
ATOM      4  C   UNL     1       3.650   2.442   4.440  0.00  0.00    +0.003 C 
ATOM      5  C   UNL     1       2.368   3.178   4.042  0.00  0.00    +0.030 C 
ATOM      6  C   UNL     1       1.789   2.536   2.772  0.00  0.00    +0.165 C 
ENDROOT
BRANCH   6   7
ATOM      7  C   UNL     1       0.459   3.164   2.447  0.00  0.00    +0.232 C 
ATOM      8  O   UNL     1      -0.474   3.040   3.213  0.00  0.00    -0.274 OA
ATOM      9  N   UNL     1       0.305   3.865   1.306  0.00  0.00    -0.309 N 
ATOM     10  H   UNL     1       1.051   3.964   0.694  0.00  0.00    +0.149 HD
BRANCH   9  11
ATOM     11  C   UNL     1      -0.989   4.476   0.991  0.00  0.00    +0.026 C 
ATOM     12  C   UNL     1      -1.364   5.472   2.089  0.00  0.00    +0.031 C 
ATOM     13  C   UNL     1      -0.894   5.207  -0.350  0.00  0.00    +0.031 C 
ATOM     14  C   UNL     1      -2.059   3.386   0.903  0.00  0.00    +0.031 C 
ENDBRANCH   9  11
ENDBRANCH   6   7
BRANCH   1  15
ATOM     15  S   UNL     1       0.141   0.376   2.757  0.00  0.00    +0.062 S 
ATOM     16  O   UNL     1       0.396  -1.011   2.581  0.00  0.00    -0.153 OA
ATOM     17  O   UNL     1      -0.529   1.158   1.777  0.00  0.00    -0.153 OA
BRANCH  15  24
ATOM     18  C   UNL     1       0.829  -1.030   5.344  0.00  0.00    +0.046 C 
ATOM     19  C   UNL     1      -0.394  -0.151   5.381  0.00  0.00    -0.024 A 
ATOM     20  C   UNL     1      -1.119  -0.024   6.551  0.00  0.00    +0.007 A 
ATOM     21  C   UNL     1      -2.241   0.783   6.585  0.00  0.00    +0.033 A 
ATOM     22  C   UNL     1      -2.638   1.463   5.448  0.00  0.00    +0.128 A 
ATOM     23  C   UNL     1      -1.912   1.336   4.278  0.00  0.00    +0.061 A 
ATOM     24  C   UNL     1      -0.787   0.533   4.246  0.00  0.00    +0.111 A 
BRANCH  22  25
ATOM     25  N   UNL     1      -3.840   2.326   5.484  0.00  0.00    +0.056 N 
ATOM     26  O   UNL     1      -4.474   2.436   6.507  0.00  0.00    -0.126 OA
ATOM     27  O   UNL     1      -4.186   2.921   4.490  0.00  0.00    -0.126 OA
ENDBRANCH  22  25
ENDBRANCH  15  24
ENDBRANCH   1  15
TORSDOF 5
