REMARK  Name = ZINC08739297
REMARK  5 active torsions:
REMARK  status: ('A' for Active; 'I' for Inactive)
REMARK    1  A    between atoms: C_1  and  C_2
REMARK    2  A    between atoms: C_2  and  C_32
REMARK    3  A    between atoms: C_9  and  C_10
REMARK    4  A    between atoms: C_9  and  N_70
REMARK    5  A    between atoms: C_14  and  O_16
REMARK                            x       y       z     vdW  Elec       q    Type
REMARK                         _______ _______ _______ _____ _____    ______ ____
ROOT
ATOM      1  C   UNL     1      -4.341   1.798   4.706  0.00  0.00    +0.117 A 
ATOM      2  N   UNL     1      -5.193   2.641   4.160  0.00  0.00    -0.233 NA
ATOM      3  C   UNL     1      -6.495   2.542   4.406  0.00  0.00    +0.082 A 
ATOM      4  C   UNL     1      -6.967   1.562   5.283  0.00  0.00    +0.046 A 
ATOM      5  C   UNL     1      -6.041   0.647   5.767  0.00  0.00    +0.220 A 
ATOM      6  N   UNL     1      -4.752   0.810   5.471  0.00  0.00    -0.200 NA
ATOM      7  C   UNL     1      -8.409   1.549   5.687  0.00  0.00    +0.007 C 
ATOM      8  C   UNL     1      -8.576   1.063   7.141  0.00  0.00    +0.012 C 
ATOM      9  C   UNL     1      -9.579  -0.107   7.094  0.00  0.00    +0.001 C 
ATOM     10  C   UNL     1      -9.445  -0.672   5.660  0.00  0.00    +0.001 C 
ATOM     11  C   UNL     1      -9.194   0.577   4.791  0.00  0.00    +0.012 C 
ATOM     12  C   UNL     1      -9.043   2.939   5.612  0.00  0.00    +0.047 C 
ATOM     13  C   UNL     1      -8.709   3.643   4.332  0.00  0.00    -0.037 A 
ATOM     14  C   UNL     1      -7.455   3.461   3.755  0.00  0.00    +0.004 A 
ATOM     15  C   UNL     1      -7.118   4.125   2.581  0.00  0.00    +0.010 A 
ATOM     16  C   UNL     1      -8.040   4.965   1.990  0.00  0.00    +0.001 A 
ATOM     17  C   UNL     1      -9.289   5.140   2.559  0.00  0.00    +0.000 A 
ATOM     18  C   UNL     1      -9.627   4.480   3.728  0.00  0.00    +0.004 A 
ENDROOT
BRANCH   5  19
ATOM     19  O   UNL     1      -6.403  -0.437   6.498  0.00  0.00    -0.492 OA
ATOM     20  H   UNL     1      -6.541  -1.237   5.972  0.00  0.00    +0.294 HD
ENDBRANCH   5  19
BRANCH   1  21
ATOM     21  C   UNL     1      -2.870   1.952   4.425  0.00  0.00    -0.001 C 
BRANCH  21  34
ATOM     22  C   UNL     1      -3.745   2.164  -2.735  0.00  0.00    +0.041 C 
ATOM     23  C   UNL     1      -3.057   1.193  -1.750  0.00  0.00    +0.064 C 
ATOM     24  C   UNL     1      -3.664   1.415  -0.374  0.00  0.00    +0.039 C 
ATOM     25  C   UNL     1      -2.800   0.944   0.790  0.00  0.00    -0.039 C 
ATOM     26  C   UNL     1      -2.919  -0.569   0.970  0.00  0.00    +0.003 C 
ATOM     27  C   UNL     1      -2.161  -1.013   2.223  0.00  0.00    -0.018 C 
ATOM     28  C   UNL     1      -2.685  -0.252   3.442  0.00  0.00    -0.078 C 
ATOM     29  C   UNL     1      -3.312   1.634   2.066  0.00  0.00    -0.071 C 
ATOM     30  C   UNL     1      -1.338   1.336   0.584  0.00  0.00    +0.033 C 
ATOM     31  C   UNL     1      -0.870   0.834  -0.784  0.00  0.00    +0.161 C 
ATOM     32  O   UNL     1      -1.662   1.464  -1.787  0.00  0.00    -0.374 OA
ATOM     33  C   UNL     1      -3.337  -0.230  -2.242  0.00  0.00    +0.041 C 
ATOM     34  N   UNL     1      -2.493   1.195   3.212  0.00  0.00    +0.385 N 
ATOM     35  H   UNL     1      -1.504   1.371   3.002  0.00  0.00    -0.081 HD
ENDBRANCH  21  34
ENDBRANCH   1  21
TORSDOF 3
