REMARK  Name = ZINC09848907
REMARK  7 active torsions:
REMARK  status: ('A' for Active; 'I' for Inactive)
REMARK    1  A    between atoms: C_1  and  C_2
REMARK    2  A    between atoms: C_2  and  C_4
REMARK    3  A    between atoms: C_2  and  O_15
REMARK    4  A    between atoms: N_6  and  C_7
REMARK    5  A    between atoms: O_15  and  C_16
REMARK    6  A    between atoms: C_16  and  C_18
REMARK    7  A    between atoms: C_22  and  N_24
REMARK                            x       y       z     vdW  Elec       q    Type
REMARK                         _______ _______ _______ _____ _____    ______ ____
ROOT
ATOM      1  C   UNL     1       5.389   4.429   1.431  0.00  0.00    +0.062 C 
ATOM      2  C   UNL     1       4.923   4.189  -0.006  0.00  0.00    +0.259 C 
ENDROOT
BRANCH   2   3
ATOM      3  C   UNL     1       4.793   5.511  -0.719  0.00  0.00    +0.258 C 
ATOM      4  O   UNL     1       3.704   5.894  -1.091  0.00  0.00    -0.271 OA
ATOM      5  N   UNL     1       5.886   6.266  -0.943  0.00  0.00    -0.281 N 
ATOM      6  H   UNL     1       6.747   5.992  -0.589  0.00  0.00    +0.155 HD
BRANCH   5   7
ATOM      7  C   UNL     1       5.781   7.448  -1.686  0.00  0.00    +0.052 A 
ATOM      8  C   UNL     1       4.635   8.227  -1.595  0.00  0.00    +0.026 A 
ATOM      9  C   UNL     1       4.533   9.393  -2.329  0.00  0.00    +0.022 A 
ATOM     10  C   UNL     1       5.571   9.785  -3.156  0.00  0.00    +0.042 A 
ATOM     11  C   UNL     1       6.714   9.011  -3.250  0.00  0.00    +0.041 A 
ATOM     12  C   UNL     1       6.824   7.847  -2.512  0.00  0.00    +0.064 A 
ATOM     13 CL   UNL     1       8.262   6.880  -2.624  0.00  0.00    -0.082 Cl
ATOM     14 CL   UNL     1       5.439  11.250  -4.077  0.00  0.00    -0.083 Cl
ENDBRANCH   5   7
ENDBRANCH   2   3
BRANCH   2  15
ATOM     15  O   UNL     1       3.636   3.518   0.007  0.00  0.00    -0.449 OA
BRANCH  15  16
ATOM     16  C   UNL     1       3.649   2.171   0.010  0.00  0.00    +0.340 C 
ATOM     17  O   UNL     1       4.707   1.573   0.002  0.00  0.00    -0.245 OA
BRANCH  16  18
ATOM     18  C   UNL     1       2.378   1.420   0.024  0.00  0.00    +0.061 A 
ATOM     19  C   UNL     1       1.160   2.104   0.033  0.00  0.00    +0.016 A 
ATOM     20  C   UNL     1      -0.024   1.397   0.045  0.00  0.00    +0.018 A 
ATOM     21  C   UNL     1      -0.007   0.012   0.048  0.00  0.00    +0.048 A 
ATOM     22  C   UNL     1       1.197  -0.672   0.039  0.00  0.00    +0.141 A 
ATOM     23  C   UNL     1       2.388   0.024   0.027  0.00  0.00    +0.048 A 
ATOM     24 BR   UNL     1      -1.636  -0.949   0.065  0.00  0.00    -0.048 Br
BRANCH  22  25
ATOM     25  N   UNL     1       1.206  -2.152   0.043  0.00  0.00    +0.058 N 
ATOM     26  O   UNL     1       2.264  -2.755   0.034  0.00  0.00    -0.126 OA
ATOM     27  O   UNL     1       0.154  -2.767   0.054  0.00  0.00    -0.126 OA
ENDBRANCH  22  25
ENDBRANCH  16  18
ENDBRANCH  15  16
ENDBRANCH   2  15
TORSDOF 6
