REMARK  Name = ZINC04113186
REMARK  7 active torsions:
REMARK  status: ('A' for Active; 'I' for Inactive)
REMARK    1  A    between atoms: C_1  and  C_2
REMARK    2  A    between atoms: C_5  and  C_8
REMARK    3  A    between atoms: C_10  and  C_13
REMARK    4  A    between atoms: C_13  and  S_14
REMARK    5  A    between atoms: S_14  and  C_15
REMARK    6  A    between atoms: C_18  and  C_24
REMARK    7  A    between atoms: C_19  and  C_23
REMARK                            x       y       z     vdW  Elec       q    Type
REMARK                         _______ _______ _______ _____ _____    ______ ____
ROOT
ATOM      1  C   UNL     1       0.058  -4.251  -0.021  0.00  0.00    +0.258 A 
ATOM      2  N   UNL     1       0.068  -5.029   1.038  0.00  0.00    -0.191 NA
ATOM      3  C   UNL     1       0.085  -6.310   0.662  0.00  0.00    +0.182 A 
ATOM      4  N   UNL     1       0.086  -6.373  -0.639  0.00  0.00    -0.060 NA
ATOM      5  O   UNL     1       0.062  -5.035  -1.113  0.00  0.00    -0.333 OA
ENDROOT
BRANCH   1  10
ATOM      6  C   UNL     1      -0.018   1.503   0.010  0.00  0.00    +0.044 C 
ATOM      7  C   UNL     1       0.002  -0.004   0.002  0.00  0.00    -0.050 A 
ATOM      8  C   UNL     1       0.006  -0.686  -1.202  0.00  0.00    +0.004 A 
ATOM      9  C   UNL     1       0.024  -2.066  -1.216  0.00  0.00    +0.013 A 
ATOM     10  C   UNL     1       0.039  -2.773  -0.013  0.00  0.00    +0.039 A 
ATOM     11  C   UNL     1       0.036  -2.079   1.198  0.00  0.00    +0.013 A 
ATOM     12  C   UNL     1       0.023  -0.699   1.198  0.00  0.00    +0.004 A 
ENDBRANCH   1  10
BRANCH   3  13
ATOM     13  C   UNL     1       0.100  -7.494   1.595  0.00  0.00    +0.157 C 
BRANCH  13  14
ATOM     14  S   UNL     1      -1.604  -7.991   1.969  0.00  0.00    -0.080 S 
BRANCH  14  15
ATOM     15  C   UNL     1      -1.418  -9.366   3.054  0.00  0.00    +0.170 A 
ATOM     16  N   UNL     1      -0.207  -9.768   3.390  0.00  0.00    -0.228 NA
ATOM     17  H   UNL     1      -3.410  -9.683   3.284  0.00  0.00    +0.171 HD
ATOM     18  C   UNL     1      -0.023 -10.802   4.207  0.00  0.00    +0.049 A 
ATOM     19  C   UNL     1      -1.097 -11.473   4.717  0.00  0.00    +0.035 A 
ATOM     20  C   UNL     1      -2.391 -11.051   4.365  0.00  0.00    +0.255 A 
ATOM     21  O   UNL     1      -3.373 -11.627   4.803  0.00  0.00    -0.267 OA
ATOM     22  N   UNL     1      -2.526  -9.993   3.537  0.00  0.00    -0.302 N 
ATOM     23  C   UNL     1      -0.899 -12.645   5.643  0.00  0.00    +0.051 C 
ATOM     24  C   UNL     1       1.375 -11.235   4.570  0.00  0.00    +0.066 C 
ENDBRANCH  14  15
ENDBRANCH  13  14
ENDBRANCH   3  13
TORSDOF 4
