REMARK  Name = ZINC45631520
REMARK  7 active torsions:
REMARK  status: ('A' for Active; 'I' for Inactive)
REMARK    1  A    between atoms: C_1  and  C_2
REMARK    2  A    between atoms: C_3  and  N_14
REMARK    3  A    between atoms: C_4  and  C_13
REMARK    4  A    between atoms: N_5  and  C_7
REMARK    5  A    between atoms: C_15  and  C_17
REMARK    6  A    between atoms: C_17  and  N_18
REMARK    7  A    between atoms: C_25  and  N_27
REMARK                            x       y       z     vdW  Elec       q    Type
REMARK                         _______ _______ _______ _____ _____    ______ ____
ROOT
ATOM      1  N   UNL     1      -0.015  -0.280  -2.450  0.00  0.00    -0.281 N 
ATOM      2  C   UNL     1       0.603   0.882  -2.741  0.00  0.00    +0.235 C 
ATOM      3  O   UNL     1       1.249   1.456  -1.889  0.00  0.00    -0.274 OA
ATOM      4  H   UNL     1      -0.494  -0.761  -3.142  0.00  0.00    +0.155 HD
ENDROOT
BRANCH   1   7
ATOM      5  C   UNL     1      -1.059   1.215   0.076  0.00  0.00    +0.069 C 
ATOM      6  C   UNL     1      -0.425  -0.151   0.018  0.00  0.00    +0.082 A 
ATOM      7  C   UNL     1       0.035  -0.794  -1.141  0.00  0.00    +0.078 A 
ATOM      8  C   UNL     1       0.535  -2.002  -0.775  0.00  0.00    +0.063 A 
ATOM      9  N   UNL     1       0.394  -2.114   0.573  0.00  0.00    -0.235 N 
ATOM     10  N   UNL     1      -0.205  -0.937   1.041  0.00  0.00    -0.170 NA
ATOM     11  C   UNL     1       1.137  -3.033  -1.696  0.00  0.00    +0.068 C 
BRANCH   9  12
ATOM     12  C   UNL     1       0.783  -3.209   1.356  0.00  0.00    +0.066 A 
ATOM     13  C   UNL     1       2.021  -3.804   1.154  0.00  0.00    +0.028 A 
ATOM     14  C   UNL     1       2.402  -4.883   1.927  0.00  0.00    +0.002 A 
ATOM     15  C   UNL     1       1.551  -5.372   2.902  0.00  0.00    +0.000 A 
ATOM     16  C   UNL     1       0.317  -4.782   3.105  0.00  0.00    +0.002 A 
ATOM     17  C   UNL     1      -0.067  -3.698   2.339  0.00  0.00    +0.028 A 
ENDBRANCH   9  12
ENDBRANCH   1   7
BRANCH   2  18
ATOM     18  C   UNL     1       0.493   1.469  -4.124  0.00  0.00    +0.201 C 
BRANCH  18  19
ATOM     19  N   UNL     1       1.247   2.723  -4.185  0.00  0.00    -0.321 N 
ATOM     20  C   UNL     1       0.700   4.048  -3.878  0.00  0.00    +0.110 C 
ATOM     21  C   UNL     1       1.869   5.024  -4.085  0.00  0.00    +0.056 C 
ATOM     22  C   UNL     1       3.027   4.147  -4.507  0.00  0.00    -0.023 A 
ATOM     23  C   UNL     1       2.594   2.830  -4.537  0.00  0.00    +0.034 A 
ATOM     24  C   UNL     1       3.497   1.828  -4.896  0.00  0.00    +0.025 A 
ATOM     25  C   UNL     1       4.800   2.148  -5.212  0.00  0.00    +0.034 A 
ATOM     26  C   UNL     1       5.223   3.463  -5.175  0.00  0.00    +0.127 A 
ATOM     27  C   UNL     1       4.332   4.463  -4.829  0.00  0.00    +0.038 A 
BRANCH  26  28
ATOM     28  N   UNL     1       6.623   3.803  -5.515  0.00  0.00    +0.056 N 
ATOM     29  O   UNL     1       7.399   2.929  -5.824  0.00  0.00    -0.126 OA
ATOM     30  O   UNL     1       6.991   4.954  -5.482  0.00  0.00    -0.126 OA
ENDBRANCH  26  28
ENDBRANCH  18  19
ENDBRANCH   2  18
TORSDOF 5
