REMARK  Name = ZINC09083590
REMARK  12 active torsions:
REMARK  status: ('A' for Active; 'I' for Inactive)
REMARK    1  A    between atoms: C_1  and  C_2
REMARK    2  A    between atoms: C_2  and  C_4
REMARK    3  A    between atoms: C_2  and  O_33
REMARK    4  A    between atoms: C_4  and  C_6
REMARK    5  A    between atoms: C_4  and  N_21
REMARK    6  A    between atoms: C_6  and  O_8
REMARK    7  A    between atoms: O_8  and  C_9
REMARK    8  A    between atoms: C_9  and  C_11
REMARK    9  A    between atoms: C_9  and  C_12
REMARK   10  A    between atoms: N_14  and  C_15
REMARK   11  A    between atoms: N_21  and  S_22
REMARK   12  A    between atoms: S_22  and  C_25
REMARK                            x       y       z     vdW  Elec       q    Type
REMARK                         _______ _______ _______ _____ _____    ______ ____
ROOT
ATOM      1  C   UNL     1      -1.636  -4.589  -0.449  0.00  0.00    +0.213 C 
ENDROOT
BRANCH   1   3
ATOM      2  C   UNL     1      -1.004  -6.751   0.631  0.00  0.00    +0.040 C 
ATOM      3  C   UNL     1      -1.296  -5.270   0.879  0.00  0.00    +0.141 C 
BRANCH   3   4
ATOM      4  O   UNL     1      -0.146  -4.647   1.454  0.00  0.00    -0.390 OA
ATOM      5  H   UNL     1      -0.260  -3.704   1.638  0.00  0.00    +0.210 HD
ENDBRANCH   3   4
ENDBRANCH   1   3
BRANCH   1   6
ATOM      6  C   UNL     1      -1.867  -3.118  -0.214  0.00  0.00    +0.329 C 
ATOM      7  O   UNL     1      -2.934  -2.623  -0.488  0.00  0.00    -0.249 OA
BRANCH   6   8
ATOM      8  O   UNL     1      -0.886  -2.358   0.299  0.00  0.00    -0.451 OA
BRANCH   8   9
ATOM      9  C   UNL     1      -1.179  -0.950   0.498  0.00  0.00    +0.259 C 
ATOM     10  C   UNL     1      -1.757  -0.743   1.900  0.00  0.00    +0.062 C 
BRANCH   9  11
ATOM     11  C   UNL     1       0.088  -0.148   0.354  0.00  0.00    +0.258 C 
ATOM     12  O   UNL     1       1.136  -0.708   0.107  0.00  0.00    -0.271 OA
ATOM     13  N   UNL     1       0.058   1.192   0.498  0.00  0.00    -0.282 N 
ATOM     14  H   UNL     1      -0.789   1.648   0.618  0.00  0.00    +0.155 HD
BRANCH  13  15
ATOM     15  C   UNL     1       1.249   1.925   0.469  0.00  0.00    +0.033 A 
ATOM     16  C   UNL     1       1.394   3.050   1.272  0.00  0.00    +0.023 A 
ATOM     17  C   UNL     1       2.573   3.768   1.246  0.00  0.00    +0.002 A 
ATOM     18  C   UNL     1       3.605   3.376   0.413  0.00  0.00    +0.000 A 
ATOM     19  C   UNL     1       3.462   2.260  -0.392  0.00  0.00    +0.002 A 
ATOM     20  C   UNL     1       2.288   1.534  -0.365  0.00  0.00    +0.023 A 
ENDBRANCH  13  15
ENDBRANCH   9  11
ENDBRANCH   8   9
ENDBRANCH   6   8
ENDBRANCH   1   6
BRANCH   1  21
ATOM     21  N   UNL     1      -2.848  -5.190  -1.010  0.00  0.00    -0.174 NA
ATOM     22  H   UNL     1      -3.565  -5.474  -0.423  0.00  0.00    +0.149 HD
BRANCH  21  23
ATOM     23  S   UNL     1      -2.993  -5.384  -2.648  0.00  0.00    +0.059 S 
ATOM     24  O   UNL     1      -4.239  -6.030  -2.872  0.00  0.00    -0.153 OA
ATOM     25  O   UNL     1      -2.669  -4.131  -3.236  0.00  0.00    -0.153 OA
BRANCH  23  26
ATOM     26  C   UNL     1      -1.741  -6.516  -3.152  0.00  0.00    +0.107 A 
ATOM     27  C   UNL     1      -0.468  -6.057  -3.436  0.00  0.00    +0.030 A 
ATOM     28  C   UNL     1       0.517  -6.945  -3.825  0.00  0.00    +0.023 A 
ATOM     29  C   UNL     1       0.226  -8.293  -3.943  0.00  0.00    +0.059 A 
ATOM     30  C   UNL     1      -1.051  -8.751  -3.665  0.00  0.00    +0.061 A 
ATOM     31  C   UNL     1      -2.034  -7.862  -3.270  0.00  0.00    +0.050 A 
ATOM     32 CL   UNL     1      -1.417 -10.442  -3.812  0.00  0.00    -0.082 Cl
ATOM     33 CL   UNL     1       1.460  -9.408  -4.439  0.00  0.00    -0.082 Cl
ENDBRANCH  23  26
ENDBRANCH  21  23
ENDBRANCH   1  21
TORSDOF 10
