REMARK  Name = ZINC26084204
REMARK  7 active torsions:
REMARK  status: ('A' for Active; 'I' for Inactive)
REMARK    1  A    between atoms: C_1  and  C_2
REMARK    2  A    between atoms: C_2  and  C_3
REMARK    3  A    between atoms: C_3  and  N_4
REMARK    4  A    between atoms: C_12  and  S_13
REMARK    5  A    between atoms: S_13  and  C_14
REMARK    6  A    between atoms: C_14  and  C_15
REMARK    7  A    between atoms: N_17  and  N_18
REMARK                            x       y       z     vdW  Elec       q    Type
REMARK                         _______ _______ _______ _____ _____    ______ ____
ROOT
ATOM      1  C   UNL     1       5.132   8.012  -0.004  0.00  0.00    +0.240 C 
ATOM      2  O   UNL     1       4.715   9.151   0.005  0.00  0.00    -0.273 OA
ATOM      3  N   UNL     1       6.460   7.781  -0.017  0.00  0.00    -0.223 N 
ATOM      4  H   UNL     1       6.838   6.748  -0.026  0.00  0.00    +0.174 HD
ENDROOT
BRANCH   3   5
ATOM      5  N   UNL     1       7.359   8.856  -0.020  0.00  0.00    -0.137 N 
ATOM      6  C   UNL     1       8.076   9.248   1.053  0.00  0.00    +0.263 C 
ATOM      7  O   UNL     1       8.067   8.755   2.161  0.00  0.00    -0.271 OA
ATOM      8  C   UNL     1       8.894  10.429   0.583  0.00  0.00    +0.114 C 
ATOM      9  C   UNL     1      10.383  10.126   0.705  0.00  0.00    +0.035 C 
ATOM     10  C   UNL     1      11.193  11.322   0.199  0.00  0.00    +0.003 C 
ATOM     11  C   UNL     1      10.838  12.562   1.022  0.00  0.00    +0.000 C 
ATOM     12  C   UNL     1       9.347  12.867   0.870  0.00  0.00    +0.003 C 
ATOM     13  C   UNL     1       8.529  11.677   1.379  0.00  0.00    +0.035 C 
ATOM     14  N   UNL     1       8.514  10.587  -0.826  0.00  0.00    -0.284 N 
ATOM     15  C   UNL     1       7.616   9.619  -1.090  0.00  0.00    +0.326 C 
ATOM     16  O   UNL     1       7.095   9.457  -2.176  0.00  0.00    -0.251 OA
ATOM     17  H   UNL     1       8.961  11.391  -1.429  0.00  0.00    +0.151 HD
ENDBRANCH   3   5
BRANCH   1  18
ATOM     18  C   UNL     1       4.166   6.856  -0.001  0.00  0.00    +0.174 C 
BRANCH  18  19
ATOM     19  S   UNL     1       2.470   7.487   0.017  0.00  0.00    -0.078 S 
BRANCH  19  28
ATOM     20  N   UNL     1       0.216   5.857   0.030  0.00  0.00    -0.319 N 
ATOM     21  C   UNL     1      -0.085   4.504   0.026  0.00  0.00    +0.070 A 
ATOM     22  C   UNL     1      -1.270   3.784   0.034  0.00  0.00    +0.029 A 
ATOM     23  C   UNL     1      -1.236   2.404   0.021  0.00  0.00    +0.022 A 
ATOM     24  C   UNL     1      -0.021   1.732   0.012  0.00  0.00    +0.043 A 
ATOM     25  C   UNL     1       1.165   2.432   0.004  0.00  0.00    +0.050 A 
ATOM     26  C   UNL     1       1.146   3.829   0.011  0.00  0.00    +0.092 A 
ATOM     27  N   UNL     1       2.121   4.775   0.007  0.00  0.00    -0.222 NA
ATOM     28  C   UNL     1       1.578   5.968   0.018  0.00  0.00    +0.170 A 
ATOM     29 CL   UNL     1       0.002  -0.004   0.002  0.00  0.00    -0.083 Cl
BRANCH  20  30
ATOM     30  C   UNL     1      -0.746   6.961   0.044  0.00  0.00    +0.124 C 
BRANCH  30  32
ATOM     31  C   UNL     1      -2.099   8.507  -1.379  0.00  0.00    +0.005 C 
ATOM     32  C   UNL     1      -1.094   7.353  -1.393  0.00  0.00    +0.018 C 
ENDBRANCH  30  32
ENDBRANCH  20  30
ENDBRANCH  19  28
ENDBRANCH  18  19
ENDBRANCH   1  18
TORSDOF 6
