REMARK  Name = ZINC49303014
REMARK  8 active torsions:
REMARK  status: ('A' for Active; 'I' for Inactive)
REMARK    1  A    between atoms: C_1  and  C_2
REMARK    2  A    between atoms: C_5  and  N_9
REMARK    3  A    between atoms: C_10  and  C_12
REMARK    4  A    between atoms: N_14  and  C_15
REMARK    5  A    between atoms: C_15  and  C_17
REMARK    6  A    between atoms: C_15  and  C_18
REMARK    7  A    between atoms: C_22  and  S_24
REMARK    8  A    between atoms: S_24  and  N_27
REMARK                            x       y       z     vdW  Elec       q    Type
REMARK                         _______ _______ _______ _____ _____    ______ ____
ROOT
ATOM      1  C   UNL     1      -0.133  -6.328  -1.191  0.00  0.00    +0.300 C 
ATOM      2  O   UNL     1      -0.119  -6.938  -0.141  0.00  0.00    -0.265 OA
ATOM      3  N   UNL     1      -0.232  -6.996  -2.357  0.00  0.00    -0.301 N 
ATOM      4  H   UNL     1      -0.243  -6.509  -3.196  0.00  0.00    +0.150 HD
ENDROOT
BRANCH   1   6
ATOM      5  N   UNL     1       0.059  -4.169  -0.023  0.00  0.00    -0.276 N 
ATOM      6  C   UNL     1      -0.040  -4.837  -1.190  0.00  0.00    +0.303 C 
ATOM      7  O   UNL     1      -0.054  -4.228  -2.239  0.00  0.00    -0.265 OA
ATOM      8  H   UNL     1       0.150  -4.658   0.809  0.00  0.00    +0.155 HD
BRANCH   5  13
ATOM      9  C   UNL     1      -0.064   1.502   0.016  0.00  0.00    +0.044 C 
ATOM     10  C   UNL     1      -0.031  -0.005   0.006  0.00  0.00    -0.049 A 
ATOM     11  C   UNL     1      -0.622  -0.701  -1.033  0.00  0.00    +0.005 A 
ATOM     12  C   UNL     1      -0.594  -2.081  -1.046  0.00  0.00    +0.025 A 
ATOM     13  C   UNL     1       0.029  -2.772  -0.014  0.00  0.00    +0.052 A 
ATOM     14  C   UNL     1       0.623  -2.069   1.029  0.00  0.00    +0.062 A 
ATOM     15  C   UNL     1       0.595  -0.688   1.032  0.00  0.00    +0.025 A 
ATOM     16 CL   UNL     1       1.403  -2.927   2.321  0.00  0.00    -0.082 Cl
ENDBRANCH   5  13
ENDBRANCH   1   6
BRANCH   3  17
ATOM     17  C   UNL     1      -0.323  -8.458  -2.358  0.00  0.00    +0.101 C 
ATOM     18  C   UNL     1      -1.781  -8.879  -2.163  0.00  0.00    +0.033 C 
BRANCH  17  19
ATOM     19  C   UNL     1       0.181  -8.992  -3.674  0.00  0.00    -0.026 A 
ATOM     20  C   UNL     1      -0.125  -8.333  -4.850  0.00  0.00    +0.005 A 
ATOM     21  C   UNL     1       0.338  -8.822  -6.057  0.00  0.00    +0.002 A 
ATOM     22  C   UNL     1       1.107  -9.971  -6.088  0.00  0.00    +0.028 A 
ATOM     23  C   UNL     1       1.414 -10.629  -4.913  0.00  0.00    +0.105 A 
ATOM     24  C   UNL     1       0.955 -10.137  -3.705  0.00  0.00    +0.034 A 
BRANCH  23  25
ATOM     25  S   UNL     1       2.394 -12.093  -4.952  0.00  0.00    +0.056 S 
ATOM     26  O   UNL     1       2.083 -12.822  -3.773  0.00  0.00    -0.153 OA
ATOM     27  O   UNL     1       2.244 -12.647  -6.252  0.00  0.00    -0.153 OA
BRANCH  25  28
ATOM     28  N   UNL     1       3.977 -11.626  -4.816  0.00  0.00    -0.204 NA
ATOM     29  H   UNL     1       4.200 -10.685  -4.735  0.00  0.00    +0.144 HD
ATOM     30  H   UNL     1       4.681 -12.293  -4.818  0.00  0.00    +0.144 HD
ENDBRANCH  25  28
ENDBRANCH  23  25
ENDBRANCH  17  19
ENDBRANCH   3  17
TORSDOF 6
