REMARK  Name = ZINC43985832
REMARK  5 active torsions:
REMARK  status: ('A' for Active; 'I' for Inactive)
REMARK    1  A    between atoms: C_1  and  C_2
REMARK    2  A    between atoms: C_5  and  C_8
REMARK    3  A    between atoms: C_8  and  O_9
REMARK    4  A    between atoms: O_9  and  N_10
REMARK    5  A    between atoms: N_12  and  C_13
REMARK                            x       y       z     vdW  Elec       q    Type
REMARK                         _______ _______ _______ _____ _____    ______ ____
ROOT
ATOM      1  C   UNL     1       4.113  -8.578  -0.067  0.00  0.00    +0.351 C 
ATOM      2  O   UNL     1       4.902  -7.898   0.563  0.00  0.00    -0.248 OA
ATOM      3  N   UNL     1       4.237  -9.920  -0.075  0.00  0.00    -0.155 N 
ATOM      4  C   UNL     1       5.511 -10.666  -0.185  0.00  0.00    +0.150 C 
ATOM      5  C   UNL     1       5.870 -10.752  -1.646  0.00  0.00    +0.025 A 
ATOM      6  C   UNL     1       6.070  -9.546  -2.351  0.00  0.00    -0.009 A 
ATOM      7  C   UNL     1       5.931  -8.305  -1.705  0.00  0.00    +0.009 A 
ATOM      8  C   UNL     1       6.129  -7.156  -2.408  0.00  0.00    +0.001 A 
ATOM      9  C   UNL     1       6.466  -7.191  -3.760  0.00  0.00    +0.001 A 
ATOM     10  C   UNL     1       6.609  -8.374  -4.417  0.00  0.00    +0.008 A 
ATOM     11  C   UNL     1       6.412  -9.581  -3.723  0.00  0.00    -0.017 A 
ATOM     12  C   UNL     1       6.548 -10.823  -4.368  0.00  0.00    +0.012 A 
ATOM     13  C   UNL     1       6.346 -11.966  -3.664  0.00  0.00    +0.046 A 
ATOM     14  C   UNL     1       6.006 -11.935  -2.303  0.00  0.00    +0.126 A 
ATOM     15  O   UNL     1       5.813 -13.122  -1.666  0.00  0.00    -0.491 OA
ATOM     16  C   UNL     1       6.005 -13.134  -0.253  0.00  0.00    +0.237 C 
ATOM     17  C   UNL     1       5.154 -12.044   0.405  0.00  0.00    +0.082 C 
ATOM     18  C   UNL     1       3.679 -12.191  -0.032  0.00  0.00    +0.199 C 
ATOM     19  O   UNL     1       3.169 -10.846   0.027  0.00  0.00    -0.275 OA
ENDROOT
BRANCH   1  22
ATOM     20  N   UNL     1       1.998  -6.094  -1.440  0.00  0.00    -0.257 N 
ATOM     21  C   UNL     1       2.997  -6.684  -0.749  0.00  0.00    +0.210 C 
ATOM     22  N   UNL     1       3.117  -7.989  -0.757  0.00  0.00    -0.150 NA
ATOM     23  H   UNL     1       1.369  -6.636  -1.943  0.00  0.00    +0.195 HD
BRANCH  20  24
ATOM     24  O   UNL     1       1.868  -4.684  -1.432  0.00  0.00    -0.269 OA
BRANCH  24  25
ATOM     25  C   UNL     1       0.769  -4.197  -2.205  0.00  0.00    +0.228 C 
BRANCH  25  30
ATOM     26  C   UNL     1       0.603   1.571  -1.901  0.00  0.00    +0.044 C 
ATOM     27  C   UNL     1       0.646   0.067  -1.980  0.00  0.00    -0.050 A 
ATOM     28  C   UNL     1       1.375  -0.552  -2.979  0.00  0.00    +0.004 A 
ATOM     29  C   UNL     1       1.415  -1.932  -3.051  0.00  0.00    +0.006 A 
ATOM     30  C   UNL     1       0.726  -2.693  -2.125  0.00  0.00    -0.019 A 
ATOM     31  C   UNL     1      -0.002  -2.074  -1.126  0.00  0.00    +0.006 A 
ATOM     32  C   UNL     1      -0.038  -0.694  -1.051  0.00  0.00    +0.004 A 
ENDBRANCH  25  30
ENDBRANCH  24  25
ENDBRANCH  20  24
ENDBRANCH   1  22
TORSDOF 4
