REMARK  Name = ZINC08710110
REMARK  6 active torsions:
REMARK  status: ('A' for Active; 'I' for Inactive)
REMARK    1  A    between atoms: C_1  and  O_2
REMARK    2  A    between atoms: O_2  and  C_3
REMARK    3  A    between atoms: C_6  and  C_9
REMARK    4  A    between atoms: N_11  and  N_12
REMARK    5  A    between atoms: C_13  and  C_15
REMARK    6  A    between atoms: C_20  and  C_21
REMARK                            x       y       z     vdW  Elec       q    Type
REMARK                         _______ _______ _______ _____ _____    ______ ____
ROOT
ATOM      1  N   UNL     1       2.449  -4.215  -0.043  0.00  0.00    -0.230 N 
ATOM      2  C   UNL     1       3.627  -4.870  -0.058  0.00  0.00    +0.264 C 
ATOM      3  O   UNL     1       4.670  -4.244  -0.065  0.00  0.00    -0.269 OA
ATOM      4  H   UNL     1       1.617  -4.714  -0.037  0.00  0.00    +0.173 HD
ENDROOT
BRANCH   2   5
ATOM      5  C   UNL     1       3.651  -6.342  -0.065  0.00  0.00    +0.083 A 
ATOM      6  C   UNL     1       2.561  -7.187  -0.059  0.00  0.00    +0.118 A 
ATOM      7  N   UNL     1       3.017  -8.449  -0.071  0.00  0.00    -0.283 N 
ATOM      8  H   UNL     1       2.444  -9.268  -0.070  0.00  0.00    +0.188 HD
ATOM      9  N   UNL     1       4.414  -8.444  -0.084  0.00  0.00    -0.173 NA
ATOM     10  C   UNL     1       4.840  -7.201  -0.087  0.00  0.00    +0.105 A 
BRANCH  10  11
ATOM     11  C   UNL     1       6.253  -6.751  -0.105  0.00  0.00    +0.003 A 
ATOM     12  C   UNL     1       6.611  -5.598  -0.801  0.00  0.00    +0.011 A 
ATOM     13  C   UNL     1       7.926  -5.181  -0.811  0.00  0.00    +0.020 A 
ATOM     14  C   UNL     1       8.891  -5.913  -0.140  0.00  0.00    +0.041 A 
ATOM     15  C   UNL     1       8.542  -7.062   0.548  0.00  0.00    +0.020 A 
ATOM     16  C   UNL     1       7.228  -7.484   0.568  0.00  0.00    +0.011 A 
ATOM     17 CL   UNL     1      10.546  -5.388  -0.162  0.00  0.00    -0.084 Cl
ENDBRANCH  10  11
ENDBRANCH   2   5
BRANCH   1  20
ATOM     18  C   UNL     1       1.247  -2.160  -0.021  0.00  0.00    +0.260 C 
ATOM     19  O   UNL     1       0.204  -2.785  -0.014  0.00  0.00    -0.269 OA
ATOM     20  N   UNL     1       2.425  -2.814  -0.036  0.00  0.00    -0.230 N 
ATOM     21  H   UNL     1       3.257  -2.315  -0.041  0.00  0.00    +0.173 HD
BRANCH  18  25
ATOM     22  C   UNL     1       1.177   2.086   0.002  0.00  0.00    +0.120 A 
ATOM     23  C   UNL     1      -0.017   1.373   0.010  0.00  0.00    +0.046 A 
ATOM     24  C   UNL     1       0.002  -0.004   0.002  0.00  0.00    +0.016 A 
ATOM     25  C   UNL     1       1.223  -0.684  -0.013  0.00  0.00    +0.038 A 
ATOM     26  C   UNL     1       2.420   0.036  -0.021  0.00  0.00    +0.016 A 
ATOM     27  C   UNL     1       2.393   1.413  -0.013  0.00  0.00    +0.046 A 
BRANCH  22  29
ATOM     28  C   UNL     1       2.416   4.113   0.001  0.00  0.00    +0.277 C 
ATOM     29  O   UNL     1       1.154   3.443   0.009  0.00  0.00    -0.495 OA
ENDBRANCH  22  29
ENDBRANCH  18  25
ENDBRANCH   1  20
TORSDOF 5
