REMARK  Name = ZINC18071949
REMARK  14 active torsions:
REMARK  status: ('A' for Active; 'I' for Inactive)
REMARK    1  A    between atoms: C_1  and  C_2
REMARK    2  A    between atoms: C_2  and  O_3
REMARK    3  A    between atoms: O_3  and  C_4
REMARK    4  A    between atoms: C_7  and  O_10
REMARK    5  A    between atoms: O_10  and  C_11
REMARK    6  A    between atoms: C_11  and  C_13
REMARK    7  A    between atoms: C_11  and  C_14
REMARK    8  A    between atoms: N_16  and  N_17
REMARK    9  A    between atoms: C_18  and  C_20
REMARK   10  A    between atoms: C_23  and  S_26
REMARK   11  A    between atoms: S_26  and  N_29
REMARK   12  A    between atoms: N_29  and  C_30
REMARK   13  A    between atoms: C_30  and  C_31
REMARK   14  A    between atoms: C_30  and  C_32
REMARK                            x       y       z     vdW  Elec       q    Type
REMARK                         _______ _______ _______ _____ _____    ______ ____
ROOT
ATOM      1  N   UNL     1      -2.481   4.389   5.466  0.00  0.00    -0.230 N 
ATOM      2  C   UNL     1      -2.484   3.143   4.953  0.00  0.00    +0.260 C 
ATOM      3  O   UNL     1      -3.125   2.263   5.495  0.00  0.00    -0.269 OA
ATOM      4  H   UNL     1      -1.970   5.090   5.034  0.00  0.00    +0.173 HD
ENDROOT
BRANCH   2   5
ATOM      5  C   UNL     1      -1.708   2.845   3.730  0.00  0.00    +0.038 A 
ATOM      6  C   UNL     1      -1.708   1.556   3.196  0.00  0.00    +0.015 A 
ATOM      7  C   UNL     1      -0.982   1.285   2.055  0.00  0.00    +0.029 A 
ATOM      8  C   UNL     1      -0.255   2.288   1.440  0.00  0.00    +0.105 A 
ATOM      9  C   UNL     1      -0.245   3.567   1.967  0.00  0.00    +0.029 A 
ATOM     10  C   UNL     1      -0.972   3.853   3.105  0.00  0.00    +0.015 A 
BRANCH   8  11
ATOM     11  S   UNL     1       0.670   1.934  -0.018  0.00  0.00    +0.059 S 
ATOM     12  O   UNL     1       0.941   0.539   0.002  0.00  0.00    -0.153 OA
ATOM     13  O   UNL     1       1.701   2.909  -0.092  0.00  0.00    -0.153 OA
BRANCH  11  14
ATOM     14  N   UNL     1      -0.330   2.203  -1.310  0.00  0.00    -0.187 NA
ATOM     15  H   UNL     1      -0.594   1.465  -1.881  0.00  0.00    +0.148 HD
BRANCH  14  16
ATOM     16  C   UNL     1      -0.816   3.557  -1.590  0.00  0.00    +0.070 C 
ATOM     17  C   UNL     1       0.095   4.222  -2.623  0.00  0.00    +0.025 C 
ATOM     18  C   UNL     1      -2.242   3.482  -2.140  0.00  0.00    +0.025 C 
ENDBRANCH  14  16
ENDBRANCH  11  14
ENDBRANCH   8  11
ENDBRANCH   2   5
BRANCH   1  21
ATOM     19  C   UNL     1      -3.214   5.917   7.138  0.00  0.00    +0.270 C 
ATOM     20  O   UNL     1      -2.575   6.794   6.597  0.00  0.00    -0.270 OA
ATOM     21  N   UNL     1      -3.217   4.671   6.625  0.00  0.00    -0.231 N 
ATOM     22  H   UNL     1      -3.728   3.969   7.058  0.00  0.00    +0.173 HD
BRANCH  19  23
ATOM     23  C   UNL     1      -4.005   6.220   8.384  0.00  0.00    +0.257 C 
ATOM     24  C   UNL     1      -5.498   6.047   8.096  0.00  0.00    +0.062 C 
BRANCH  23  25
ATOM     25  O   UNL     1      -3.752   7.566   8.794  0.00  0.00    -0.480 OA
BRANCH  25  29
ATOM     26  C   UNL     1      -4.305   8.445  12.789  0.00  0.00    +0.121 A 
ATOM     27  C   UNL     1      -4.641   7.190  12.302  0.00  0.00    +0.049 A 
ATOM     28  C   UNL     1      -4.456   6.896  10.965  0.00  0.00    +0.049 A 
ATOM     29  C   UNL     1      -3.934   7.855  10.110  0.00  0.00    +0.122 A 
ATOM     30  C   UNL     1      -3.593   9.108  10.598  0.00  0.00    +0.049 A 
ATOM     31  C   UNL     1      -3.782   9.403  11.934  0.00  0.00    +0.049 A 
BRANCH  26  32
ATOM     32  O   UNL     1      -4.488   8.735  14.105  0.00  0.00    -0.492 OA
BRANCH  32  34
ATOM     33  C   UNL     1      -4.395  10.184  16.036  0.00  0.00    +0.048 C 
ATOM     34  C   UNL     1      -4.120  10.046  14.538  0.00  0.00    +0.225 C 
ENDBRANCH  32  34
ENDBRANCH  26  32
ENDBRANCH  25  29
ENDBRANCH  23  25
ENDBRANCH  19  23
ENDBRANCH   1  21
TORSDOF 10
