REMARK  Name = ZINC00779506
REMARK  6 active torsions:
REMARK  status: ('A' for Active; 'I' for Inactive)
REMARK    1  A    between atoms: C_1  and  C_2
REMARK    2  A    between atoms: C_2  and  C_27
REMARK    3  A    between atoms: C_10  and  N_14
REMARK    4  A    between atoms: N_14  and  C_15
REMARK    5  A    between atoms: C_15  and  C_16
REMARK    6  A    between atoms: C_16  and  N_53
REMARK                            x       y       z     vdW  Elec       q    Type
REMARK                         _______ _______ _______ _____ _____    ______ ____
ROOT
ATOM      1  C   UNL     1       2.443  -4.276  -0.187  0.00  0.00    +0.041 C 
ATOM      2  C   UNL     1       2.420  -2.769  -0.449  0.00  0.00    +0.070 C 
ATOM      3  C   UNL     1       1.071  -2.193  -0.014  0.00  0.00    +0.090 C 
ATOM      4  C   UNL     1       1.136  -0.686  -0.014  0.00  0.00    +0.051 A 
ATOM      5  C   UNL     1       2.348  -0.020  -0.025  0.00  0.00    +0.000 A 
ATOM      6  C   UNL     1       2.377   1.361  -0.016  0.00  0.00    +0.020 A 
ATOM      7  C   UNL     1       1.162   2.079   0.002  0.00  0.00    +0.034 A 
ATOM      8  C   UNL     1       0.977   3.542   0.014  0.00  0.00    +0.092 A 
ATOM      9  C   UNL     1      -0.349   3.992   0.029  0.00  0.00    +0.080 A 
ATOM     10  C   UNL     1      -0.642   5.348   0.041  0.00  0.00    +0.136 A 
ATOM     11  N   UNL     1       0.371   6.214   0.038  0.00  0.00    -0.220 NA
ATOM     12  C   UNL     1       1.616   5.774   0.024  0.00  0.00    +0.224 A 
ATOM     13  N   UNL     1       1.929   4.502   0.011  0.00  0.00    -0.234 NA
ATOM     14  S   UNL     1      -1.323   2.512   0.035  0.00  0.00    -0.064 S 
ATOM     15  C   UNL     1      -0.016   1.310   0.009  0.00  0.00    +0.111 A 
ATOM     16  N   UNL     1       0.002  -0.004   0.002  0.00  0.00    -0.244 NA
ATOM     17  C   UNL     1       3.656  -0.767  -0.051  0.00  0.00    +0.197 C 
ATOM     18  O   UNL     1       3.452  -2.132   0.312  0.00  0.00    -0.369 OA
ATOM     19  C   UNL     1       2.636  -2.502  -1.940  0.00  0.00    +0.041 C 
ENDROOT
BRANCH  10  20
ATOM     20  N   UNL     1      -1.955   5.792   0.056  0.00  0.00    -0.330 N 
ATOM     21  H   UNL     1      -2.684   5.151   0.059  0.00  0.00    +0.147 HD
BRANCH  20  22
ATOM     22  C   UNL     1      -2.243   7.228   0.069  0.00  0.00    +0.084 C 
BRANCH  22  23
ATOM     23  C   UNL     1      -3.758   7.445   0.085  0.00  0.00    -0.060 C 
BRANCH  23  29
ATOM     24  C   UNL     1      -3.599   9.501   1.355  0.00  0.00    -0.050 C 
ATOM     25  C   UNL     1      -3.864  11.008   1.301  0.00  0.00    +0.141 C 
ATOM     26  O   UNL     1      -5.254  11.234   1.052  0.00  0.00    -0.383 OA
ATOM     27  C   UNL     1      -5.724  10.648  -0.165  0.00  0.00    +0.141 C 
ATOM     28  C   UNL     1      -5.478   9.137  -0.126  0.00  0.00    -0.050 C 
ATOM     29  N   UNL     1      -4.033   8.898   0.077  0.00  0.00    +0.384 N 
ATOM     30  H   UNL     1      -3.511   9.333  -0.692  0.00  0.00    -0.082 HD
ENDBRANCH  23  29
ENDBRANCH  22  23
ENDBRANCH  20  22
ENDBRANCH  10  20
TORSDOF 4
