REMARK  Name = ZINC08186256
REMARK  12 active torsions:
REMARK  status: ('A' for Active; 'I' for Inactive)
REMARK    1  A    between atoms: C_1  and  C_2
REMARK    2  A    between atoms: C_2  and  C_4
REMARK    3  A    between atoms: C_2  and  N_10
REMARK    4  A    between atoms: C_11  and  C_13
REMARK    5  A    between atoms: C_13  and  C_15
REMARK    6  A    between atoms: C_13  and  N_16
REMARK    7  A    between atoms: N_16  and  C_17
REMARK    8  A    between atoms: C_19  and  S_26
REMARK    9  A    between atoms: C_22  and  N_23
REMARK   10  A    between atoms: N_23  and  C_24
REMARK   11  A    between atoms: N_23  and  C_25
REMARK   12  A    between atoms: S_26  and  N_29
REMARK                            x       y       z     vdW  Elec       q    Type
REMARK                         _______ _______ _______ _____ _____    ______ ____
ROOT
ATOM      1  N   UNL     1       3.913   2.762  -2.559  0.00  0.00    -0.332 N 
ATOM      2  H   UNL     1       3.283   2.847  -3.292  0.00  0.00    +0.147 HD
ENDROOT
BRANCH   1   3
ATOM      3  C   UNL     1       5.287   2.700  -2.821  0.00  0.00    +0.051 A 
ATOM      4  C   UNL     1       6.189   2.578  -1.775  0.00  0.00    +0.053 A 
ATOM      5  C   UNL     1       7.545   2.517  -2.035  0.00  0.00    +0.107 A 
ATOM      6  C   UNL     1       8.007   2.577  -3.337  0.00  0.00    +0.030 A 
ATOM      7  C   UNL     1       7.114   2.698  -4.386  0.00  0.00    +0.027 A 
ATOM      8  C   UNL     1       5.752   2.754  -4.135  0.00  0.00    +0.050 A 
BRANCH   8   9
ATOM      9  N   UNL     1       4.846   2.871  -5.196  0.00  0.00    -0.335 N 
ATOM     10  C   UNL     1       5.094   4.097  -5.967  0.00  0.00    +0.129 C 
ATOM     11  C   UNL     1       4.894   1.685  -6.062  0.00  0.00    +0.129 C 
ENDBRANCH   8   9
BRANCH   5  12
ATOM     12  S   UNL     1       8.689   2.362  -0.704  0.00  0.00    +0.056 S 
ATOM     13  O   UNL     1       9.929   2.874  -1.172  0.00  0.00    -0.153 OA
ATOM     14  O   UNL     1       8.040   2.875   0.451  0.00  0.00    -0.153 OA
BRANCH  12  15
ATOM     15  N   UNL     1       8.916   0.743  -0.439  0.00  0.00    -0.204 NA
ATOM     16  H   UNL     1       8.447   0.092  -0.985  0.00  0.00    +0.144 HD
ATOM     17  H   UNL     1       9.517   0.445   0.261  0.00  0.00    +0.144 HD
ENDBRANCH  12  15
ENDBRANCH   5  12
ENDBRANCH   1   3
BRANCH   1  18
ATOM     18  C   UNL     1       3.426   2.699  -1.179  0.00  0.00    +0.154 C 
ATOM     19  C   UNL     1       3.458   4.098  -0.562  0.00  0.00    +0.038 C 
BRANCH  18  21
ATOM     20  N   UNL     1       1.356   2.033   0.000  0.00  0.00    -0.307 N 
ATOM     21  C   UNL     1       2.012   2.177  -1.168  0.00  0.00    +0.233 C 
ATOM     22  O   UNL     1       1.465   1.887  -2.211  0.00  0.00    -0.274 OA
ATOM     23  H   UNL     1       1.793   2.265   0.834  0.00  0.00    +0.149 HD
BRANCH  20  25
ATOM     24  C   UNL     1       0.002  -0.004   0.002  0.00  0.00    +0.033 C 
ATOM     25  C   UNL     1      -0.019   1.526   0.010  0.00  0.00    +0.100 C 
BRANCH  25  26
ATOM     26  C   UNL     1      -0.724   2.012   1.250  0.00  0.00    -0.027 A 
ATOM     27  C   UNL     1      -0.054   2.043   2.459  0.00  0.00    +0.005 A 
ATOM     28  C   UNL     1      -0.700   2.493   3.596  0.00  0.00    +0.000 A 
ATOM     29  C   UNL     1      -2.018   2.903   3.525  0.00  0.00    +0.000 A 
ATOM     30  C   UNL     1      -2.690   2.866   2.317  0.00  0.00    +0.000 A 
ATOM     31  C   UNL     1      -2.043   2.421   1.180  0.00  0.00    +0.005 A 
ENDBRANCH  25  26
ENDBRANCH  20  25
ENDBRANCH  18  21
ENDBRANCH   1  18
TORSDOF 8
