REMARK  Name = ZINC59850754
REMARK  7 active torsions:
REMARK  status: ('A' for Active; 'I' for Inactive)
REMARK    1  A    between atoms: C_1  and  C_2
REMARK    2  A    between atoms: C_2  and  N_3
REMARK    3  A    between atoms: N_3  and  C_4
REMARK    4  A    between atoms: C_4  and  C_5
REMARK    5  A    between atoms: N_18  and  C_19
REMARK    6  A    between atoms: C_19  and  C_21
REMARK    7  A    between atoms: C_19  and  C_31
REMARK                            x       y       z     vdW  Elec       q    Type
REMARK                         _______ _______ _______ _____ _____    ______ ____
ROOT
ATOM      1  N   UNL     1      -1.372  -0.511   0.012  0.00  0.00    -0.282 N 
ATOM      2  C   UNL     1      -1.993  -0.751   1.184  0.00  0.00    +0.303 C 
ATOM      3  O   UNL     1      -3.134  -1.171   1.193  0.00  0.00    -0.253 OA
ATOM      4  N   UNL     1      -1.350  -0.524   2.347  0.00  0.00    -0.292 N 
ATOM      5  H   UNL     1      -0.440  -0.188   2.340  0.00  0.00    +0.151 HD
ENDROOT
BRANCH   1   7
ATOM      6  C   UNL     1      -0.019   1.526   0.010  0.00  0.00    +0.024 C 
ATOM      7  C   UNL     1       0.002  -0.004   0.002  0.00  0.00    +0.106 C 
ENDBRANCH   1   7
BRANCH   1   8
ATOM      8  C   UNL     1      -2.072  -0.758  -1.251  0.00  0.00    +0.157 C 
BRANCH   8   9
ATOM      9  C   UNL     1      -1.816  -2.197  -1.703  0.00  0.00    +0.228 C 
ATOM     10  C   UNL     1      -2.454  -2.428  -3.079  0.00  0.00    +0.275 C 
ATOM     11  O   UNL     1      -2.208  -3.785  -3.465  0.00  0.00    -0.485 OA
ATOM     12  C   UNL     1      -2.437  -4.740  -2.522  0.00  0.00    +0.162 A 
ATOM     13  C   UNL     1      -2.574  -6.064  -2.912  0.00  0.00    +0.049 A 
ATOM     14  C   UNL     1      -2.802  -7.045  -1.966  0.00  0.00    +0.004 A 
ATOM     15  C   UNL     1      -2.895  -6.709  -0.628  0.00  0.00    +0.004 A 
ATOM     16  C   UNL     1      -2.761  -5.392  -0.232  0.00  0.00    +0.049 A 
ATOM     17  C   UNL     1      -2.534  -4.402  -1.177  0.00  0.00    +0.163 A 
ATOM     18  O   UNL     1      -2.411  -3.108  -0.773  0.00  0.00    -0.480 OA
ENDBRANCH   8   9
ENDBRANCH   1   8
BRANCH   4  19
ATOM     19  C   UNL     1      -2.025  -0.784   3.620  0.00  0.00    +0.108 C 
BRANCH  19  20
ATOM     20  C   UNL     1      -0.996  -1.054   4.688  0.00  0.00    -0.023 A 
ATOM     21  C   UNL     1       0.167  -0.308   4.731  0.00  0.00    +0.009 A 
ATOM     22  C   UNL     1       1.113  -0.553   5.707  0.00  0.00    +0.050 A 
ATOM     23  C   UNL     1       0.898  -1.549   6.648  0.00  0.00    +0.162 A 
ATOM     24  C   UNL     1      -0.272  -2.298   6.607  0.00  0.00    +0.162 A 
ATOM     25  C   UNL     1      -1.220  -2.044   5.627  0.00  0.00    +0.055 A 
ATOM     26  O   UNL     1      -0.507  -3.275   7.525  0.00  0.00    -0.485 OA
ATOM     27  C   UNL     1       0.624  -3.747   8.266  0.00  0.00    +0.270 C 
ATOM     28  C   UNL     1       1.424  -2.530   8.750  0.00  0.00    +0.270 C 
ATOM     29  O   UNL     1       1.841  -1.782   7.602  0.00  0.00    -0.485 OA
ENDBRANCH  19  20
BRANCH  19  30
ATOM     30  C   UNL     1      -2.860   0.436   4.014  0.00  0.00    +0.014 C 
ATOM     31  C   UNL     1      -4.328   0.201   4.377  0.00  0.00    +0.006 C 
ATOM     32  C   UNL     1      -3.966   0.875   3.052  0.00  0.00    +0.006 C 
ENDBRANCH  19  30
ENDBRANCH   4  19
TORSDOF 6
