REMARK  Name = ZINC37314432
REMARK  6 active torsions:
REMARK  status: ('A' for Active; 'I' for Inactive)
REMARK    1  A    between atoms: C_1  and  C_2
REMARK    2  A    between atoms: C_4  and  C_19
REMARK    3  A    between atoms: C_7  and  N_8
REMARK    4  A    between atoms: N_8  and  C_9
REMARK    5  A    between atoms: C_15  and  O_17
REMARK    6  A    between atoms: O_17  and  C_18
REMARK                            x       y       z     vdW  Elec       q    Type
REMARK                         _______ _______ _______ _____ _____    ______ ____
ROOT
ATOM      1  C   UNL     1      -0.018   1.503   0.010  0.00  0.00    +0.045 C 
ATOM      2  C   UNL     1       0.002  -0.004   0.002  0.00  0.00    -0.029 A 
ATOM      3  C   UNL     1       0.006  -0.686  -1.195  0.00  0.00    +0.018 A 
ATOM      4  C   UNL     1       0.025  -2.082  -1.202  0.00  0.00    +0.039 A 
ATOM      5  C   UNL     1       0.041  -2.783   0.006  0.00  0.00    +0.015 A 
ATOM      6  C   UNL     1       0.037  -2.096   1.199  0.00  0.00    +0.024 A 
ATOM      7  C   UNL     1       0.023  -0.705   1.203  0.00  0.00    +0.030 A 
ENDROOT
BRANCH   4   8
ATOM      8  C   UNL     1       0.029  -2.816  -2.484  0.00  0.00    +0.248 A 
ATOM      9  N   UNL     1       0.021  -2.286  -3.685  0.00  0.00    -0.108 NA
ATOM     10  N   UNL     1       0.027  -3.225  -4.564  0.00  0.00    -0.116 NA
ATOM     11  C   UNL     1       0.039  -4.383  -3.965  0.00  0.00    +0.332 A 
ATOM     12  O   UNL     1       0.046  -4.155  -2.639  0.00  0.00    -0.423 OA
ENDBRANCH   4   8
BRANCH   7  13
ATOM     13  N   UNL     1       0.025  -0.012   2.413  0.00  0.00    -0.338 N 
ATOM     14  H   UNL     1       0.011   0.958   2.417  0.00  0.00    +0.146 HD
BRANCH  13  15
ATOM     15  C   UNL     1       0.047  -0.749   3.679  0.00  0.00    +0.099 C 
ATOM     16  C   UNL     1       1.492  -1.094   4.043  0.00  0.00    +0.025 C 
ATOM     17  C   UNL     1       1.515  -1.864   5.365  0.00  0.00    +0.002 C 
ATOM     18  C   UNL     1       0.903  -0.999   6.469  0.00  0.00    +0.003 C 
ATOM     19  C   UNL     1      -0.542  -0.654   6.105  0.00  0.00    +0.033 C 
ATOM     20  C   UNL     1      -0.565   0.115   4.783  0.00  0.00    +0.138 C 
BRANCH  20  21
ATOM     21  O   UNL     1      -1.915   0.438   4.443  0.00  0.00    -0.378 OA
ATOM     22  C   UNL     1      -2.360   1.694   4.958  0.00  0.00    +0.194 C 
ENDBRANCH  20  21
ENDBRANCH  13  15
ENDBRANCH   7  13
TORSDOF 4
