REMARK  Name = ZINC33043967
REMARK  7 active torsions:
REMARK  status: ('A' for Active; 'I' for Inactive)
REMARK    1  A    between atoms: C_1  and  C_2
REMARK    2  A    between atoms: N_9  and  N_10
REMARK    3  A    between atoms: C_11  and  C_12
REMARK    4  A    between atoms: N_14  and  C_26
REMARK    5  A    between atoms: N_16  and  S_17
REMARK    6  A    between atoms: S_17  and  C_20
REMARK    7  A    between atoms: C_26  and  C_27
REMARK                            x       y       z     vdW  Elec       q    Type
REMARK                         _______ _______ _______ _____ _____    ______ ____
ROOT
ATOM      1  C   UNL     1       0.002  -0.004   0.002  0.00  0.00    +0.070 A 
ATOM      2  C   UNL     1       1.067  -0.843  -0.013  0.00  0.00    +0.127 A 
ATOM      3  N   UNL     1       0.867  -2.183  -0.018  0.00  0.00    -0.305 N 
ATOM      4  C   UNL     1      -0.426  -2.663  -0.007  0.00  0.00    +0.196 A 
ATOM      5  N   UNL     1      -0.850  -3.902  -0.009  0.00  0.00    -0.103 NA
ATOM      6  S   UNL     1      -1.370  -1.147   0.017  0.00  0.00    -0.046 S 
ATOM      7 CL   UNL     1       2.681  -0.203  -0.026  0.00  0.00    -0.063 Cl
ENDROOT
BRANCH   5   8
ATOM      8  S   UNL     1      -2.474  -4.222   0.005  0.00  0.00    +0.107 S 
ATOM      9  O   UNL     1      -2.967  -3.765   1.257  0.00  0.00    -0.146 OA
ATOM     10  O   UNL     1      -2.991  -3.754  -1.233  0.00  0.00    -0.146 OA
BRANCH   8  11
ATOM     11  C   UNL     1      -2.661  -5.974  -0.001  0.00  0.00    +0.150 A 
ATOM     12  C   UNL     1      -2.741  -6.828   1.048  0.00  0.00    +0.037 A 
ATOM     13  C   UNL     1      -2.888  -8.180   0.803  0.00  0.00    +0.010 A 
ATOM     14  C   UNL     1      -2.947  -8.612  -0.480  0.00  0.00    +0.047 A 
ATOM     15  S   UNL     1      -2.801  -7.084  -1.392  0.00  0.00    -0.076 S 
ENDBRANCH   8  11
ENDBRANCH   5   8
BRANCH   1  17
ATOM     16  N   UNL     1      -1.153   2.097   0.019  0.00  0.00    -0.187 NA
ATOM     17  C   UNL     1      -0.018   1.462   0.010  0.00  0.00    +0.148 C 
BRANCH  16  26
ATOM     18  C   UNL     1      -6.102   6.034   0.063  0.00  0.00    +0.073 C 
ATOM     19  C   UNL     1      -4.746   5.377   0.054  0.00  0.00    +0.127 A 
ATOM     20  C   UNL     1      -3.574   6.164   0.052  0.00  0.00    +0.296 A 
ATOM     21  O   UNL     1      -3.637   7.382   0.059  0.00  0.00    -0.264 OA
ATOM     22  N   UNL     1      -2.379   5.529   0.049  0.00  0.00    -0.171 NA
ATOM     23  C   UNL     1      -2.365   4.165   0.036  0.00  0.00    +0.258 A 
ATOM     24  N   UNL     1      -3.499   3.485   0.038  0.00  0.00    -0.111 NA
ATOM     25  N   UNL     1      -4.644   4.068   0.046  0.00  0.00    -0.146 NA
ATOM     26  N   UNL     1      -1.172   3.498   0.027  0.00  0.00    -0.204 N 
ATOM     27  H   UNL     1      -0.227   4.061   0.025  0.00  0.00    +0.177 HD
ENDBRANCH  16  26
ENDBRANCH   1  17
BRANCH   3  28
ATOM     28  C   UNL     1       2.004  -3.107  -0.034  0.00  0.00    +0.152 C 
BRANCH  28  29
ATOM     29  C   UNL     1       2.408  -3.431   1.381  0.00  0.00    -0.013 C 
ATOM     30  C   UNL     1       2.472  -4.679   1.775  0.00  0.00    +0.005 C 
ENDBRANCH  28  29
ENDBRANCH   3  28
TORSDOF 6
