REMARK  Name = ZINC00715325
REMARK  6 active torsions:
REMARK  status: ('A' for Active; 'I' for Inactive)
REMARK    1  A    between atoms: C_4  and  C_7
REMARK    2  A    between atoms: C_7  and  C_8
REMARK    3  A    between atoms: C_8  and  C_10
REMARK    4  A    between atoms: C_8  and  N_22
REMARK    5  A    between atoms: N_12  and  C_13
REMARK    6  A    between atoms: C_17  and  N_19
REMARK                            x       y       z     vdW  Elec       q    Type
REMARK                         _______ _______ _______ _____ _____    ______ ____
ROOT
ATOM      1  C   UNL     1       1.059   7.433   0.242  0.00  0.00    +0.175 C 
ENDROOT
BRANCH   1   2
ATOM      2  N   UNL     1       2.430   7.940   0.328  0.00  0.00    -0.222 N 
ATOM      3  C   UNL     1       3.304   7.613   1.297  0.00  0.00    +0.255 C 
ATOM      4  O   UNL     1       3.083   6.862   2.226  0.00  0.00    -0.270 OA
ATOM      5  C   UNL     1       4.577   8.318   1.042  0.00  0.00    +0.049 A 
ATOM      6  C   UNL     1       5.804   8.364   1.684  0.00  0.00    +0.014 A 
ATOM      7  C   UNL     1       6.820   9.155   1.171  0.00  0.00    +0.001 A 
ATOM      8  C   UNL     1       6.617   9.897   0.022  0.00  0.00    +0.001 A 
ATOM      9  C   UNL     1       5.395   9.861  -0.632  0.00  0.00    +0.014 A 
ATOM     10  C   UNL     1       4.371   9.075  -0.129  0.00  0.00    +0.049 A 
ATOM     11  C   UNL     1       2.980   8.799  -0.549  0.00  0.00    +0.255 C 
ATOM     12  O   UNL     1       2.427   9.270  -1.522  0.00  0.00    -0.270 OA
ENDBRANCH   1   2
BRANCH   1  13
ATOM     13  C   UNL     1       1.085   5.931   0.122  0.00  0.00    +0.239 C 
ATOM     14  O   UNL     1       2.146   5.342   0.109  0.00  0.00    -0.273 OA
ATOM     15  N   UNL     1      -0.069   5.242   0.028  0.00  0.00    -0.284 N 
ATOM     16  H   UNL     1      -0.913   5.715  -0.029  0.00  0.00    +0.155 HD
BRANCH  15  17
ATOM     17  C   UNL     1      -0.050   3.842   0.014  0.00  0.00    +0.036 A 
ATOM     18  C   UNL     1       0.992   3.167  -0.609  0.00  0.00    +0.023 A 
ATOM     19  C   UNL     1       1.008   1.786  -0.621  0.00  0.00    +0.004 A 
ATOM     20  C   UNL     1      -0.011   1.076  -0.015  0.00  0.00    +0.033 A 
ATOM     21  C   UNL     1      -1.053   1.745   0.601  0.00  0.00    +0.128 A 
ATOM     22  C   UNL     1      -1.072   3.126   0.622  0.00  0.00    +0.056 A 
BRANCH  21  23
ATOM     23  N   UNL     1      -2.145   0.981   1.244  0.00  0.00    +0.056 N 
ATOM     24  O   UNL     1      -2.127  -0.237   1.230  0.00  0.00    -0.126 OA
ATOM     25  O   UNL     1      -3.063   1.570   1.787  0.00  0.00    -0.126 OA
ENDBRANCH  21  23
ENDBRANCH  15  17
ENDBRANCH   1  13
BRANCH   1  26
ATOM     26  C   UNL     1       0.288   7.830   1.503  0.00  0.00    +0.067 C 
BRANCH  26  30
ATOM     27  C   UNL     1      -0.089  12.082   1.663  0.00  0.00    +0.000 A 
ATOM     28  C   UNL     1      -1.057  11.325   1.029  0.00  0.00    +0.000 A 
ATOM     29  C   UNL     1      -0.935   9.949   0.977  0.00  0.00    +0.004 A 
ATOM     30  C   UNL     1       0.155   9.330   1.559  0.00  0.00    -0.045 A 
ATOM     31  C   UNL     1       1.121  10.086   2.197  0.00  0.00    +0.004 A 
ATOM     32  C   UNL     1       1.002  11.462   2.244  0.00  0.00    +0.000 A 
ENDBRANCH  26  30
ENDBRANCH   1  26
TORSDOF 6
