REMARK  Name = ZINC13505663
REMARK  10 active torsions:
REMARK  status: ('A' for Active; 'I' for Inactive)
REMARK    1  A    between atoms: C_1  and  C_2
REMARK    2  A    between atoms: C_8  and  C_10
REMARK    3  A    between atoms: C_10  and  C_11
REMARK    4  A    between atoms: C_11  and  C_12
REMARK    5  A    between atoms: N_14  and  C_15
REMARK    6  A    between atoms: N_14  and  C_22
REMARK    7  A    between atoms: C_15  and  C_16
REMARK    8  A    between atoms: C_22  and  C_24
REMARK    9  A    between atoms: C_22  and  C_31
REMARK   10  A    between atoms: N_33  and  C_34
REMARK                            x       y       z     vdW  Elec       q    Type
REMARK                         _______ _______ _______ _____ _____    ______ ____
ROOT
ATOM      1  C   UNL     1       2.758  12.045  -0.130  0.00  0.00    +0.217 C 
ATOM      2  O   UNL     1       2.196  11.654   0.871  0.00  0.00    -0.276 OA
ATOM      3  N   UNL     1       3.990  12.584  -0.044  0.00  0.00    -0.283 N 
ENDROOT
BRANCH   1   4
ATOM      4  C   UNL     1       2.078  11.928  -1.470  0.00  0.00    +0.105 C 
BRANCH   4   5
ATOM      5  C   UNL     1       0.701  11.287  -1.288  0.00  0.00    +0.105 C 
BRANCH   5  13
ATOM      6  C   UNL     1      -4.838   9.438  -5.790  0.00  0.00    +0.066 C 
ATOM      7  C   UNL     1      -3.476  10.003  -5.475  0.00  0.00    +0.047 A 
ATOM      8  C   UNL     1      -2.685  10.494  -6.460  0.00  0.00    +0.071 A 
ATOM      9  S   UNL     1      -1.256  11.001  -5.514  0.00  0.00    -0.060 S 
ATOM     10  C   UNL     1      -1.838  10.523  -3.950  0.00  0.00    +0.165 A 
ATOM     11  N   UNL     1      -3.028  10.031  -4.235  0.00  0.00    -0.230 NA
ATOM     12  N   UNL     1      -1.211  10.631  -2.714  0.00  0.00    -0.265 N 
ATOM     13  C   UNL     1       0.021  11.170  -2.628  0.00  0.00    +0.219 C 
ATOM     14  O   UNL     1       0.583  11.561  -3.630  0.00  0.00    -0.275 OA
ATOM     15  H   UNL     1      -1.660  10.318  -1.913  0.00  0.00    +0.157 HD
ENDBRANCH   5  13
ENDBRANCH   4   5
ENDBRANCH   1   4
BRANCH   3  16
ATOM     16  C   UNL     1       4.669  13.057  -1.253  0.00  0.00    +0.140 C 
BRANCH  16  17
ATOM     17  C   UNL     1       4.167  14.459  -1.605  0.00  0.00    +0.136 C 
ATOM     18  C   UNL     1       4.941  15.018  -2.820  0.00  0.00    +0.035 C 
ATOM     19  C   UNL     1       5.104  16.521  -2.501  0.00  0.00    +0.031 C 
ATOM     20  C   UNL     1       4.410  16.692  -1.132  0.00  0.00    +0.160 C 
ATOM     21  O   UNL     1       4.452  15.380  -0.530  0.00  0.00    -0.375 OA
ENDBRANCH  16  17
ENDBRANCH   3  16
BRANCH   3  22
ATOM     22  C   UNL     1       4.651  12.698   1.258  0.00  0.00    +0.192 C 
BRANCH  22  23
ATOM     23  C   UNL     1       5.604  11.545   1.441  0.00  0.00    -0.018 A 
ATOM     24  C   UNL     1       6.355  11.094   0.372  0.00  0.00    +0.009 A 
ATOM     25  C   UNL     1       7.233  10.040   0.539  0.00  0.00    +0.038 A 
ATOM     26  C   UNL     1       7.351   9.428   1.776  0.00  0.00    +0.123 A 
ATOM     27  C   UNL     1       6.593   9.876   2.844  0.00  0.00    +0.038 A 
ATOM     28  C   UNL     1       5.721  10.934   2.676  0.00  0.00    +0.009 A 
ATOM     29  F   UNL     1       8.204   8.393   1.939  0.00  0.00    -0.205 F 
ENDBRANCH  22  23
BRANCH  22  30
ATOM     30  C   UNL     1       5.415  13.995   1.323  0.00  0.00    +0.238 C 
ATOM     31  O   UNL     1       6.250  14.250   0.480  0.00  0.00    -0.273 OA
ATOM     32  N   UNL     1       5.171  14.873   2.316  0.00  0.00    -0.311 N 
ATOM     33  H   UNL     1       4.504  14.669   2.990  0.00  0.00    +0.149 HD
BRANCH  32  34
ATOM     34  C   UNL     1       5.914  16.134   2.378  0.00  0.00    +0.073 C 
ATOM     35  C   UNL     1       7.243  15.908   3.102  0.00  0.00    +0.022 C 
ATOM     36  C   UNL     1       8.019  17.225   3.167  0.00  0.00    +0.002 C 
ATOM     37  C   UNL     1       7.194  18.266   3.928  0.00  0.00    +0.000 C 
ATOM     38  C   UNL     1       5.865  18.492   3.204  0.00  0.00    +0.002 C 
ATOM     39  C   UNL     1       5.090  17.174   3.139  0.00  0.00    +0.022 C 
ENDBRANCH  32  34
ENDBRANCH  22  30
ENDBRANCH   3  22
TORSDOF 9
