REMARK  Name = ZINC18196176
REMARK  9 active torsions:
REMARK  status: ('A' for Active; 'I' for Inactive)
REMARK    1  A    between atoms: C_1  and  C_2
REMARK    2  A    between atoms: C_2  and  C_3
REMARK    3  A    between atoms: C_3  and  O_4
REMARK    4  A    between atoms: O_4  and  C_5
REMARK    5  A    between atoms: C_8  and  C_11
REMARK    6  A    between atoms: C_13  and  C_22
REMARK    7  A    between atoms: N_24  and  C_25
REMARK    8  A    between atoms: N_28  and  C_33
REMARK    9  A    between atoms: C_29  and  C_30
REMARK                            x       y       z     vdW  Elec       q    Type
REMARK                         _______ _______ _______ _____ _____    ______ ____
ROOT
ATOM      1  C   UNL     1       3.951   0.044  -0.253  0.00  0.00    +0.072 A 
ATOM      2  C   UNL     1       2.674   0.624  -0.219  0.00  0.00    +0.042 A 
ATOM      3  C   UNL     1       1.558  -0.191  -0.100  0.00  0.00    +0.048 A 
ATOM      4  C   UNL     1       1.787  -1.634  -0.009  0.00  0.00    +0.014 A 
ATOM      5  C   UNL     1       0.724  -2.537   0.107  0.00  0.00    +0.026 A 
ATOM      6  C   UNL     1       0.982  -3.874   0.182  0.00  0.00    +0.019 A 
ATOM      7  C   UNL     1       2.291  -4.353   0.139  0.00  0.00    +0.017 A 
ATOM      8  C   UNL     1       3.346  -3.502   0.021  0.00  0.00    +0.029 A 
ATOM      9  C   UNL     1       3.119  -2.115  -0.059  0.00  0.00    +0.072 A 
ATOM     10  N   UNL     1       4.134  -1.258  -0.176  0.00  0.00    -0.247 NA
ATOM     11 BR   UNL     1      -0.454  -5.094   0.347  0.00  0.00    -0.050 Br
ENDROOT
BRANCH   1  15
ATOM     12  C   UNL     1       7.347   2.576  -0.621  0.00  0.00    +0.121 A 
ATOM     13  C   UNL     1       7.514   1.200  -0.537  0.00  0.00    +0.046 A 
ATOM     14  C   UNL     1       6.416   0.377  -0.417  0.00  0.00    +0.013 A 
ATOM     15  C   UNL     1       5.134   0.926  -0.381  0.00  0.00    +0.001 A 
ATOM     16  C   UNL     1       4.969   2.308  -0.471  0.00  0.00    +0.013 A 
ATOM     17  C   UNL     1       6.072   3.127  -0.585  0.00  0.00    +0.046 A 
BRANCH  12  18
ATOM     18  O   UNL     1       8.432   3.385  -0.740  0.00  0.00    -0.492 OA
BRANCH  18  19
ATOM     19  C   UNL     1       8.187   4.791  -0.821  0.00  0.00    +0.229 C 
BRANCH  19  21
ATOM     20  C   UNL     1       9.256   7.038  -1.037  0.00  0.00    +0.007 C 
ATOM     21  C   UNL     1       9.518   5.534  -0.949  0.00  0.00    +0.038 C 
ENDBRANCH  19  21
ENDBRANCH  18  19
ENDBRANCH  12  18
ENDBRANCH   1  15
BRANCH   3  22
ATOM     22  C   UNL     1       0.192   0.374  -0.059  0.00  0.00    +0.249 C 
ATOM     23  O   UNL     1      -0.772  -0.365  -0.061  0.00  0.00    -0.270 OA
ATOM     24  N   UNL     1       0.017   1.710  -0.021  0.00  0.00    -0.278 N 
ATOM     25  H   UNL     1       0.787   2.300  -0.020  0.00  0.00    +0.155 HD
BRANCH  24  26
ATOM     26  C   UNL     1      -1.272   2.244   0.011  0.00  0.00    +0.084 A 
ATOM     27  C   UNL     1      -2.487   1.541   0.009  0.00  0.00    +0.158 A 
ATOM     28  N   UNL     1      -3.457   2.416   0.046  0.00  0.00    -0.177 NA
ATOM     29  N   UNL     1      -3.000   3.616   0.072  0.00  0.00    -0.261 N 
ATOM     30  C   UNL     1      -1.629   3.589   0.057  0.00  0.00    +0.144 A 
ATOM     31  C   UNL     1      -3.819   4.830   0.117  0.00  0.00    +0.173 C 
BRANCH  30  32
ATOM     32  C   UNL     1      -0.724   4.742   0.083  0.00  0.00    +0.261 C 
ATOM     33  O   UNL     1      -0.353   5.247  -0.961  0.00  0.00    -0.269 OA
ATOM     34  N   UNL     1      -0.302   5.242   1.261  0.00  0.00    -0.324 N 
ATOM     35  H   UNL     1      -0.654   4.886   2.092  0.00  0.00    +0.145 HD
ATOM     36  H   UNL     1       0.353   5.957   1.278  0.00  0.00    +0.145 HD
ENDBRANCH  30  32
ENDBRANCH  24  26
ENDBRANCH   3  22
TORSDOF 7
