REMARK  Name = ZINC06028529
REMARK  7 active torsions:
REMARK  status: ('A' for Active; 'I' for Inactive)
REMARK    1  A    between atoms: C_1  and  C_2
REMARK    2  A    between atoms: C_4  and  C_32
REMARK    3  A    between atoms: N_8  and  S_9
REMARK    4  A    between atoms: S_9  and  C_12
REMARK    5  A    between atoms: C_15  and  N_18
REMARK    6  A    between atoms: C_19  and  C_21
REMARK    7  A    between atoms: C_22  and  C_23
REMARK                            x       y       z     vdW  Elec       q    Type
REMARK                         _______ _______ _______ _____ _____    ______ ____
ROOT
ATOM      1  C   UNL     1       3.626   3.362   0.095  0.00  0.00    +0.109 A 
ATOM      2  C   UNL     1       2.443   4.070   0.197  0.00  0.00    +0.030 A 
ATOM      3  C   UNL     1       1.233   3.404   0.169  0.00  0.00    +0.025 A 
ATOM      4  C   UNL     1       1.206   2.021   0.038  0.00  0.00    +0.034 A 
ATOM      5  C   UNL     1       2.397   1.312  -0.058  0.00  0.00    +0.025 A 
ATOM      6  C   UNL     1       3.603   1.985  -0.035  0.00  0.00    +0.030 A 
ENDROOT
BRANCH   4   7
ATOM      7  N   UNL     1      -0.016   1.344   0.009  0.00  0.00    -0.282 N 
ATOM      8  C   UNL     1      -1.087   1.911  -0.580  0.00  0.00    +0.241 C 
ATOM      9  O   UNL     1      -1.014   3.047  -1.012  0.00  0.00    -0.270 OA
ATOM     10  H   UNL     1      -0.095   0.467   0.417  0.00  0.00    +0.155 HD
BRANCH   8  11
ATOM     11  C   UNL     1      -2.338   1.163  -0.699  0.00  0.00    +0.068 C 
ATOM     12  C   UNL     1      -3.411   1.731  -1.289  0.00  0.00    +0.013 C 
BRANCH  12  13
ATOM     13  C   UNL     1      -4.668   0.979  -1.409  0.00  0.00    -0.021 A 
ATOM     14  C   UNL     1      -4.755  -0.327  -0.913  0.00  0.00    +0.012 A 
ATOM     15  C   UNL     1      -5.934  -1.029  -1.027  0.00  0.00    +0.050 A 
ATOM     16  C   UNL     1      -7.040  -0.446  -1.634  0.00  0.00    +0.166 A 
ATOM     17  C   UNL     1      -6.960   0.855  -2.131  0.00  0.00    +0.167 A 
ATOM     18  C   UNL     1      -5.783   1.568  -2.016  0.00  0.00    +0.057 A 
ATOM     19  O   UNL     1      -8.169   1.189  -2.671  0.00  0.00    -0.453 OA
ATOM     20  C   UNL     1      -9.105   0.236  -2.136  0.00  0.00    +0.466 C 
ATOM     21  O   UNL     1      -8.296  -0.924  -1.864  0.00  0.00    -0.453 OA
ENDBRANCH  12  13
ENDBRANCH   8  11
ENDBRANCH   4   7
BRANCH   1  22
ATOM     22  S   UNL     1       5.167   4.216   0.131  0.00  0.00    +0.075 S 
ATOM     23  O   UNL     1       6.109   3.382  -0.530  0.00  0.00    -0.150 OA
ATOM     24  O   UNL     1       4.903   5.548  -0.289  0.00  0.00    -0.150 OA
BRANCH  22  32
ATOM     25  C   UNL     1       5.429  -0.476   1.980  0.00  0.00    +0.066 C 
ATOM     26  C   UNL     1       5.854   0.852   2.553  0.00  0.00    +0.044 A 
ATOM     27  C   UNL     1       6.538   0.910   3.757  0.00  0.00    +0.046 A 
ATOM     28  C   UNL     1       6.910   2.151   4.248  0.00  0.00    +0.044 A 
ATOM     29  N   UNL     1       6.603   3.237   3.558  0.00  0.00    -0.219 NA
ATOM     30  C   UNL     1       5.947   3.147   2.411  0.00  0.00    +0.235 A 
ATOM     31  N   UNL     1       5.572   1.976   1.916  0.00  0.00    -0.219 NA
ATOM     32  N   UNL     1       5.642   4.304   1.715  0.00  0.00    -0.184 N 
ATOM     33  C   UNL     1       7.657   2.262   5.553  0.00  0.00    +0.066 C 
ATOM     34  H   UNL     1       5.706   5.166   2.155  0.00  0.00    +0.177 HD
ENDBRANCH  22  32
ENDBRANCH   1  22
TORSDOF 5
