REMARK  Name = ZINC59351168
REMARK  8 active torsions:
REMARK  status: ('A' for Active; 'I' for Inactive)
REMARK    1  A    between atoms: C_1  and  C_2
REMARK    2  A    between atoms: C_5  and  C_9
REMARK    3  A    between atoms: C_7  and  C_8
REMARK    4  A    between atoms: C_9  and  C_11
REMARK    5  A    between atoms: C_9  and  N_12
REMARK    6  A    between atoms: C_13  and  C_15
REMARK    7  A    between atoms: C_16  and  C_17
REMARK    8  A    between atoms: C_21  and  N_23
REMARK                            x       y       z     vdW  Elec       q    Type
REMARK                         _______ _______ _______ _____ _____    ______ ____
ROOT
ATOM      1  N   UNL     1       0.948  -4.746  -1.087  0.00  0.00    -0.305 N 
ATOM      2  C   UNL     1       1.524  -5.962  -0.996  0.00  0.00    +0.237 C 
ATOM      3  O   UNL     1       1.306  -6.668  -0.029  0.00  0.00    -0.271 OA
ATOM      4  H   UNL     1       1.121  -4.184  -1.858  0.00  0.00    +0.150 HD
ENDROOT
BRANCH   1   5
ATOM      5  C   UNL     1       0.059  -4.275  -0.021  0.00  0.00    +0.100 C 
ATOM      6  C   UNL     1      -1.356  -4.802  -0.267  0.00  0.00    +0.033 C 
BRANCH   5  11
ATOM      7  C   UNL     1      -0.018   1.503   0.010  0.00  0.00    +0.044 C 
ATOM      8  C   UNL     1       0.002  -0.004   0.002  0.00  0.00    -0.048 A 
ATOM      9  C   UNL     1       0.006  -0.689  -1.199  0.00  0.00    +0.004 A 
ATOM     10  C   UNL     1       0.025  -2.071  -1.207  0.00  0.00    +0.006 A 
ATOM     11  C   UNL     1       0.040  -2.768  -0.013  0.00  0.00    -0.027 A 
ATOM     12  C   UNL     1       0.037  -2.084   1.188  0.00  0.00    +0.009 A 
ATOM     13  C   UNL     1       0.023  -0.702   1.195  0.00  0.00    -0.047 A 
ATOM     14  C   UNL     1       0.025   0.045   2.504  0.00  0.00    +0.044 C 
ENDBRANCH   5  11
ENDBRANCH   1   5
BRANCH   2  15
ATOM     15  C   UNL     1       2.411  -6.432  -2.061  0.00  0.00    +0.068 C 
ATOM     16  C   UNL     1       2.987  -7.648  -1.971  0.00  0.00    +0.013 C 
BRANCH  16  17
ATOM     17  C   UNL     1       3.880  -8.121  -3.041  0.00  0.00    -0.023 A 
ATOM     18  C   UNL     1       4.137  -7.311  -4.152  0.00  0.00    +0.008 A 
ATOM     19  C   UNL     1       4.974  -7.761  -5.150  0.00  0.00    +0.003 A 
ATOM     20  C   UNL     1       5.559  -9.012  -5.056  0.00  0.00    +0.033 A 
ATOM     21  C   UNL     1       5.309  -9.820  -3.961  0.00  0.00    +0.127 A 
ATOM     22  C   UNL     1       4.479  -9.381  -2.951  0.00  0.00    +0.040 A 
BRANCH  21  23
ATOM     23  N   UNL     1       5.939 -11.156  -3.871  0.00  0.00    +0.056 N 
ATOM     24  O   UNL     1       6.671 -11.540  -4.753  0.00  0.00    -0.126 OA
ATOM     25  O   UNL     1       5.722 -11.864  -2.914  0.00  0.00    -0.126 OA
ENDBRANCH  21  23
ENDBRANCH  16  17
ENDBRANCH   2  15
TORSDOF 5
