REMARK  Name = ZINC10693996
REMARK  11 active torsions:
REMARK  status: ('A' for Active; 'I' for Inactive)
REMARK    1  A    between atoms: C_1  and  C_2
REMARK    2  A    between atoms: C_2  and  O_3
REMARK    3  A    between atoms: O_3  and  C_4
REMARK    4  A    between atoms: C_4  and  C_6
REMARK    5  A    between atoms: C_10  and  N_11
REMARK    6  A    between atoms: C_12  and  C_14
REMARK    7  A    between atoms: C_14  and  O_15
REMARK    8  A    between atoms: O_15  and  C_16
REMARK    9  A    between atoms: C_16  and  C_18
REMARK   10  A    between atoms: C_18  and  N_19
REMARK   11  A    between atoms: C_27  and  C_29
REMARK                            x       y       z     vdW  Elec       q    Type
REMARK                         _______ _______ _______ _____ _____    ______ ____
ROOT
ATOM      1  C   UNL     1       4.505   0.648  -3.098  0.00  0.00    +0.328 C 
ENDROOT
BRANCH   1   3
ATOM      2  N   UNL     1       6.465  -0.112  -4.402  0.00  0.00    -0.277 N 
ATOM      3  C   UNL     1       5.906   0.103  -3.194  0.00  0.00    +0.255 C 
ATOM      4  O   UNL     1       6.532  -0.142  -2.184  0.00  0.00    -0.272 OA
ATOM      5  H   UNL     1       5.964   0.084  -5.209  0.00  0.00    +0.155 HD
BRANCH   2  10
ATOM      6  C   UNL     1       8.489  -0.903  -5.628  0.00  0.00    +0.091 A 
ATOM      7  C   UNL     1       9.844  -1.424  -5.444  0.00  0.00    -0.021 A 
ATOM      8  C   UNL     1      10.228  -1.575  -4.164  0.00  0.00    -0.004 A 
ATOM      9  S   UNL     1       8.834  -1.035  -3.205  0.00  0.00    -0.077 S 
ATOM     10  C   UNL     1       7.754  -0.613  -4.490  0.00  0.00    +0.086 A 
ATOM     11  C   UNL     1      11.628  -2.116  -4.056  0.00  0.00    +0.043 C 
ATOM     12  C   UNL     1      12.244  -1.883  -5.453  0.00  0.00    +0.010 C 
ATOM     13  C   UNL     1      10.991  -1.870  -6.351  0.00  0.00    +0.037 C 
BRANCH   6  14
ATOM     14  C   UNL     1       7.932  -0.692  -6.966  0.00  0.00    +0.342 C 
ATOM     15  O   UNL     1       8.082   0.378  -7.525  0.00  0.00    -0.245 OA
BRANCH  14  16
ATOM     16  O   UNL     1       7.252  -1.683  -7.577  0.00  0.00    -0.461 OA
BRANCH  16  18
ATOM     17  C   UNL     1       5.994  -2.637  -9.431  0.00  0.00    +0.048 C 
ATOM     18  C   UNL     1       6.728  -1.404  -8.902  0.00  0.00    +0.229 C 
ENDBRANCH  16  18
ENDBRANCH  14  16
ENDBRANCH   6  14
ENDBRANCH   2  10
ENDBRANCH   1   3
BRANCH   1  19
ATOM     19  O   UNL     1       4.135   0.789  -1.701  0.00  0.00    -0.454 OA
BRANCH  19  20
ATOM     20  C   UNL     1       2.907   1.266  -1.441  0.00  0.00    +0.326 C 
ATOM     21  O   UNL     1       2.166   1.555  -2.350  0.00  0.00    -0.249 OA
BRANCH  20  22
ATOM     22  C   UNL     1       2.453   1.440  -0.014  0.00  0.00    +0.238 C 
BRANCH  22  23
ATOM     23  N   UNL     1       1.088   1.971   0.002  0.00  0.00    -0.213 N 
ATOM     24  C   UNL     1       0.785   3.285   0.012  0.00  0.00    +0.247 C 
ATOM     25  O   UNL     1       1.561   4.217   0.010  0.00  0.00    -0.273 OA
ATOM     26  C   UNL     1      -0.725   3.352   0.027  0.00  0.00    +0.115 C 
ATOM     27  C   UNL     1      -1.237   4.066  -1.219  0.00  0.00    +0.035 C 
ATOM     28  C   UNL     1      -2.767   4.099  -1.199  0.00  0.00    +0.003 C 
ATOM     29  C   UNL     1      -3.244   4.828   0.059  0.00  0.00    +0.000 C 
ATOM     30  C   UNL     1      -2.743   4.086   1.300  0.00  0.00    +0.006 C 
ATOM     31  C   UNL     1      -1.213   4.053   1.290  0.00  0.00    +0.018 C 
ATOM     32  C   UNL     1      -0.712   3.293   2.520  0.00  0.00    +0.010 C 
ATOM     33  N   UNL     1      -1.144   1.945   0.018  0.00  0.00    -0.285 N 
ATOM     34  C   UNL     1      -0.014   1.211   0.009  0.00  0.00    +0.310 C 
ATOM     35  O   UNL     1       0.002  -0.004   0.002  0.00  0.00    -0.252 OA
ATOM     36  H   UNL     1      -2.054   1.610   0.019  0.00  0.00    +0.151 HD
ENDBRANCH  22  23
ENDBRANCH  20  22
ENDBRANCH  19  20
ENDBRANCH   1  19
TORSDOF 9
