REMARK  Name = ZINC00244990
REMARK  6 active torsions:
REMARK  status: ('A' for Active; 'I' for Inactive)
REMARK    1  A    between atoms: C_4  and  O_26
REMARK    2  A    between atoms: C_5  and  C_7
REMARK    3  A    between atoms: N_8  and  C_9
REMARK    4  A    between atoms: C_10  and  C_24
REMARK    5  A    between atoms: C_11  and  C_19
REMARK    6  A    between atoms: C_12  and  C_14
REMARK                            x       y       z     vdW  Elec       q    Type
REMARK                         _______ _______ _______ _____ _____    ______ ____
ROOT
ATOM      1  C   UNL     1       2.428  -4.130  -0.045  0.00  0.00    +0.239 A 
ATOM      2  C   UNL     1       3.578  -4.921  -0.055  0.00  0.00    +0.128 A 
ATOM      3  C   UNL     1       3.099  -6.313  -0.060  0.00  0.00    +0.086 A 
ATOM      4  C   UNL     1       1.713  -6.232  -0.053  0.00  0.00    +0.184 A 
ATOM      5  O   UNL     1       1.352  -4.935  -0.038  0.00  0.00    -0.432 OA
ENDROOT
BRANCH   4   6
ATOM      6  C   UNL     1       0.793  -7.372  -0.054  0.00  0.00    +0.170 A 
ATOM      7  C   UNL     1      -0.571  -7.303  -0.053  0.00  0.00    +0.053 A 
ATOM      8  C   UNL     1      -1.044  -8.628  -0.056  0.00  0.00    +0.042 A 
ATOM      9  C   UNL     1       0.037  -9.435  -0.059  0.00  0.00    +0.196 A 
ATOM     10  O   UNL     1       1.145  -8.674  -0.064  0.00  0.00    -0.460 OA
ENDBRANCH   4   6
BRANCH   3  11
ATOM     11  C   UNL     1       3.920  -7.537  -0.071  0.00  0.00    +0.140 A 
ATOM     12  C   UNL     1       4.753  -7.950   0.924  0.00  0.00    +0.050 A 
ATOM     13  C   UNL     1       5.330  -9.161   0.493  0.00  0.00    +0.042 A 
ATOM     14  C   UNL     1       4.827  -9.426  -0.729  0.00  0.00    +0.196 A 
ATOM     15  O   UNL     1       3.972  -8.445  -1.065  0.00  0.00    -0.463 OA
ENDBRANCH   3  11
BRANCH   1  17
ATOM     16  C   UNL     1       1.255  -2.152  -0.022  0.00  0.00    +0.126 C 
ATOM     17  N   UNL     1       2.402  -2.784  -0.037  0.00  0.00    -0.219 NA
BRANCH  16  22
ATOM     18  C   UNL     1      -0.017   1.373   0.010  0.00  0.00    +0.001 A 
ATOM     19  C   UNL     1       1.170   2.089   0.002  0.00  0.00    +0.004 A 
ATOM     20  C   UNL     1       2.385   1.431  -0.013  0.00  0.00    +0.046 A 
ATOM     21  C   UNL     1       2.425   0.046  -0.021  0.00  0.00    +0.125 A 
ATOM     22  C   UNL     1       1.226  -0.685  -0.013  0.00  0.00    +0.035 A 
ATOM     23  C   UNL     1       0.002  -0.004   0.002  0.00  0.00    +0.013 A 
BRANCH  21  24
ATOM     24  O   UNL     1       3.618  -0.601  -0.036  0.00  0.00    -0.506 OA
ATOM     25  H   UNL     1       3.973  -0.793   0.843  0.00  0.00    +0.292 HD
ENDBRANCH  21  24
ENDBRANCH  16  22
ENDBRANCH   1  17
BRANCH   2  26
ATOM     26  C   UNL     1       4.938  -4.472  -0.060  0.00  0.00    +0.105 C 
ATOM     27  N   UNL     1       6.017  -4.116  -0.064  0.00  0.00    -0.191 NA
ENDBRANCH   2  26
TORSDOF 6
