REMARK  Name = ZINC41076913
REMARK  10 active torsions:
REMARK  status: ('A' for Active; 'I' for Inactive)
REMARK    1  A    between atoms: C_1  and  C_2
REMARK    2  A    between atoms: C_5  and  C_8
REMARK    3  A    between atoms: N_10  and  C_11
REMARK    4  A    between atoms: C_16  and  O_17
REMARK    5  A    between atoms: O_17  and  C_18
REMARK    6  A    between atoms: C_18  and  C_19
REMARK    7  A    between atoms: N_28  and  C_29
REMARK    8  A    between atoms: C_29  and  C_30
REMARK    9  A    between atoms: C_30  and  C_31
REMARK   10  A    between atoms: C_30  and  C_32
REMARK                            x       y       z     vdW  Elec       q    Type
REMARK                         _______ _______ _______ _____ _____    ______ ____
ROOT
ATOM      1  C   UNL     1       0.002  -6.329   1.189  0.00  0.00    +0.076 A 
ATOM      2  C   UNL     1       0.017  -7.066   0.014  0.00  0.00    +0.027 A 
ATOM      3  C   UNL     1      -0.054  -8.446   0.063  0.00  0.00    +0.002 A 
ATOM      4  C   UNL     1      -0.140  -9.094   1.282  0.00  0.00    +0.004 A 
ATOM      5  C   UNL     1      -0.156  -8.366   2.457  0.00  0.00    +0.047 A 
ATOM      6  C   UNL     1      -0.079  -6.983   2.417  0.00  0.00    +0.142 A 
ENDROOT
BRANCH   1   9
ATOM      7  C   UNL     1      -0.513  -4.260   0.131  0.00  0.00    +0.248 C 
ATOM      8  O   UNL     1      -1.034  -4.870  -0.782  0.00  0.00    -0.270 OA
ATOM      9  N   UNL     1       0.074  -4.931   1.142  0.00  0.00    -0.279 N 
ATOM     10  H   UNL     1       0.546  -4.446   1.837  0.00  0.00    +0.155 HD
BRANCH   7  15
ATOM     11  C   UNL     1      -0.551   1.494   0.138  0.00  0.00    +0.044 C 
ATOM     12  C   UNL     1      -0.541  -0.013   0.136  0.00  0.00    -0.050 A 
ATOM     13  C   UNL     1      -1.135  -0.704  -0.905  0.00  0.00    +0.004 A 
ATOM     14  C   UNL     1      -1.129  -2.084  -0.913  0.00  0.00    +0.013 A 
ATOM     15  C   UNL     1      -0.522  -2.782   0.133  0.00  0.00    +0.037 A 
ATOM     16  C   UNL     1       0.075  -2.078   1.180  0.00  0.00    +0.013 A 
ATOM     17  C   UNL     1       0.067  -0.699   1.173  0.00  0.00    +0.004 A 
ENDBRANCH   7  15
ENDBRANCH   1   9
BRANCH   6  18
ATOM     18  O   UNL     1      -0.089  -6.266   3.572  0.00  0.00    -0.484 OA
BRANCH  18  19
ATOM     19  C   UNL     1      -0.174  -7.004   4.793  0.00  0.00    +0.284 C 
BRANCH  19  20
ATOM     20  C   UNL     1      -0.172  -6.049   5.958  0.00  0.00    +0.088 A 
ATOM     21  C   UNL     1      -1.273  -5.955   6.761  0.00  0.00    +0.099 A 
ATOM     22  C   UNL     1      -1.248  -5.056   7.844  0.00  0.00    +0.275 A 
ATOM     23  O   UNL     1      -2.212  -4.946   8.583  0.00  0.00    -0.266 OA
ATOM     24  N   UNL     1      -0.139  -4.322   8.048  0.00  0.00    -0.181 N 
ATOM     25  C   UNL     1       0.938  -4.453   7.214  0.00  0.00    +0.255 A 
ATOM     26  N   UNL     1       0.903  -5.306   6.202  0.00  0.00    -0.212 NA
ATOM     27  N   UNL     1       1.895  -3.609   7.648  0.00  0.00    -0.200 NA
ATOM     28  C   UNL     1       1.478  -2.960   8.702  0.00  0.00    +0.219 A 
ATOM     29  N   UNL     1       0.214  -3.360   9.004  0.00  0.00    -0.263 N 
BRANCH  29  30
ATOM     30  C   UNL     1      -0.617  -2.879  10.110  0.00  0.00    +0.146 C 
BRANCH  30  31
ATOM     31  C   UNL     1      -0.284  -3.669  11.378  0.00  0.00    +0.004 C 
ATOM     32  C   UNL     1      -1.060  -3.086  12.561  0.00  0.00    +0.009 C 
ATOM     33  C   UNL     1      -0.678  -5.135  11.183  0.00  0.00    +0.009 C 
ENDBRANCH  30  31
ENDBRANCH  29  30
ENDBRANCH  19  20
ENDBRANCH  18  19
ENDBRANCH   6  18
TORSDOF 7
