REMARK  Name = ZINC02968114
REMARK  9 active torsions:
REMARK  status: ('A' for Active; 'I' for Inactive)
REMARK    1  A    between atoms: C_4  and  C_7
REMARK    2  A    between atoms: C_7  and  N_8
REMARK    3  A    between atoms: C_9  and  C_11
REMARK    4  A    between atoms: C_11  and  C_12
REMARK    5  A    between atoms: C_26  and  S_27
REMARK    6  A    between atoms: S_27  and  C_28
REMARK    7  A    between atoms: C_28  and  C_29
REMARK    8  A    between atoms: N_31  and  C_32
REMARK    9  A    between atoms: C_32  and  C_33
REMARK                            x       y       z     vdW  Elec       q    Type
REMARK                         _______ _______ _______ _____ _____    ______ ____
ROOT
ATOM      1  C   UNL     1       9.273   8.059  -5.588  0.00  0.00    +0.202 C 
ATOM      2  C   UNL     1       8.331   7.487  -4.550  0.00  0.00    +0.252 C 
ATOM      3  O   UNL     1       8.445   7.543  -3.345  0.00  0.00    -0.272 OA
ATOM      4  N   UNL     1       7.334   6.901  -5.252  0.00  0.00    -0.200 N 
ATOM      5  C   UNL     1       7.553   7.045  -6.611  0.00  0.00    +0.139 C 
ATOM      6  N   UNL     1       8.650   7.701  -6.869  0.00  0.00    -0.255 NA
ATOM      7  C   UNL     1       6.551   6.457  -7.525  0.00  0.00    +0.041 A 
ATOM      8  C   UNL     1       6.685   6.551  -8.907  0.00  0.00    +0.013 A 
ATOM      9  C   UNL     1       5.726   5.987  -9.723  0.00  0.00    +0.001 A 
ATOM     10  C   UNL     1       4.633   5.331  -9.175  0.00  0.00    +0.002 A 
ATOM     11  C   UNL     1       4.483   5.229  -7.809  0.00  0.00    +0.028 A 
ATOM     12  C   UNL     1       5.442   5.791  -6.963  0.00  0.00    +0.077 A 
ATOM     13  N   UNL     1       5.330   5.705  -5.614  0.00  0.00    -0.225 NA
ATOM     14  C   UNL     1       6.213   6.229  -4.808  0.00  0.00    +0.169 C 
ENDROOT
BRANCH   1  15
ATOM     15  C   UNL     1      10.657   7.417  -5.466  0.00  0.00    +0.132 C 
BRANCH  15  17
ATOM     16  N   UNL     1      12.862   7.607  -6.571  0.00  0.00    -0.311 N 
ATOM     17  C   UNL     1      11.582   8.021  -6.492  0.00  0.00    +0.216 C 
ATOM     18  O   UNL     1      11.174   8.880  -7.245  0.00  0.00    -0.276 OA
ATOM     19  H   UNL     1      13.232   6.828  -5.888  0.00  0.00    +0.149 HD
BRANCH  16  20
ATOM     20  C   UNL     1      13.761   8.194  -7.568  0.00  0.00    +0.139 C 
BRANCH  20  24
ATOM     21  C   UNL     1      17.625   6.404  -7.230  0.00  0.00    +0.000 A 
ATOM     22  C   UNL     1      16.678   5.850  -8.071  0.00  0.00    +0.000 A 
ATOM     23  C   UNL     1      15.427   6.429  -8.181  0.00  0.00    +0.005 A 
ATOM     24  C   UNL     1      15.124   7.562  -7.449  0.00  0.00    -0.030 A 
ATOM     25  C   UNL     1      16.073   8.119  -6.612  0.00  0.00    +0.005 A 
ATOM     26  C   UNL     1      17.322   7.537  -6.499  0.00  0.00    +0.000 A 
ENDBRANCH  20  24
ENDBRANCH  16  20
ENDBRANCH  15  17
ENDBRANCH   1  15
BRANCH  14  27
ATOM     27  S   UNL     1       5.967   6.063  -3.071  0.00  0.00    -0.080 S 
BRANCH  27  28
ATOM     28  C   UNL     1       4.412   5.137  -3.061  0.00  0.00    +0.172 C 
BRANCH  28  29
ATOM     29  C   UNL     1       3.994   4.873  -1.638  0.00  0.00    +0.224 C 
ATOM     30  O   UNL     1       4.679   5.271  -0.720  0.00  0.00    -0.275 OA
ATOM     31  N   UNL     1       2.858   4.194  -1.384  0.00  0.00    -0.311 N 
ATOM     32  H   UNL     1       2.236   3.832  -2.216  0.00  0.00    +0.149 HD
BRANCH  31  33
ATOM     33  C   UNL     1       2.451   3.937  -0.001  0.00  0.00    +0.139 C 
BRANCH  33  34
ATOM     34  C   UNL     1       1.156   3.165   0.008  0.00  0.00    -0.030 A 
ATOM     35  C   UNL     1       1.175   1.783   0.000  0.00  0.00    +0.005 A 
ATOM     36  C   UNL     1      -0.013   1.076   0.008  0.00  0.00    +0.000 A 
ATOM     37  C   UNL     1      -1.219   1.751   0.017  0.00  0.00    +0.000 A 
ATOM     38  C   UNL     1      -1.238   3.133   0.030  0.00  0.00    +0.000 A 
ATOM     39  C   UNL     1      -0.050   3.840   0.023  0.00  0.00    +0.005 A 
ENDBRANCH  33  34
ENDBRANCH  31  33
ENDBRANCH  28  29
ENDBRANCH  27  28
ENDBRANCH  14  27
TORSDOF 9
