REMARK  Name = ZINC35268084
REMARK  9 active torsions:
REMARK  status: ('A' for Active; 'I' for Inactive)
REMARK    1  A    between atoms: C_1  and  C_2
REMARK    2  A    between atoms: C_2  and  C_26
REMARK    3  A    between atoms: N_5  and  N_9
REMARK    4  A    between atoms: C_10  and  C_12
REMARK    5  A    between atoms: C_12  and  N_13
REMARK    6  A    between atoms: N_16  and  C_19
REMARK    7  A    between atoms: C_24  and  O_25
REMARK    8  A    between atoms: C_26  and  C_27
REMARK    9  A    between atoms: C_27  and  C_28
REMARK                            x       y       z     vdW  Elec       q    Type
REMARK                         _______ _______ _______ _____ _____    ______ ____
ROOT
ATOM      1  N   UNL     1      -2.518  -1.955   1.783  0.00  0.00    -0.223 N 
ATOM      2  C   UNL     1      -2.586  -3.298   1.684  0.00  0.00    +0.244 C 
ATOM      3  O   UNL     1      -1.682  -3.914   1.162  0.00  0.00    -0.273 OA
ATOM      4  H   UNL     1      -3.242  -1.462   2.200  0.00  0.00    +0.174 HD
ENDROOT
BRANCH   1   9
ATOM      5  C   UNL     1      -0.019   1.526   0.010  0.00  0.00    +0.041 C 
ATOM      6  C   UNL     1       0.002  -0.004   0.002  0.00  0.00    +0.112 C 
ATOM      7  C   UNL     1      -1.403  -0.557   0.139  0.00  0.00    +0.263 C 
ATOM      8  O   UNL     1      -2.332  -0.392  -0.621  0.00  0.00    -0.271 OA
ATOM      9  N   UNL     1      -1.403  -1.272   1.282  0.00  0.00    -0.137 N 
ATOM     10  C   UNL     1      -0.206  -1.247   1.879  0.00  0.00    +0.326 C 
ATOM     11  O   UNL     1       0.040  -1.819   2.924  0.00  0.00    -0.251 OA
ATOM     12  N   UNL     1       0.695  -0.520   1.195  0.00  0.00    -0.284 N 
ATOM     13  H   UNL     1       1.621  -0.365   1.440  0.00  0.00    +0.151 HD
BRANCH   6  14
ATOM     14  C   UNL     1       0.667  -0.525  -1.274  0.00  0.00    +0.040 C 
BRANCH  14  15
ATOM     15  C   UNL     1       2.136  -0.098  -1.294  0.00  0.00    +0.038 C 
BRANCH  15  16
ATOM     16  C   UNL     1       2.791  -0.611  -2.551  0.00  0.00    -0.047 A 
ATOM     17  C   UNL     1       3.388  -1.858  -2.560  0.00  0.00    +0.003 A 
ATOM     18  C   UNL     1       3.988  -2.328  -3.712  0.00  0.00    +0.000 A 
ATOM     19  C   UNL     1       3.992  -1.552  -4.856  0.00  0.00    +0.000 A 
ATOM     20  C   UNL     1       3.394  -0.305  -4.847  0.00  0.00    +0.000 A 
ATOM     21  C   UNL     1       2.790   0.163  -3.696  0.00  0.00    +0.003 A 
ENDBRANCH  15  16
ENDBRANCH  14  15
ENDBRANCH   6  14
ENDBRANCH   1   9
BRANCH   2  22
ATOM     22  C   UNL     1      -3.787  -4.033   2.223  0.00  0.00    +0.182 C 
BRANCH  22  23
ATOM     23  N   UNL     1      -3.620  -5.475   1.996  0.00  0.00    -0.291 NA
ATOM     24  C   UNL     1      -3.627  -5.785   0.560  0.00  0.00    +0.104 C 
ATOM     25  C   UNL     1      -3.271  -7.262   0.358  0.00  0.00    +0.120 C 
ATOM     26  N   UNL     1      -4.183  -8.078   1.175  0.00  0.00    -0.325 N 
ATOM     27  C   UNL     1      -4.335  -7.738   2.598  0.00  0.00    +0.120 C 
ATOM     28  C   UNL     1      -4.648  -6.242   2.711  0.00  0.00    +0.104 C 
BRANCH  26  29
ATOM     29  C   UNL     1      -4.888  -9.148   0.613  0.00  0.00    +0.072 A 
ATOM     30  C   UNL     1      -4.335 -10.421   0.612  0.00  0.00    +0.027 A 
ATOM     31  C   UNL     1      -5.033 -11.477   0.057  0.00  0.00    +0.002 A 
ATOM     32  C   UNL     1      -6.282 -11.268  -0.498  0.00  0.00    +0.004 A 
ATOM     33  C   UNL     1      -6.840 -10.003  -0.501  0.00  0.00    +0.047 A 
ATOM     34  C   UNL     1      -6.149  -8.940   0.058  0.00  0.00    +0.138 A 
BRANCH  34  35
ATOM     35  O   UNL     1      -6.698  -7.696   0.061  0.00  0.00    -0.505 OA
ATOM     36  H   UNL     1      -6.485  -7.170  -0.722  0.00  0.00    +0.292 HD
ENDBRANCH  34  35
ENDBRANCH  26  29
ENDBRANCH  22  23
ENDBRANCH   2  22
TORSDOF 8
