REMARK  Name = ZINC17445088
REMARK  5 active torsions:
REMARK  status: ('A' for Active; 'I' for Inactive)
REMARK    1  A    between atoms: C_1  and  C_2
REMARK    2  A    between atoms: C_9  and  C_19
REMARK    3  A    between atoms: C_12  and  C_13
REMARK    4  A    between atoms: N_21  and  N_22
REMARK    5  A    between atoms: C_23  and  C_25
REMARK                            x       y       z     vdW  Elec       q    Type
REMARK                         _______ _______ _______ _____ _____    ______ ____
ROOT
ATOM      1  C   UNL     1       6.319  -4.617   0.070  0.00  0.00    +0.051 C 
ATOM      2  C   UNL     1       4.921  -4.058   0.007  0.00  0.00    +0.040 A 
ATOM      3  C   UNL     1       3.805  -4.902   0.215  0.00  0.00    +0.196 A 
ATOM      4  O   UNL     1       3.944  -6.091   0.449  0.00  0.00    -0.287 OA
ATOM      5  C   UNL     1       2.465  -4.286   0.139  0.00  0.00    +0.065 A 
ATOM      6  C   UNL     1       1.309  -5.041   0.331  0.00  0.00    +0.015 A 
ATOM      7  C   UNL     1       0.071  -4.436   0.253  0.00  0.00    +0.002 A 
ATOM      8  C   UNL     1      -0.033  -3.082  -0.010  0.00  0.00    +0.017 A 
ATOM      9  C   UNL     1       1.111  -2.310  -0.211  0.00  0.00    +0.081 A 
ATOM     10  C   UNL     1       2.376  -2.913  -0.134  0.00  0.00    +0.151 A 
ATOM     11  O   UNL     1       3.498  -2.191  -0.317  0.00  0.00    -0.454 OA
ATOM     12  C   UNL     1       4.722  -2.737  -0.251  0.00  0.00    +0.142 A 
ENDROOT
BRANCH  12  13
ATOM     13  C   UNL     1       5.898  -1.871  -0.466  0.00  0.00    +0.018 A 
ATOM     14  C   UNL     1       6.048  -0.695   0.272  0.00  0.00    +0.011 A 
ATOM     15  C   UNL     1       7.152   0.107   0.069  0.00  0.00    +0.001 A 
ATOM     16  C   UNL     1       8.104  -0.246  -0.870  0.00  0.00    +0.000 A 
ATOM     17  C   UNL     1       7.960  -1.407  -1.609  0.00  0.00    +0.001 A 
ATOM     18  C   UNL     1       6.864  -2.221  -1.413  0.00  0.00    +0.011 A 
ENDBRANCH  12  13
BRANCH   9  19
ATOM     19  C   UNL     1       0.993  -0.868  -0.496  0.00  0.00    +0.264 C 
ATOM     20  O   UNL     1       1.993  -0.197  -0.665  0.00  0.00    -0.269 OA
ATOM     21  N   UNL     1      -0.224  -0.293  -0.569  0.00  0.00    -0.230 N 
ATOM     22  H   UNL     1      -1.022  -0.828  -0.434  0.00  0.00    +0.173 HD
BRANCH  21  23
ATOM     23  N   UNL     1      -0.337   1.077  -0.840  0.00  0.00    -0.230 N 
ATOM     24  C   UNL     1      -1.554   1.651  -0.918  0.00  0.00    +0.267 C 
ATOM     25  O   UNL     1      -2.555   0.979  -0.753  0.00  0.00    -0.268 OA
ATOM     26  H   UNL     1       0.461   1.612  -0.975  0.00  0.00    +0.173 HD
BRANCH  24  27
ATOM     27  C   UNL     1      -1.672   3.084  -1.202  0.00  0.00    +0.076 A 
ATOM     28  C   UNL     1      -2.808   3.857  -1.322  0.00  0.00    +0.024 A 
ATOM     29  C   UNL     1      -2.655   5.216  -1.599  0.00  0.00    -0.036 A 
ATOM     30  C   UNL     1      -1.382   5.673  -1.730  0.00  0.00    -0.006 A 
ATOM     31  S   UNL     1      -0.383   4.287  -1.473  0.00  0.00    -0.088 S 
ATOM     32  C   UNL     1      -1.343   7.146  -2.031  0.00  0.00    +0.043 C 
ATOM     33  C   UNL     1      -2.773   7.486  -2.503  0.00  0.00    +0.010 C 
ATOM     34  C   UNL     1      -3.608   6.397  -1.802  0.00  0.00    +0.036 C 
ENDBRANCH  24  27
ENDBRANCH  21  23
ENDBRANCH   9  19
TORSDOF 4
