REMARK  Name = ZINC63085461
REMARK  9 active torsions:
REMARK  status: ('A' for Active; 'I' for Inactive)
REMARK    1  A    between atoms: C_1  and  C_2
REMARK    2  A    between atoms: C_2  and  N_3
REMARK    3  A    between atoms: C_9  and  C_11
REMARK    4  A    between atoms: C_11  and  C_13
REMARK    5  A    between atoms: C_11  and  N_14
REMARK    6  A    between atoms: N_14  and  C_15
REMARK    7  A    between atoms: C_15  and  C_16
REMARK    8  A    between atoms: C_16  and  C_18
REMARK    9  A    between atoms: C_16  and  C_24
REMARK                            x       y       z     vdW  Elec       q    Type
REMARK                         _______ _______ _______ _____ _____    ______ ____
ROOT
ATOM      1  C   UNL     1       4.633  -6.155   3.544  0.00  0.00    -0.073 C 
ENDROOT
BRANCH   1   2
ATOM      2  N   UNL     1       4.639  -4.687   3.486  0.00  0.00    +0.387 N 
ATOM      3  H   UNL     1       5.410  -4.376   2.914  0.00  0.00    -0.085 HD
ATOM      4  H   UNL     1       4.739  -4.314   4.418  0.00  0.00    -0.085 HD
BRANCH   2   5
ATOM      5  C   UNL     1       3.375  -4.215   2.904  0.00  0.00    +0.013 C 
ATOM      6  C   UNL     1       2.217  -4.580   3.835  0.00  0.00    -0.004 C 
BRANCH   5  13
ATOM      7  N   UNL     1       1.438  -0.953  -0.354  0.00  0.00    -0.300 NA
ATOM      8  C   UNL     1       2.534  -0.261   0.337  0.00  0.00    +0.103 C 
ATOM      9  C   UNL     1       2.513  -0.634   1.823  0.00  0.00    +0.123 C 
ATOM     10  N   UNL     1       2.533  -2.100   1.938  0.00  0.00    -0.300 N 
ATOM     11  C   UNL     1       1.549  -2.872   1.163  0.00  0.00    +0.123 C 
ATOM     12  C   UNL     1       1.609  -2.411  -0.297  0.00  0.00    +0.103 C 
ATOM     13  C   UNL     1       3.429  -2.720   2.731  0.00  0.00    +0.201 C 
ATOM     14  O   UNL     1       4.280  -2.073   3.305  0.00  0.00    -0.277 OA
BRANCH   7  16
ATOM     15  C   UNL     1       0.894   0.979  -1.757  0.00  0.00    +0.020 C 
ATOM     16  C   UNL     1       1.317  -0.491  -1.743  0.00  0.00    +0.081 C 
ENDBRANCH   7  16
ENDBRANCH   5  13
ENDBRANCH   2   5
ENDBRANCH   1   2
BRANCH   1  17
ATOM     17  C   UNL     1       5.998  -6.652   4.025  0.00  0.00    +0.014 C 
BRANCH  17  18
ATOM     18  C   UNL     1       7.047  -6.308   2.999  0.00  0.00    -0.039 C 
ATOM     19  C   UNL     1       8.143  -5.537   3.183  0.00  0.00    -0.001 A 
ATOM     20  C   UNL     1       8.665  -4.813   4.349  0.00  0.00    +0.010 A 
ATOM     21  C   UNL     1       9.813  -4.109   4.223  0.00  0.00    +0.001 A 
ATOM     22  C   UNL     1      10.514  -4.053   3.011  0.00  0.00    +0.002 A 
ATOM     23  C   UNL     1      10.098  -4.691   1.897  0.00  0.00    +0.026 A 
ATOM     24  C   UNL     1       8.903  -5.462   1.915  0.00  0.00    +0.043 A 
ATOM     25  N   UNL     1       8.300  -6.160   0.983  0.00  0.00    -0.380 N 
ATOM     26  C   UNL     1       7.092  -6.762   1.557  0.00  0.00    +0.145 C 
ATOM     27  H   UNL     1       8.604  -6.264   0.068  0.00  0.00    +0.160 HD
ENDBRANCH  17  18
BRANCH  17  28
ATOM     28  C   UNL     1       5.950  -8.169   4.217  0.00  0.00    +0.060 C 
ATOM     29  C   UNL     1       5.042  -8.562   5.412  0.00  0.00    +0.042 C 
ATOM     30  C   UNL     1       5.634  -9.704   6.174  0.00  0.00    -0.019 C 
ATOM     31  C   UNL     1       6.912  -9.994   6.033  0.00  0.00    +0.036 C 
ATOM     32  S   UNL     1       7.553  -8.820   4.851  0.00  0.00    -0.129 S 
ENDBRANCH  17  28
ENDBRANCH   1  17
TORSDOF 7
