REMARK  Name = ZINC09506810
REMARK  11 active torsions:
REMARK  status: ('A' for Active; 'I' for Inactive)
REMARK    1  A    between atoms: C_1  and  C_2
REMARK    2  A    between atoms: C_5  and  S_8
REMARK    3  A    between atoms: S_8  and  N_11
REMARK    4  A    between atoms: N_11  and  C_12
REMARK    5  A    between atoms: C_12  and  C_14
REMARK    6  A    between atoms: C_12  and  C_18
REMARK    7  A    between atoms: C_14  and  C_15
REMARK    8  A    between atoms: C_15  and  C_16
REMARK    9  A    between atoms: C_15  and  C_17
REMARK   10  A    between atoms: N_20  and  N_21
REMARK   11  A    between atoms: C_22  and  C_24
REMARK                            x       y       z     vdW  Elec       q    Type
REMARK                         _______ _______ _______ _____ _____    ______ ____
ROOT
ATOM      1  C   UNL     1       0.054   0.023   0.194  0.00  0.00    +0.164 C 
ENDROOT
BRANCH   1   2
ATOM      2  C   UNL     1       0.470  -0.423  -1.184  0.00  0.00    +0.248 C 
ATOM      3  O   UNL     1       1.532  -0.986  -1.344  0.00  0.00    -0.273 OA
ATOM      4  N   UNL     1      -0.337  -0.195  -2.239  0.00  0.00    -0.233 N 
ATOM      5  H   UNL     1      -1.186   0.256  -2.111  0.00  0.00    +0.173 HD
BRANCH   4   6
ATOM      6  N   UNL     1       0.050  -0.609  -3.520  0.00  0.00    -0.230 N 
ATOM      7  C   UNL     1      -0.757  -0.381  -4.575  0.00  0.00    +0.267 C 
ATOM      8  O   UNL     1      -1.823   0.185  -4.414  0.00  0.00    -0.268 OA
ATOM      9  H   UNL     1       0.899  -1.060  -3.648  0.00  0.00    +0.173 HD
BRANCH   7  10
ATOM     10  C   UNL     1      -0.352  -0.814  -5.914  0.00  0.00    +0.076 A 
ATOM     11  C   UNL     1      -1.027  -0.678  -7.118  0.00  0.00    +0.022 A 
ATOM     12  C   UNL     1      -0.414  -1.179  -8.239  0.00  0.00    +0.024 A 
ATOM     13  C   UNL     1       0.804  -1.774  -8.119  0.00  0.00    +0.056 A 
ATOM     14  S   UNL     1       1.141  -1.646  -6.423  0.00  0.00    -0.077 S 
ATOM     15 BR   UNL     1       1.873  -2.545  -9.475  0.00  0.00    -0.043 Br
ENDBRANCH   7  10
ENDBRANCH   4   6
ENDBRANCH   1   2
BRANCH   1  16
ATOM     16  N   UNL     1       1.095  -0.338   1.159  0.00  0.00    -0.178 NA
ATOM     17  H   UNL     1       1.866   0.237   1.279  0.00  0.00    +0.149 HD
BRANCH  16  18
ATOM     18  S   UNL     1       0.954  -1.729   2.047  0.00  0.00    +0.059 S 
ATOM     19  O   UNL     1       2.132  -1.829   2.836  0.00  0.00    -0.153 OA
ATOM     20  O   UNL     1      -0.347  -1.715   2.620  0.00  0.00    -0.153 OA
BRANCH  18  25
ATOM     21  C   UNL     1       1.080  -6.346  -1.835  0.00  0.00    +0.044 C 
ATOM     22  C   UNL     1       1.049  -5.193  -0.865  0.00  0.00    -0.050 A 
ATOM     23  C   UNL     1       2.226  -4.718  -0.317  0.00  0.00    +0.005 A 
ATOM     24  C   UNL     1       2.196  -3.660   0.572  0.00  0.00    +0.029 A 
ATOM     25  C   UNL     1       0.991  -3.077   0.913  0.00  0.00    +0.105 A 
ATOM     26  C   UNL     1      -0.187  -3.555   0.369  0.00  0.00    +0.029 A 
ATOM     27  C   UNL     1      -0.157  -4.610  -0.524  0.00  0.00    +0.005 A 
ENDBRANCH  18  25
ENDBRANCH  16  18
ENDBRANCH   1  16
BRANCH   1  28
ATOM     28  C   UNL     1      -0.145   1.540   0.201  0.00  0.00    +0.033 C 
BRANCH  28  29
ATOM     29  C   UNL     1      -0.648   1.982   1.577  0.00  0.00    -0.015 C 
ATOM     30  C   UNL     1      -0.708   3.510   1.631  0.00  0.00    +0.007 C 
ATOM     31  C   UNL     1      -2.046   1.408   1.817  0.00  0.00    +0.007 C 
ENDBRANCH  28  29
ENDBRANCH   1  28
TORSDOF 8
