REMARK  Name = ZINC13623832
REMARK  6 active torsions:
REMARK  status: ('A' for Active; 'I' for Inactive)
REMARK    1  A    between atoms: C_4  and  C_7
REMARK    2  A    between atoms: C_7  and  N_8
REMARK    3  A    between atoms: C_10  and  C_15
REMARK    4  A    between atoms: N_17  and  N_18
REMARK    5  A    between atoms: C_19  and  C_20
REMARK    6  A    between atoms: C_23  and  N_26
REMARK                            x       y       z     vdW  Elec       q    Type
REMARK                         _______ _______ _______ _____ _____    ______ ____
ROOT
ATOM      1  C   UNL     1      -3.525   1.650   0.028  0.00  0.00    +0.237 C 
ATOM      2  O   UNL     1      -3.541   2.863   0.034  0.00  0.00    -0.274 OA
ATOM      3  N   UNL     1      -2.349   0.992   0.019  0.00  0.00    -0.207 N 
ATOM      4  H   UNL     1      -2.336   0.022   0.013  0.00  0.00    +0.177 HD
ENDROOT
BRANCH   1   7
ATOM      5  N   UNL     1      -7.048   1.189  -0.799  0.00  0.00    -0.296 N 
ATOM      6  C   UNL     1      -6.033   1.835   0.041  0.00  0.00    +0.121 C 
ATOM      7  C   UNL     1      -4.820   0.879   0.030  0.00  0.00    +0.103 C 
ATOM      8  C   UNL     1      -5.020   0.131  -1.309  0.00  0.00    +0.110 C 
ATOM      9  C   UNL     1      -6.507   0.232  -1.571  0.00  0.00    +0.217 C 
ATOM     10  O   UNL     1      -7.120  -0.452  -2.363  0.00  0.00    -0.276 OA
BRANCH   5  11
ATOM     11  C   UNL     1      -8.470   1.542  -0.795  0.00  0.00    +0.142 C 
BRANCH  11  15
ATOM     12  C   UNL     1      -9.186   4.601  -3.690  0.00  0.00    +0.000 A 
ATOM     13  C   UNL     1      -9.279   3.271  -4.053  0.00  0.00    +0.000 A 
ATOM     14  C   UNL     1      -9.048   2.281  -3.116  0.00  0.00    +0.005 A 
ATOM     15  C   UNL     1      -8.723   2.621  -1.816  0.00  0.00    -0.030 A 
ATOM     16  C   UNL     1      -8.634   3.952  -1.452  0.00  0.00    +0.005 A 
ATOM     17  C   UNL     1      -8.861   4.942  -2.390  0.00  0.00    +0.000 A 
ENDBRANCH  11  15
ENDBRANCH   5  11
ENDBRANCH   1   7
BRANCH   3  18
ATOM     18  N   UNL     1      -1.145   1.709   0.017  0.00  0.00    -0.188 NA
ATOM     19  C   UNL     1      -0.013   1.076   0.008  0.00  0.00    +0.138 C 
BRANCH  19  20
ATOM     20  C   UNL     1       1.254   1.831  -0.000  0.00  0.00    -0.005 A 
ATOM     21  C   UNL     1       1.239   3.227   0.002  0.00  0.00    +0.012 A 
ATOM     22  C   UNL     1       2.428   3.927  -0.001  0.00  0.00    +0.033 A 
ATOM     23  C   UNL     1       3.634   3.248  -0.016  0.00  0.00    +0.126 A 
ATOM     24  C   UNL     1       3.656   1.864  -0.023  0.00  0.00    +0.033 A 
ATOM     25  C   UNL     1       2.475   1.152  -0.015  0.00  0.00    +0.012 A 
BRANCH  23  26
ATOM     26  N   UNL     1       4.906   4.005  -0.024  0.00  0.00    +0.056 N 
ATOM     27  O   UNL     1       5.969   3.411  -0.037  0.00  0.00    -0.126 OA
ATOM     28  O   UNL     1       4.889   5.223  -0.017  0.00  0.00    -0.126 OA
ENDBRANCH  23  26
ENDBRANCH  19  20
ENDBRANCH   3  18
TORSDOF 6
