REMARK  Name = ZINC06436968
REMARK  7 active torsions:
REMARK  status: ('A' for Active; 'I' for Inactive)
REMARK    1  A    between atoms: C_1  and  O_2
REMARK    2  A    between atoms: O_2  and  C_3
REMARK    3  A    between atoms: C_6  and  N_12
REMARK    4  A    between atoms: C_7  and  N_9
REMARK    5  A    between atoms: C_13  and  C_15
REMARK    6  A    between atoms: C_15  and  S_16
REMARK    7  A    between atoms: S_16  and  C_17
REMARK                            x       y       z     vdW  Elec       q    Type
REMARK                         _______ _______ _______ _____ _____    ______ ____
ROOT
ATOM      1  N   UNL     1       4.592  -4.782  -0.050  0.00  0.00    -0.283 N 
ATOM      2  C   UNL     1       4.697  -3.439  -0.041  0.00  0.00    +0.227 C 
ATOM      3  O   UNL     1       5.791  -2.916  -0.063  0.00  0.00    -0.275 OA
ATOM      4  H   UNL     1       3.721  -5.201   0.032  0.00  0.00    +0.155 HD
ENDROOT
BRANCH   1   8
ATOM      5  C   UNL     1       8.011  -7.138  -0.430  0.00  0.00    +0.122 A 
ATOM      6  C   UNL     1       8.065  -5.947   0.279  0.00  0.00    +0.047 A 
ATOM      7  C   UNL     1       6.934  -5.166   0.405  0.00  0.00    +0.029 A 
ATOM      8  C   UNL     1       5.741  -5.574  -0.178  0.00  0.00    +0.064 A 
ATOM      9  C   UNL     1       5.686  -6.768  -0.883  0.00  0.00    +0.151 A 
ATOM     10  C   UNL     1       6.820  -7.546  -1.013  0.00  0.00    +0.080 A 
BRANCH   9  11
ATOM     11  N   UNL     1       4.414  -7.206  -1.500  0.00  0.00    +0.058 N 
ATOM     12  O   UNL     1       4.340  -8.299  -2.033  0.00  0.00    -0.126 OA
ATOM     13  O   UNL     1       3.441  -6.474  -1.474  0.00  0.00    -0.126 OA
ENDBRANCH   9  11
BRANCH   5  15
ATOM     14  C   UNL     1      10.318  -7.426   0.071  0.00  0.00    +0.277 C 
ATOM     15  O   UNL     1       9.126  -7.907  -0.554  0.00  0.00    -0.495 OA
ENDBRANCH   5  15
ENDBRANCH   1   8
BRANCH   2  16
ATOM     16  C   UNL     1       3.455  -2.586  -0.004  0.00  0.00    +0.170 C 
BRANCH  16  17
ATOM     17  S   UNL     1       3.924  -0.834  -0.001  0.00  0.00    -0.116 S 
BRANCH  17  18
ATOM     18  C   UNL     1       2.383   0.020   0.043  0.00  0.00    +0.012 A 
ATOM     19  C   UNL     1       1.193  -0.697   0.065  0.00  0.00    +0.018 A 
ATOM     20  C   UNL     1      -0.018  -0.030   0.100  0.00  0.00    +0.050 A 
ATOM     21  C   UNL     1      -0.042   1.354   0.112  0.00  0.00    +0.162 A 
ATOM     22  C   UNL     1       1.145   2.073   0.090  0.00  0.00    +0.163 A 
ATOM     23  C   UNL     1       2.359   1.409   0.055  0.00  0.00    +0.064 A 
ATOM     24  O   UNL     1       1.107   3.437   0.101  0.00  0.00    -0.488 OA
ATOM     25  C   UNL     1       0.645   4.040   1.311  0.00  0.00    +0.232 C 
ATOM     26  C   UNL     1      -0.874   4.110   1.332  0.00  0.00    +0.082 C 
ATOM     27  C   UNL     1      -1.517   2.732   1.354  0.00  0.00    +0.232 C 
ATOM     28  O   UNL     1      -1.233   2.022   0.141  0.00  0.00    -0.488 OA
ENDBRANCH  17  18
ENDBRANCH  16  17
ENDBRANCH   2  16
TORSDOF 6
