REMARK  Name = ZINC15512708
REMARK  9 active torsions:
REMARK  status: ('A' for Active; 'I' for Inactive)
REMARK    1  A    between atoms: C_1  and  C_2
REMARK    2  A    between atoms: C_6  and  N_9
REMARK    3  A    between atoms: C_7  and  C_8
REMARK    4  A    between atoms: C_10  and  S_14
REMARK    5  A    between atoms: S_14  and  C_15
REMARK    6  A    between atoms: C_15  and  C_17
REMARK    7  A    between atoms: C_15  and  C_18
REMARK    8  A    between atoms: N_20  and  C_21
REMARK    9  A    between atoms: C_24  and  N_27
REMARK                            x       y       z     vdW  Elec       q    Type
REMARK                         _______ _______ _______ _____ _____    ______ ____
ROOT
ATOM      1  C   UNL     1       4.735   5.522  -0.141  0.00  0.00    +0.137 C 
ATOM      2  C   UNL     1       4.519   6.403   1.091  0.00  0.00    +0.029 C 
ENDROOT
BRANCH   1   3
ATOM      3  C   UNL     1       6.212   5.384  -0.408  0.00  0.00    +0.230 C 
ATOM      4  O   UNL     1       6.801   4.385  -0.054  0.00  0.00    -0.274 OA
ATOM      5  N   UNL     1       6.877   6.371  -1.039  0.00  0.00    -0.285 N 
ATOM      6  H   UNL     1       6.423   7.201  -1.255  0.00  0.00    +0.155 HD
BRANCH   5   7
ATOM      7  C   UNL     1       8.223   6.200  -1.383  0.00  0.00    +0.034 A 
ATOM      8  C   UNL     1       9.086   7.288  -1.381  0.00  0.00    +0.025 A 
ATOM      9  C   UNL     1      10.414   7.114  -1.716  0.00  0.00    +0.034 A 
ATOM     10  C   UNL     1      10.883   5.860  -2.062  0.00  0.00    +0.126 A 
ATOM     11  C   UNL     1      10.025   4.776  -2.070  0.00  0.00    +0.034 A 
ATOM     12  C   UNL     1       8.697   4.942  -1.731  0.00  0.00    +0.025 A 
BRANCH  10  13
ATOM     13  N   UNL     1      12.307   5.679  -2.426  0.00  0.00    +0.056 N 
ATOM     14  O   UNL     1      12.721   4.575  -2.731  0.00  0.00    -0.126 OA
ATOM     15  O   UNL     1      13.063   6.633  -2.419  0.00  0.00    -0.126 OA
ENDBRANCH  10  13
ENDBRANCH   5   7
ENDBRANCH   1   3
BRANCH   1  16
ATOM     16  S   UNL     1       4.020   3.885   0.155  0.00  0.00    -0.072 S 
BRANCH  16  18
ATOM     17  N   UNL     1       1.284   3.462   0.507  0.00  0.00    -0.187 N 
ATOM     18  C   UNL     1       2.316   4.314   0.281  0.00  0.00    +0.215 A 
ATOM     19  N   UNL     1       1.803   5.521   0.174  0.00  0.00    -0.101 NA
ATOM     20  N   UNL     1       0.527   5.482   0.317  0.00  0.00    -0.022 NA
ATOM     21  N   UNL     1       0.134   4.270   0.516  0.00  0.00    -0.038 NA
BRANCH  17  27
ATOM     22  C   UNL     1      -0.368  -1.035  -0.607  0.00  0.00    +0.044 C 
ATOM     23  C   UNL     1       0.561  -0.129   0.159  0.00  0.00    -0.046 A 
ATOM     24  C   UNL     1       1.481  -0.668   1.039  0.00  0.00    +0.004 A 
ATOM     25  C   UNL     1       2.336   0.160   1.743  0.00  0.00    +0.002 A 
ATOM     26  C   UNL     1       2.273   1.528   1.569  0.00  0.00    +0.028 A 
ATOM     27  C   UNL     1       1.350   2.073   0.686  0.00  0.00    +0.073 A 
ATOM     28  C   UNL     1       0.493   1.239  -0.020  0.00  0.00    -0.022 A 
ATOM     29  C   UNL     1      -0.505   1.825  -0.984  0.00  0.00    +0.046 C 
ENDBRANCH  17  27
ENDBRANCH  16  18
ENDBRANCH   1  16
TORSDOF 6
