REMARK  Name = ZINC14125694
REMARK  8 active torsions:
REMARK  status: ('A' for Active; 'I' for Inactive)
REMARK    1  A    between atoms: C_1  and  N_2
REMARK    2  A    between atoms: C_3  and  C_24
REMARK    3  A    between atoms: C_6  and  S_7
REMARK    4  A    between atoms: S_7  and  C_8
REMARK    5  A    between atoms: C_8  and  C_9
REMARK    6  A    between atoms: N_11  and  N_12
REMARK    7  A    between atoms: C_24  and  O_25
REMARK    8  A    between atoms: O_25  and  C_26
REMARK                            x       y       z     vdW  Elec       q    Type
REMARK                         _______ _______ _______ _____ _____    ______ ____
ROOT
ATOM      1  C   UNL     1      -0.662   4.020   0.027  0.00  0.00    +0.174 C 
ENDROOT
BRANCH   1   2
ATOM      2  C   UNL     1      -1.724   5.089   0.038  0.00  0.00    +0.240 C 
ATOM      3  O   UNL     1      -2.897   4.779   0.042  0.00  0.00    -0.273 OA
ATOM      4  N   UNL     1      -1.371   6.390   0.044  0.00  0.00    -0.223 N 
ATOM      5  H   UNL     1      -0.434   6.638   0.040  0.00  0.00    +0.174 HD
BRANCH   4   6
ATOM      6  N   UNL     1      -2.359   7.384   0.054  0.00  0.00    -0.137 N 
ATOM      7  C   UNL     1      -2.683   8.119   1.137  0.00  0.00    +0.263 C 
ATOM      8  O   UNL     1      -2.195   8.050   2.245  0.00  0.00    -0.271 OA
ATOM      9  C   UNL     1      -3.784   9.049   0.680  0.00  0.00    +0.114 C 
ATOM     10  C   UNL     1      -3.345  10.502   0.822  0.00  0.00    +0.035 C 
ATOM     11  C   UNL     1      -4.461  11.426   0.328  0.00  0.00    +0.003 C 
ATOM     12  C   UNL     1      -5.729  11.176   1.147  0.00  0.00    +0.000 C 
ATOM     13  C   UNL     1      -6.170   9.721   0.974  0.00  0.00    +0.003 C 
ATOM     14  C   UNL     1      -5.061   8.790   1.471  0.00  0.00    +0.035 C 
ATOM     15  N   UNL     1      -3.975   8.705  -0.735  0.00  0.00    -0.284 N 
ATOM     16  C   UNL     1      -3.094   7.725  -1.012  0.00  0.00    +0.326 C 
ATOM     17  O   UNL     1      -2.981   7.207  -2.105  0.00  0.00    -0.251 OA
ATOM     18  H   UNL     1      -4.609   9.107  -1.350  0.00  0.00    +0.151 HD
ENDBRANCH   4   6
ENDBRANCH   1   2
BRANCH   1  19
ATOM     19  S   UNL     1      -1.447   2.389   0.022  0.00  0.00    -0.077 S 
BRANCH  19  25
ATOM     20  C   UNL     1      -1.154  -0.904   0.008  0.00  0.00    +0.153 C 
ATOM     21  N   UNL     1       0.002  -0.004   0.002  0.00  0.00    -0.306 N 
ATOM     22  C   UNL     1       1.323  -0.356  -0.013  0.00  0.00    +0.172 A 
ATOM     23  N   UNL     1       2.019   0.745  -0.013  0.00  0.00    -0.130 NA
ATOM     24  N   UNL     1       1.233   1.763  -0.000  0.00  0.00    -0.122 NA
ATOM     25  C   UNL     1      -0.016   1.361   0.009  0.00  0.00    +0.192 A 
BRANCH  22  26
ATOM     26  C   UNL     1       1.873  -1.760  -0.025  0.00  0.00    +0.305 C 
BRANCH  26  27
ATOM     27  O   UNL     1       2.034  -2.196  -1.377  0.00  0.00    -0.484 OA
BRANCH  27  28
ATOM     28  C   UNL     1       2.524  -3.449  -1.566  0.00  0.00    +0.121 A 
ATOM     29  C   UNL     1       2.849  -4.241  -0.474  0.00  0.00    +0.047 A 
ATOM     30  C   UNL     1       3.342  -5.516  -0.668  0.00  0.00    +0.023 A 
ATOM     31  C   UNL     1       3.523  -6.001  -1.952  0.00  0.00    +0.041 A 
ATOM     32  C   UNL     1       3.204  -5.211  -3.042  0.00  0.00    +0.023 A 
ATOM     33  C   UNL     1       2.706  -3.937  -2.852  0.00  0.00    +0.047 A 
ATOM     34 CL   UNL     1       4.149  -7.602  -2.194  0.00  0.00    -0.084 Cl
ENDBRANCH  27  28
ENDBRANCH  26  27
ENDBRANCH  22  26
ENDBRANCH  19  25
ENDBRANCH   1  19
TORSDOF 7
