REMARK  Name = ZINC36506426
REMARK  9 active torsions:
REMARK  status: ('A' for Active; 'I' for Inactive)
REMARK    1  A    between atoms: C_3  and  C_8
REMARK    2  A    between atoms: C_5  and  O_7
REMARK    3  A    between atoms: C_8  and  C_10
REMARK    4  A    between atoms: C_8  and  N_19
REMARK    5  A    between atoms: N_12  and  C_13
REMARK    6  A    between atoms: N_19  and  C_20
REMARK    7  A    between atoms: C_20  and  C_21
REMARK    8  A    between atoms: C_26  and  C_28
REMARK    9  A    between atoms: C_31  and  N_34
REMARK                            x       y       z     vdW  Elec       q    Type
REMARK                         _______ _______ _______ _____ _____    ______ ____
ROOT
ATOM      1  C   UNL     1       3.393   6.717  -1.199  0.00  0.00    +0.193 C 
ENDROOT
BRANCH   1   4
ATOM      2  C   UNL     1       1.540   8.037   1.816  0.00  0.00    +0.004 A 
ATOM      3  C   UNL     1       2.088   7.170   0.888  0.00  0.00    +0.006 A 
ATOM      4  C   UNL     1       2.797   7.665  -0.190  0.00  0.00    -0.015 A 
ATOM      5  C   UNL     1       2.961   9.028  -0.343  0.00  0.00    +0.051 A 
ATOM      6  C   UNL     1       2.412   9.900   0.585  0.00  0.00    +0.117 A 
ATOM      7  C   UNL     1       1.700   9.401   1.667  0.00  0.00    +0.045 A 
BRANCH   6   8
ATOM      8  O   UNL     1       2.571  11.242   0.437  0.00  0.00    -0.507 OA
ATOM      9  H   UNL     1       1.873  11.666  -0.080  0.00  0.00    +0.292 HD
ENDBRANCH   6   8
ENDBRANCH   1   4
BRANCH   1  10
ATOM     10  C   UNL     1       2.706   6.901  -2.527  0.00  0.00    +0.238 C 
ATOM     11  O   UNL     1       1.813   6.150  -2.858  0.00  0.00    -0.273 OA
ATOM     12  N   UNL     1       3.084   7.900  -3.349  0.00  0.00    -0.311 N 
ATOM     13  H   UNL     1       3.799   8.501  -3.085  0.00  0.00    +0.149 HD
BRANCH  12  14
ATOM     14  C   UNL     1       2.417   8.079  -4.641  0.00  0.00    +0.073 C 
ATOM     15  C   UNL     1       3.072   7.171  -5.683  0.00  0.00    +0.022 C 
ATOM     16  C   UNL     1       2.375   7.357  -7.032  0.00  0.00    +0.002 C 
ATOM     17  C   UNL     1       2.502   8.816  -7.475  0.00  0.00    +0.000 C 
ATOM     18  C   UNL     1       1.847   9.725  -6.432  0.00  0.00    +0.002 C 
ATOM     19  C   UNL     1       2.544   9.538  -5.083  0.00  0.00    +0.022 C 
ENDBRANCH  12  14
ENDBRANCH   1  10
BRANCH   1  20
ATOM     20  N   UNL     1       3.209   5.338  -0.741  0.00  0.00    -0.275 N 
ATOM     21  C   UNL     1       4.282   4.573  -0.459  0.00  0.00    +0.248 C 
ATOM     22  O   UNL     1       4.137   3.393  -0.205  0.00  0.00    -0.270 OA
BRANCH  21  23
ATOM     23  C   UNL     1       5.636   5.168  -0.460  0.00  0.00    +0.037 A 
ATOM     24  C   UNL     1       5.840   6.445   0.064  0.00  0.00    +0.015 A 
ATOM     25  C   UNL     1       7.105   6.995   0.061  0.00  0.00    +0.033 A 
ATOM     26  C   UNL     1       8.170   6.283  -0.462  0.00  0.00    +0.126 A 
ATOM     27  C   UNL     1       7.975   5.017  -0.984  0.00  0.00    +0.033 A 
ATOM     28  C   UNL     1       6.715   4.453  -0.980  0.00  0.00    +0.015 A 
BRANCH  26  29
ATOM     29  N   UNL     1       9.525   6.879  -0.463  0.00  0.00    +0.056 N 
ATOM     30  O   UNL     1       9.699   7.986  -0.008  0.00  0.00    -0.126 OA
ATOM     31  O   UNL     1      10.458   6.260  -0.918  0.00  0.00    -0.126 OA
ENDBRANCH  26  29
ENDBRANCH  21  23
BRANCH  20  32
ATOM     32  C   UNL     1       1.859   4.790  -0.589  0.00  0.00    +0.183 C 
BRANCH  32  33
ATOM     33  C   UNL     1       1.723   3.547  -1.429  0.00  0.00    +0.122 A 
ATOM     34  C   UNL     1       1.915   2.285  -1.003  0.00  0.00    +0.046 A 
ATOM     35  C   UNL     1       1.685   1.439  -2.112  0.00  0.00    +0.041 A 
ATOM     36  C   UNL     1       1.366   2.234  -3.149  0.00  0.00    +0.195 A 
ATOM     37  O   UNL     1       1.385   3.509  -2.728  0.00  0.00    -0.466 OA
ENDBRANCH  32  33
ENDBRANCH  20  32
ENDBRANCH   1  20
TORSDOF 9
