REMARK  Name = ZINC63833034
REMARK  7 active torsions:
REMARK  status: ('A' for Active; 'I' for Inactive)
REMARK    1  A    between atoms: C_7  and  C_16
REMARK    2  A    between atoms: N_10  and  C_11
REMARK    3  A    between atoms: C_11  and  C_12
REMARK    4  A    between atoms: C_12  and  C_13
REMARK    5  A    between atoms: C_16  and  N_17
REMARK    6  A    between atoms: N_17  and  C_18
REMARK    7  A    between atoms: C_18  and  C_19
REMARK                            x       y       z     vdW  Elec       q    Type
REMARK                         _______ _______ _______ _____ _____    ______ ____
ROOT
ATOM      1  C   UNL     1      -0.017   1.378   0.010  0.00  0.00    +0.000 A 
ATOM      2  C   UNL     1       1.174   2.082   0.002  0.00  0.00    +0.002 A 
ATOM      3  C   UNL     1       2.377   1.411  -0.013  0.00  0.00    +0.023 A 
ATOM      4  C   UNL     1       2.405   0.014  -0.021  0.00  0.00    +0.033 A 
ATOM      5  C   UNL     1       1.206  -0.682  -0.013  0.00  0.00    -0.024 A 
ATOM      6  C   UNL     1       0.002  -0.004   0.002  0.00  0.00    +0.006 A 
ATOM      7  C   UNL     1       1.510  -2.163  -0.023  0.00  0.00    +0.021 C 
ATOM      8  C   UNL     1       3.046  -2.241  -0.038  0.00  0.00    +0.111 C 
ATOM      9  N   UNL     1       3.501  -0.849  -0.036  0.00  0.00    -0.329 N 
ENDROOT
BRANCH   9  10
ATOM     10  C   UNL     1       4.903  -0.424  -0.048  0.00  0.00    +0.114 C 
BRANCH  10  11
ATOM     11  C   UNL     1       5.406  -0.283   1.390  0.00  0.00    +0.114 C 
BRANCH  11  12
ATOM     12  C   UNL     1       6.848   0.154   1.377  0.00  0.00    +0.212 C 
ATOM     13  O   UNL     1       7.418   0.335   0.322  0.00  0.00    -0.276 OA
ATOM     14  N   UNL     1       7.505   0.343   2.539  0.00  0.00    -0.329 N 
ATOM     15  H   UNL     1       7.050   0.199   3.383  0.00  0.00    +0.145 HD
ATOM     16  H   UNL     1       8.434   0.625   2.531  0.00  0.00    +0.145 HD
ENDBRANCH  11  12
ENDBRANCH  10  11
ENDBRANCH   9  10
BRANCH   7  17
ATOM     17  C   UNL     1       0.927  -2.819  -1.276  0.00  0.00    -0.073 C 
BRANCH  17  18
ATOM     18  N   UNL     1      -0.540  -2.766  -1.220  0.00  0.00    +0.381 N 
ATOM     19  H   UNL     1      -0.863  -3.259  -0.400  0.00  0.00    -0.086 HD
ATOM     20  H   UNL     1      -0.840  -1.804  -1.173  0.00  0.00    -0.086 HD
BRANCH  18  21
ATOM     21  C   UNL     1      -1.099  -3.396  -2.423  0.00  0.00    -0.049 C 
BRANCH  21  22
ATOM     22  C   UNL     1      -2.627  -3.341  -2.363  0.00  0.00    +0.139 C 
ATOM     23  C   UNL     1      -3.231  -3.806  -3.662  0.00  0.00    -0.023 C 
ATOM     24  C   UNL     1      -3.893  -2.761  -4.137  0.00  0.00    +0.064 C 
ATOM     25  C   UNL     1      -4.654  -2.767  -5.455  0.00  0.00    +0.057 C 
ATOM     26  C   UNL     1      -3.621  -2.972  -6.571  0.00  0.00    +0.006 C 
ATOM     27  C   UNL     1      -3.238  -4.425  -6.706  0.00  0.00    +0.001 C 
ATOM     28  C   UNL     1      -2.356  -4.995  -5.621  0.00  0.00    +0.004 C 
ATOM     29  C   UNL     1      -3.148  -5.170  -4.313  0.00  0.00    +0.035 C 
ATOM     30  N   UNL     1      -3.781  -1.715  -3.285  0.00  0.00    -0.159 NA
ATOM     31  N   UNL     1      -3.099  -1.944  -2.274  0.00  0.00    -0.181 NA
ENDBRANCH  21  22
ENDBRANCH  18  21
ENDBRANCH  17  18
ENDBRANCH   7  17
TORSDOF 7
