REMARK  Name = ZINC38636549
REMARK  15 active torsions:
REMARK  status: ('A' for Active; 'I' for Inactive)
REMARK    1  A    between atoms: C_1  and  C_2
REMARK    2  A    between atoms: C_2  and  N_3
REMARK    3  A    between atoms: N_3  and  C_4
REMARK    4  A    between atoms: N_3  and  S_6
REMARK    5  A    between atoms: C_4  and  C_5
REMARK    6  A    between atoms: S_6  and  C_9
REMARK    7  A    between atoms: C_12  and  C_15
REMARK    8  A    between atoms: N_17  and  C_18
REMARK    9  A    between atoms: C_18  and  C_19
REMARK   10  A    between atoms: C_19  and  C_21
REMARK   11  A    between atoms: C_19  and  N_30
REMARK   12  A    between atoms: C_24  and  N_27
REMARK   13  A    between atoms: N_27  and  C_28
REMARK   14  A    between atoms: N_27  and  C_29
REMARK   15  A    between atoms: N_33  and  C_36
REMARK                            x       y       z     vdW  Elec       q    Type
REMARK                         _______ _______ _______ _____ _____    ______ ____
ROOT
ATOM      1  C   UNL     1       0.089   5.676  -7.620  0.00  0.00    +0.128 C 
ENDROOT
BRANCH   1   4
ATOM      2  C   UNL     1      -0.822   7.090  -5.857  0.00  0.00    +0.244 C 
ATOM      3  O   UNL     1      -1.714   6.278  -5.708  0.00  0.00    -0.270 OA
ATOM      4  N   UNL     1       0.130   6.881  -6.788  0.00  0.00    -0.310 N 
ATOM      5  H   UNL     1       0.843   7.528  -6.907  0.00  0.00    +0.149 HD
BRANCH   2   9
ATOM      6  C   UNL     1      -0.700  10.582  -3.442  0.00  0.00    +0.106 A 
ATOM      7  C   UNL     1      -1.718   9.661  -3.270  0.00  0.00    +0.029 A 
ATOM      8  C   UNL     1      -1.764   8.524  -4.051  0.00  0.00    +0.015 A 
ATOM      9  C   UNL     1      -0.779   8.305  -5.016  0.00  0.00    +0.037 A 
ATOM     10  C   UNL     1       0.245   9.239  -5.185  0.00  0.00    +0.015 A 
ATOM     11  C   UNL     1       0.275  10.373  -4.401  0.00  0.00    +0.029 A 
BRANCH   6  12
ATOM     12  S   UNL     1      -0.650  12.031  -2.440  0.00  0.00    +0.061 S 
ATOM     13  O   UNL     1       0.702  12.469  -2.427  0.00  0.00    -0.153 OA
ATOM     14  O   UNL     1      -1.363  11.726  -1.250  0.00  0.00    -0.153 OA
BRANCH  12  15
ATOM     15  N   UNL     1      -1.519  13.200  -3.227  0.00  0.00    -0.177 NA
BRANCH  15  17
ATOM     16  C   UNL     1      -3.737  12.561  -4.035  0.00  0.00    +0.022 C 
ATOM     17  C   UNL     1      -2.955  13.340  -2.975  0.00  0.00    +0.106 C 
ENDBRANCH  15  17
BRANCH  15  18
ATOM     18  C   UNL     1      -0.851  14.096  -4.175  0.00  0.00    +0.106 C 
ATOM     19  C   UNL     1      -0.452  15.389  -3.460  0.00  0.00    +0.022 C 
ENDBRANCH  15  18
ENDBRANCH  12  15
ENDBRANCH   6  12
ENDBRANCH   2   9
ENDBRANCH   1   4
BRANCH   1  20
ATOM     20  C   UNL     1       1.197   5.745  -8.673  0.00  0.00    +0.104 C 
BRANCH  20  21
ATOM     21  N   UNL     1       1.201   4.506  -9.462  0.00  0.00    -0.297 NA
ATOM     22  C   UNL     1       1.249   3.325  -8.588  0.00  0.00    +0.066 C 
ATOM     23  C   UNL     1       1.191   2.058  -9.445  0.00  0.00    -0.064 C 
ATOM     24  N   UNL     1       2.325   2.045 -10.378  0.00  0.00    +0.379 N 
ATOM     25  C   UNL     1       2.250   3.217 -11.260  0.00  0.00    -0.064 C 
ATOM     26  C   UNL     1       2.317   4.494 -10.418  0.00  0.00    +0.066 C 
ATOM     27  C   UNL     1       2.279   0.820 -11.187  0.00  0.00    -0.096 C 
ATOM     28  H   UNL     1       3.189   2.071  -9.857  0.00  0.00    -0.082 HD
ENDBRANCH  20  21
BRANCH  20  29
ATOM     29  C   UNL     1       0.953   6.920  -9.584  0.00  0.00    -0.029 A 
ATOM     30  C   UNL     1       0.028   6.819 -10.607  0.00  0.00    +0.007 A 
ATOM     31  C   UNL     1      -0.198   7.895 -11.443  0.00  0.00    +0.023 A 
ATOM     32  C   UNL     1       0.505   9.078 -11.257  0.00  0.00    +0.029 A 
ATOM     33  C   UNL     1       1.434   9.175 -10.228  0.00  0.00    +0.023 A 
ATOM     34  C   UNL     1       1.651   8.098  -9.391  0.00  0.00    +0.007 A 
BRANCH  32  35
ATOM     35  N   UNL     1       0.279  10.167 -12.101  0.00  0.00    -0.336 N 
ATOM     36  C   UNL     1      -0.608  10.025 -13.258  0.00  0.00    +0.129 C 
ATOM     37  C   UNL     1       0.930  11.452 -11.830  0.00  0.00    +0.129 C 
ENDBRANCH  32  35
ENDBRANCH  20  29
ENDBRANCH   1  20
TORSDOF 10
