REMARK  Name = ZINC46287099
REMARK  9 active torsions:
REMARK  status: ('A' for Active; 'I' for Inactive)
REMARK    1  A    between atoms: C_1  and  C_2
REMARK    2  A    between atoms: C_2  and  N_3
REMARK    3  A    between atoms: N_3  and  C_4
REMARK    4  A    between atoms: C_4  and  C_5
REMARK    5  A    between atoms: N_18  and  C_19
REMARK    6  A    between atoms: C_19  and  C_20
REMARK    7  A    between atoms: C_25  and  N_26
REMARK    8  A    between atoms: N_26  and  C_27
REMARK    9  A    between atoms: N_26  and  C_28
REMARK                            x       y       z     vdW  Elec       q    Type
REMARK                         _______ _______ _______ _____ _____    ______ ____
ROOT
ATOM      1  N   UNL     1      -1.840  -1.213   0.343  0.00  0.00    -0.282 N 
ATOM      2  C   UNL     1      -2.374  -1.189   1.580  0.00  0.00    +0.303 C 
ATOM      3  O   UNL     1      -3.545  -1.475   1.743  0.00  0.00    -0.253 OA
ATOM      4  N   UNL     1      -1.611  -0.848   2.638  0.00  0.00    -0.295 N 
ATOM      5  H   UNL     1      -0.677  -0.619   2.508  0.00  0.00    +0.151 HD
ENDROOT
BRANCH   1   7
ATOM      6  C   UNL     1      -0.302   0.635  -0.105  0.00  0.00    +0.024 C 
ATOM      7  C   UNL     1      -0.429  -0.869   0.148  0.00  0.00    +0.106 C 
ENDBRANCH   1   7
BRANCH   1   8
ATOM      8  C   UNL     1      -2.670  -1.584  -0.806  0.00  0.00    +0.157 C 
BRANCH   8   9
ATOM      9  C   UNL     1      -2.595  -3.097  -1.022  0.00  0.00    +0.228 C 
ATOM     10  C   UNL     1      -3.372  -3.478  -2.289  0.00  0.00    +0.275 C 
ATOM     11  O   UNL     1      -3.294  -4.898  -2.453  0.00  0.00    -0.485 OA
ATOM     12  C   UNL     1      -3.528  -5.655  -1.346  0.00  0.00    +0.162 A 
ATOM     13  C   UNL     1      -3.826  -7.002  -1.493  0.00  0.00    +0.049 A 
ATOM     14  C   UNL     1      -4.063  -7.784  -0.379  0.00  0.00    +0.004 A 
ATOM     15  C   UNL     1      -4.003  -7.227   0.885  0.00  0.00    +0.004 A 
ATOM     16  C   UNL     1      -3.708  -5.886   1.038  0.00  0.00    +0.049 A 
ATOM     17  C   UNL     1      -3.472  -5.095  -0.076  0.00  0.00    +0.163 A 
ATOM     18  O   UNL     1      -3.190  -3.773   0.091  0.00  0.00    -0.480 OA
ENDBRANCH   8   9
ENDBRANCH   1   8
BRANCH   4  19
ATOM     19  C   UNL     1      -2.192  -0.821   3.982  0.00  0.00    +0.144 C 
BRANCH  19  20
ATOM     20  C   UNL     1      -1.137  -0.411   4.977  0.00  0.00    +0.008 A 
ATOM     21  C   UNL     1      -0.481  -1.364   5.736  0.00  0.00    +0.010 A 
ATOM     22  C   UNL     1       0.484  -0.942   6.641  0.00  0.00    +0.018 A 
ATOM     23  C   UNL     1       0.759   0.406   6.755  0.00  0.00    +0.084 A 
ATOM     24  N   UNL     1       0.118   1.293   6.019  0.00  0.00    -0.349 N 
ATOM     25  C   UNL     1      -0.804   0.929   5.141  0.00  0.00    +0.103 A 
ATOM     26  H   UNL     1       0.330   2.234   6.119  0.00  0.00    +0.167 HD
BRANCH  25  27
ATOM     27  N   UNL     1      -1.451   1.897   4.380  0.00  0.00    -0.323 N 
ATOM     28  C   UNL     1      -2.743   2.430   4.819  0.00  0.00    +0.130 C 
ATOM     29  C   UNL     1      -0.841   2.383   3.140  0.00  0.00    +0.130 C 
ENDBRANCH  25  27
ENDBRANCH  19  20
ENDBRANCH   4  19
TORSDOF 6
