REMARK  Name = ZINC44657331
REMARK  10 active torsions:
REMARK  status: ('A' for Active; 'I' for Inactive)
REMARK    1  A    between atoms: C_1  and  C_2
REMARK    2  A    between atoms: C_2  and  C_4
REMARK    3  A    between atoms: C_2  and  O_15
REMARK    4  A    between atoms: C_4  and  C_6
REMARK    5  A    between atoms: O_15  and  C_16
REMARK    6  A    between atoms: C_16  and  C_18
REMARK    7  A    between atoms: C_21  and  S_24
REMARK    8  A    between atoms: S_24  and  N_27
REMARK    9  A    between atoms: N_27  and  C_28
REMARK   10  A    between atoms: C_28  and  C_29
REMARK                            x       y       z     vdW  Elec       q    Type
REMARK                         _______ _______ _______ _____ _____    ______ ____
ROOT
ATOM      1  C   UNL     1      -0.088  -0.673  -2.267  0.00  0.00    +0.340 C 
ATOM      2  O   UNL     1      -1.284  -0.469  -2.224  0.00  0.00    -0.245 OA
ENDROOT
BRANCH   1   3
ATOM      3  C   UNL     1       0.535  -1.149  -3.519  0.00  0.00    +0.059 A 
ATOM      4  C   UNL     1       1.910  -1.391  -3.571  0.00  0.00    +0.017 A 
ATOM      5  C   UNL     1       2.485  -1.835  -4.743  0.00  0.00    +0.029 A 
ATOM      6  C   UNL     1       1.704  -2.043  -5.866  0.00  0.00    +0.105 A 
ATOM      7  C   UNL     1       0.341  -1.805  -5.822  0.00  0.00    +0.029 A 
ATOM      8  C   UNL     1      -0.248  -1.366  -4.654  0.00  0.00    +0.017 A 
BRANCH   6   9
ATOM      9  S   UNL     1       2.447  -2.611  -7.359  0.00  0.00    +0.059 S 
ATOM     10  O   UNL     1       1.591  -2.205  -8.418  0.00  0.00    -0.153 OA
ATOM     11  O   UNL     1       3.816  -2.236  -7.299  0.00  0.00    -0.153 OA
BRANCH   9  12
ATOM     12  N   UNL     1       2.408  -4.266  -7.326  0.00  0.00    -0.183 NA
ATOM     13  H   UNL     1       3.236  -4.770  -7.291  0.00  0.00    +0.148 HD
BRANCH  12  14
ATOM     14  C   UNL     1       1.123  -4.969  -7.349  0.00  0.00    +0.180 C 
BRANCH  14  15
ATOM     15  C   UNL     1       1.350  -6.421  -7.681  0.00  0.00    +0.120 A 
ATOM     16  C   UNL     1       1.568  -7.407  -6.792  0.00  0.00    +0.046 A 
ATOM     17  C   UNL     1       1.728  -8.600  -7.533  0.00  0.00    +0.041 A 
ATOM     18  C   UNL     1       1.599  -8.272  -8.831  0.00  0.00    +0.195 A 
ATOM     19  O   UNL     1       1.364  -6.952  -8.915  0.00  0.00    -0.466 OA
ENDBRANCH  14  15
ENDBRANCH  12  14
ENDBRANCH   9  12
ENDBRANCH   6   9
ENDBRANCH   1   3
BRANCH   1  20
ATOM     20  O   UNL     1       0.671  -0.465  -1.174  0.00  0.00    -0.450 OA
BRANCH  20  22
ATOM     21  C   UNL     1      -0.019   1.526   0.010  0.00  0.00    +0.061 C 
ATOM     22  C   UNL     1       0.002  -0.004   0.002  0.00  0.00    +0.244 C 
BRANCH  22  23
ATOM     23  C   UNL     1       0.731  -0.503   1.223  0.00  0.00    +0.202 C 
ATOM     24  O   UNL     1       1.888  -0.862   1.135  0.00  0.00    -0.288 OA
BRANCH  23  25
ATOM     25  C   UNL     1       0.069  -0.554   2.468  0.00  0.00    +0.027 C 
ATOM     26  C   UNL     1       0.592  -0.978   3.677  0.00  0.00    +0.006 A 
ATOM     27  C   UNL     1       1.864  -1.467   4.056  0.00  0.00    +0.010 A 
ATOM     28  C   UNL     1       2.104  -1.816   5.340  0.00  0.00    +0.001 A 
ATOM     29  C   UNL     1       1.128  -1.714   6.344  0.00  0.00    +0.002 A 
ATOM     30  C   UNL     1      -0.117  -1.260   6.087  0.00  0.00    +0.026 A 
ATOM     31  C   UNL     1      -0.463  -0.858   4.713  0.00  0.00    +0.043 A 
ATOM     32  N   UNL     1      -1.563  -0.395   4.194  0.00  0.00    -0.380 N 
ATOM     33  C   UNL     1      -1.359  -0.151   2.762  0.00  0.00    +0.152 C 
ATOM     34  H   UNL     1      -2.388  -0.232   4.678  0.00  0.00    +0.160 HD
ENDBRANCH  23  25
ENDBRANCH  22  23
ENDBRANCH  20  22
ENDBRANCH   1  20
TORSDOF 9
