REMARK  Name = ZINC39991017
REMARK  7 active torsions:
REMARK  status: ('A' for Active; 'I' for Inactive)
REMARK    1  A    between atoms: C_1  and  C_2
REMARK    2  A    between atoms: C_5  and  S_8
REMARK    3  A    between atoms: S_8  and  N_11
REMARK    4  A    between atoms: N_15  and  C_18
REMARK    5  A    between atoms: C_18  and  C_20
REMARK    6  A    between atoms: C_18  and  C_21
REMARK    7  A    between atoms: C_21  and  C_23
REMARK                            x       y       z     vdW  Elec       q    Type
REMARK                         _______ _______ _______ _____ _____    ______ ____
ROOT
ATOM      1  N   UNL     1       2.358  -5.554  -0.265  0.00  0.00    -0.178 NA
ATOM      2  C   UNL     1       3.126  -5.552  -1.527  0.00  0.00    +0.107 C 
ATOM      3  C   UNL     1       4.398  -4.693  -1.399  0.00  0.00    -0.001 C 
ATOM      4  C   UNL     1       4.085  -3.446  -0.603  0.00  0.00    -0.076 C 
ATOM      5  N   UNL     1       4.394  -3.683   0.806  0.00  0.00    +0.387 N 
ATOM      6  C   UNL     1       3.340  -4.245   1.560  0.00  0.00    -0.061 C 
ATOM      7  C   UNL     1       2.997  -5.652   1.031  0.00  0.00    +0.091 C 
ATOM      8  H   UNL     1       5.188  -4.304   0.857  0.00  0.00    -0.081 HD
ENDROOT
BRANCH   1   9
ATOM      9  S   UNL     1       0.708  -5.434  -0.335  0.00  0.00    +0.061 S 
ATOM     10  O   UNL     1       0.208  -6.000   0.869  0.00  0.00    -0.153 OA
ATOM     11  O   UNL     1       0.320  -5.908  -1.617  0.00  0.00    -0.153 OA
BRANCH   9  16
ATOM     12  C   UNL     1      -0.665   0.439  -0.179  0.00  0.00    +0.044 C 
ATOM     13  C   UNL     1      -0.322  -1.028  -0.218  0.00  0.00    -0.050 A 
ATOM     14  C   UNL     1      -0.110  -1.656  -1.431  0.00  0.00    +0.005 A 
ATOM     15  C   UNL     1       0.205  -3.002  -1.467  0.00  0.00    +0.029 A 
ATOM     16  C   UNL     1       0.308  -3.719  -0.289  0.00  0.00    +0.105 A 
ATOM     17  C   UNL     1       0.097  -3.090   0.923  0.00  0.00    +0.029 A 
ATOM     18  C   UNL     1      -0.213  -1.744   0.959  0.00  0.00    +0.005 A 
ENDBRANCH   9  16
ENDBRANCH   1   9
BRANCH   5  19
ATOM     19  C   UNL     1       4.772  -2.404   1.419  0.00  0.00    +0.001 C 
ATOM     20  C   UNL     1       5.019  -2.608   2.915  0.00  0.00    -0.005 C 
BRANCH  19  21
ATOM     21  C   UNL     1       6.029  -1.886   0.769  0.00  0.00    +0.148 C 
ATOM     22  O   UNL     1       6.707  -2.626   0.086  0.00  0.00    -0.294 OA
BRANCH  21  23
ATOM     23  C   UNL     1       6.417  -0.542   0.953  0.00  0.00    +0.021 C 
ATOM     24  C   UNL     1       7.530   0.087   0.426  0.00  0.00    +0.006 A 
ATOM     25  C   UNL     1       8.581  -0.358  -0.411  0.00  0.00    +0.010 A 
ATOM     26  C   UNL     1       9.565   0.492  -0.781  0.00  0.00    +0.001 A 
ATOM     27  C   UNL     1       9.598   1.833  -0.364  0.00  0.00    +0.002 A 
ATOM     28  C   UNL     1       8.644   2.357   0.436  0.00  0.00    +0.026 A 
ATOM     29  C   UNL     1       7.535   1.498   0.884  0.00  0.00    +0.043 A 
ATOM     30  N   UNL     1       6.503   1.735   1.642  0.00  0.00    -0.380 N 
ATOM     31  C   UNL     1       5.699   0.514   1.764  0.00  0.00    +0.152 C 
ATOM     32  H   UNL     1       6.295   2.587   2.057  0.00  0.00    +0.160 HD
ENDBRANCH  21  23
ENDBRANCH  19  21
ENDBRANCH   5  19
TORSDOF 5
