REMARK  Name = ZINC12481928
REMARK  12 active torsions:
REMARK  status: ('A' for Active; 'I' for Inactive)
REMARK    1  A    between atoms: C_1  and  C_2
REMARK    2  A    between atoms: C_2  and  C_3
REMARK    3  A    between atoms: C_2  and  C_4
REMARK    4  A    between atoms: C_7  and  C_10
REMARK    5  A    between atoms: C_10  and  C_12
REMARK    6  A    between atoms: C_10  and  N_22
REMARK    7  A    between atoms: N_14  and  C_15
REMARK    8  A    between atoms: C_15  and  C_16
REMARK    9  A    between atoms: N_22  and  C_23
REMARK   10  A    between atoms: C_23  and  C_24
REMARK   11  A    between atoms: C_30  and  C_32
REMARK   12  A    between atoms: C_32  and  N_33
REMARK                            x       y       z     vdW  Elec       q    Type
REMARK                         _______ _______ _______ _____ _____    ______ ____
ROOT
ATOM      1  C   UNL     1       0.019  -0.018  -5.130  0.00  0.00    +0.192 C 
ENDROOT
BRANCH   1   5
ATOM      2  C   UNL     1      -2.429  -3.349  -4.057  0.00  0.00    -0.045 A 
ATOM      3  C   UNL     1      -1.065  -3.515  -4.211  0.00  0.00    +0.004 A 
ATOM      4  C   UNL     1      -0.273  -2.437  -4.558  0.00  0.00    +0.006 A 
ATOM      5  C   UNL     1      -0.844  -1.193  -4.752  0.00  0.00    -0.018 A 
ATOM      6  C   UNL     1      -2.207  -1.026  -4.593  0.00  0.00    +0.006 A 
ATOM      7  C   UNL     1      -3.001  -2.106  -4.251  0.00  0.00    +0.004 A 
BRANCH   2   9
ATOM      8  C   UNL     1      -4.000  -4.233  -2.354  0.00  0.00    +0.012 C 
ATOM      9  C   UNL     1      -3.293  -4.525  -3.679  0.00  0.00    +0.013 C 
ATOM     10  C   UNL     1      -4.337  -4.763  -4.773  0.00  0.00    +0.012 C 
ENDBRANCH   2   9
ENDBRANCH   1   5
BRANCH   1  11
ATOM     11  C   UNL     1      -0.291   1.146  -4.225  0.00  0.00    +0.238 C 
ATOM     12  O   UNL     1      -1.245   1.857  -4.457  0.00  0.00    -0.273 OA
ATOM     13  N   UNL     1       0.492   1.396  -3.157  0.00  0.00    -0.311 N 
ATOM     14  H   UNL     1       1.255   0.827  -2.971  0.00  0.00    +0.149 HD
BRANCH  13  15
ATOM     15  C   UNL     1       0.190   2.528  -2.276  0.00  0.00    +0.135 C 
BRANCH  15  16
ATOM     16  C   UNL     1       1.224   2.588  -1.150  0.00  0.00    +0.135 C 
ATOM     17  C   UNL     1       0.848   3.702  -0.150  0.00  0.00    +0.035 C 
ATOM     18  C   UNL     1       2.233   4.309   0.203  0.00  0.00    +0.031 C 
ATOM     19  C   UNL     1       2.975   4.154  -1.148  0.00  0.00    +0.160 C 
ATOM     20  O   UNL     1       2.512   2.907  -1.690  0.00  0.00    -0.375 OA
ENDBRANCH  15  16
ENDBRANCH  13  15
ENDBRANCH   1  11
BRANCH   1  21
ATOM     21  N   UNL     1      -0.250   0.359  -6.520  0.00  0.00    -0.282 N 
ATOM     22  C   UNL     1       0.678   0.135  -7.471  0.00  0.00    +0.238 C 
ATOM     23  O   UNL     1       1.736  -0.379  -7.177  0.00  0.00    -0.274 OA
BRANCH  21  24
ATOM     24  C   UNL     1      -1.529   0.980  -6.876  0.00  0.00    +0.140 C 
BRANCH  24  25
ATOM     25  C   UNL     1      -1.281   2.400  -7.387  0.00  0.00    +0.136 C 
ATOM     26  C   UNL     1      -2.598   3.006  -7.910  0.00  0.00    +0.035 C 
ATOM     27  C   UNL     1      -2.796   4.280  -7.055  0.00  0.00    +0.031 C 
ATOM     28  C   UNL     1      -1.359   4.556  -6.545  0.00  0.00    +0.160 C 
ATOM     29  O   UNL     1      -0.822   3.234  -6.310  0.00  0.00    -0.375 OA
ENDBRANCH  24  25
ENDBRANCH  21  24
BRANCH  22  30
ATOM     30  C   UNL     1       0.400   0.522  -8.901  0.00  0.00    +0.241 C 
BRANCH  30  31
ATOM     31  N   UNL     1       1.555   0.178  -9.734  0.00  0.00    -0.235 N 
ATOM     32  C   UNL     1       2.633   0.982 -10.019  0.00  0.00    +0.090 A 
ATOM     33  C   UNL     1       2.992   2.278  -9.666  0.00  0.00    +0.029 A 
ATOM     34  C   UNL     1       4.164   2.808 -10.127  0.00  0.00    +0.002 A 
ATOM     35  C   UNL     1       5.002   2.063 -10.947  0.00  0.00    +0.002 A 
ATOM     36  C   UNL     1       4.677   0.787 -11.301  0.00  0.00    +0.032 A 
ATOM     37  C   UNL     1       3.478   0.222 -10.846  0.00  0.00    +0.113 A 
ATOM     38  N   UNL     1       2.894  -0.979 -11.034  0.00  0.00    -0.129 NA
ATOM     39  N   UNL     1       1.776  -1.036 -10.401  0.00  0.00    -0.064 NA
ENDBRANCH  30  31
ENDBRANCH  22  30
ENDBRANCH   1  21
TORSDOF 10
