REMARK  Name = ZINC39461999
REMARK  9 active torsions:
REMARK  status: ('A' for Active; 'I' for Inactive)
REMARK    1  A    between atoms: C_1  and  C_2
REMARK    2  A    between atoms: C_2  and  C_4
REMARK    3  A    between atoms: C_2  and  S_17
REMARK    4  A    between atoms: S_17  and  C_18
REMARK    5  A    between atoms: C_21  and  C_29
REMARK    6  A    between atoms: N_22  and  C_23
REMARK    7  A    between atoms: C_23  and  C_24
REMARK    8  A    between atoms: C_29  and  C_30
REMARK    9  A    between atoms: C_29  and  C_31
REMARK                            x       y       z     vdW  Elec       q    Type
REMARK                         _______ _______ _______ _____ _____    ______ ____
ROOT
ATOM      1  C   UNL     1      -0.117   1.593  -0.312  0.00  0.00    +0.029 C 
ATOM      2  C   UNL     1      -0.150   0.064  -0.337  0.00  0.00    +0.137 C 
ENDROOT
BRANCH   2   3
ATOM      3  C   UNL     1       0.728  -0.439  -1.453  0.00  0.00    +0.230 C 
ATOM      4  O   UNL     1       0.245  -0.699  -2.535  0.00  0.00    -0.274 OA
ATOM      5  N   UNL     1       2.051  -0.601  -1.250  0.00  0.00    -0.285 N 
ATOM      6  C   UNL     1       2.614  -1.772  -1.472  0.00  0.00    +0.036 C 
ATOM      7  C   UNL     1       1.784  -2.932  -1.821  0.00  0.00    +0.025 C 
ATOM      8  C   UNL     1       2.353  -4.131  -2.049  0.00  0.00    +0.032 C 
ATOM      9  C   UNL     1       3.807  -4.287  -1.951  0.00  0.00    +0.095 C 
ATOM     10  N   UNL     1       4.637  -5.299  -2.111  0.00  0.00    -0.190 NA
ATOM     11  C   UNL     1       5.895  -4.880  -1.895  0.00  0.00    +0.369 C 
ATOM     12  O   UNL     1       6.989  -5.674  -1.980  0.00  0.00    -0.243 OA
ATOM     13  N   UNL     1       5.931  -3.603  -1.593  0.00  0.00    -0.190 NA
ATOM     14  C   UNL     1       4.652  -3.128  -1.601  0.00  0.00    +0.097 C 
ATOM     15  C   UNL     1       4.083  -1.917  -1.375  0.00  0.00    +0.053 C 
ATOM     16  H   UNL     1       2.588   0.145  -0.940  0.00  0.00    +0.155 HD
ENDBRANCH   2   3
BRANCH   2  17
ATOM     17  S   UNL     1      -1.853  -0.499  -0.607  0.00  0.00    -0.074 S 
BRANCH  17  18
ATOM     18  C   UNL     1      -2.713   0.036   0.835  0.00  0.00    +0.193 A 
ATOM     19  N   UNL     1      -2.202   0.695   1.849  0.00  0.00    -0.122 NA
ATOM     20  N   UNL     1      -3.113   0.921   2.727  0.00  0.00    -0.133 NA
ATOM     21  C   UNL     1      -4.250   0.424   2.329  0.00  0.00    +0.137 A 
ATOM     22  N   UNL     1      -4.038  -0.152   1.107  0.00  0.00    -0.298 N 
BRANCH  21  23
ATOM     23  C   UNL     1      -5.559   0.481   3.074  0.00  0.00    +0.051 C 
ATOM     24  C   UNL     1      -5.406  -0.219   4.426  0.00  0.00    +0.015 C 
ATOM     25  C   UNL     1      -5.956   1.941   3.298  0.00  0.00    +0.015 C 
ENDBRANCH  21  23
BRANCH  22  26
ATOM     26  C   UNL     1      -5.025  -0.834   0.267  0.00  0.00    +0.199 C 
BRANCH  26  27
ATOM     27  C   UNL     1      -5.059  -2.299   0.617  0.00  0.00    +0.125 A 
ATOM     28  C   UNL     1      -5.851  -2.868   1.544  0.00  0.00    +0.046 A 
ATOM     29  C   UNL     1      -5.554  -4.250   1.542  0.00  0.00    +0.041 A 
ATOM     30  C   UNL     1      -4.599  -4.443   0.615  0.00  0.00    +0.195 A 
ATOM     31  O   UNL     1      -4.306  -3.258   0.054  0.00  0.00    -0.466 OA
ENDBRANCH  26  27
ENDBRANCH  22  26
ENDBRANCH  17  18
ENDBRANCH   2  17
TORSDOF 6
