REMARK  Name = ZINC32667651
REMARK  13 active torsions:
REMARK  status: ('A' for Active; 'I' for Inactive)
REMARK    1  A    between atoms: C_1  and  C_2
REMARK    2  A    between atoms: C_9  and  C_11
REMARK    3  A    between atoms: C_11  and  O_13
REMARK    4  A    between atoms: O_13  and  C_14
REMARK    5  A    between atoms: C_14  and  C_15
REMARK    6  A    between atoms: N_17  and  C_18
REMARK    7  A    between atoms: N_17  and  C_22
REMARK    8  A    between atoms: C_18  and  C_19
REMARK    9  A    between atoms: C_19  and  O_20
REMARK   10  A    between atoms: O_20  and  C_21
REMARK   11  A    between atoms: C_23  and  N_38
REMARK   12  A    between atoms: N_24  and  C_31
REMARK   13  A    between atoms: C_31  and  C_32
REMARK                            x       y       z     vdW  Elec       q    Type
REMARK                         _______ _______ _______ _____ _____    ______ ____
ROOT
ATOM      1  C   UNL     1      -4.790  -0.626  -0.134  0.00  0.00    +0.258 C 
ATOM      2  O   UNL     1      -4.925   0.563  -0.334  0.00  0.00    -0.272 OA
ATOM      3  N   UNL     1      -5.876  -1.413   0.015  0.00  0.00    -0.259 N 
ENDROOT
BRANCH   3   4
ATOM      4  C   UNL     1      -7.165  -0.840   0.036  0.00  0.00    +0.140 A 
ATOM      5  C   UNL     1      -7.523   0.046   1.032  0.00  0.00    +0.128 A 
ATOM      6  N   UNL     1      -8.786   0.592   1.023  0.00  0.00    -0.276 N 
ATOM      7  C   UNL     1      -9.665   0.258   0.061  0.00  0.00    +0.331 A 
ATOM      8  O   UNL     1     -10.778   0.748   0.074  0.00  0.00    -0.246 OA
ATOM      9  N   UNL     1      -9.335  -0.607  -0.914  0.00  0.00    -0.273 N 
ATOM     10  H   UNL     1     -10.069  -0.865  -1.692  0.00  0.00    +0.173 HD
ATOM     11  C   UNL     1      -8.110  -1.166  -0.955  0.00  0.00    +0.277 A 
ATOM     12  O   UNL     1      -7.821  -1.949  -1.843  0.00  0.00    -0.266 OA
BRANCH   5  13
ATOM     13  N   UNL     1      -6.627   0.383   2.018  0.00  0.00    -0.343 N 
ATOM     14  H   UNL     1      -6.919   1.090   2.809  0.00  0.00    +0.144 HD
ATOM     15  H   UNL     1      -5.618  -0.055   2.017  0.00  0.00    +0.144 HD
ENDBRANCH   5  13
BRANCH   6  16
ATOM     16  C   UNL     1      -9.178   1.537   2.072  0.00  0.00    +0.163 C 
BRANCH  16  17
ATOM     17  C   UNL     1      -9.777   0.782   3.230  0.00  0.00    -0.028 A 
ATOM     18  C   UNL     1     -11.138   0.541   3.268  0.00  0.00    +0.005 A 
ATOM     19  C   UNL     1     -11.687  -0.155   4.328  0.00  0.00    +0.000 A 
ATOM     20  C   UNL     1     -10.877  -0.602   5.356  0.00  0.00    +0.000 A 
ATOM     21  C   UNL     1      -9.517  -0.356   5.320  0.00  0.00    +0.000 A 
ATOM     22  C   UNL     1      -8.967   0.336   4.257  0.00  0.00    +0.005 A 
ENDBRANCH  16  17
ENDBRANCH   6  16
ENDBRANCH   3   4
BRANCH   1  23
ATOM     23  C   UNL     1      -3.409  -1.224  -0.052  0.00  0.00    +0.328 C 
BRANCH  23  24
ATOM     24  O   UNL     1      -2.418  -0.180  -0.243  0.00  0.00    -0.451 OA
BRANCH  24  25
ATOM     25  C   UNL     1      -1.122  -0.552  -0.199  0.00  0.00    +0.346 C 
ATOM     26  O   UNL     1      -0.829  -1.716  -0.005  0.00  0.00    -0.244 OA
BRANCH  25  34
ATOM     27  C   UNL     1       5.694   2.613  -1.142  0.00  0.00    +0.008 C 
ATOM     28  C   UNL     1       4.171   2.579  -1.277  0.00  0.00    -0.009 C 
ATOM     29  C   UNL     1       3.575   3.831  -0.628  0.00  0.00    +0.009 C 
ATOM     30  C   UNL     1       2.088   3.922  -1.004  0.00  0.00    +0.043 C 
ATOM     31  C   UNL     1       1.460   2.583  -0.768  0.00  0.00    -0.006 A 
ATOM     32  C   UNL     1       2.103   1.393  -0.576  0.00  0.00    -0.036 A 
ATOM     33  C   UNL     1       1.306   0.279  -0.375  0.00  0.00    +0.026 A 
ATOM     34  C   UNL     1      -0.067   0.447  -0.384  0.00  0.00    +0.097 A 
ATOM     35  S   UNL     1      -0.218   2.201  -0.680  0.00  0.00    -0.086 S 
ATOM     36  C   UNL     1       3.628   1.326  -0.588  0.00  0.00    +0.039 C 
ENDBRANCH  25  34
ENDBRANCH  24  25
ENDBRANCH  23  24
ENDBRANCH   1  23
BRANCH   3  37
ATOM     37  C   UNL     1      -5.716  -2.862   0.155  0.00  0.00    +0.142 C 
BRANCH  37  38
ATOM     38  C   UNL     1      -5.553  -3.217   1.635  0.00  0.00    +0.178 C 
BRANCH  38  39
ATOM     39  O   UNL     1      -6.756  -2.899   2.337  0.00  0.00    -0.381 OA
ATOM     40  C   UNL     1      -6.708  -3.193   3.734  0.00  0.00    +0.194 C 
ENDBRANCH  38  39
ENDBRANCH  37  38
ENDBRANCH   3  37
TORSDOF 11
