REMARK  Name = ZINC27228482
REMARK  9 active torsions:
REMARK  status: ('A' for Active; 'I' for Inactive)
REMARK    1  A    between atoms: C_1  and  C_2
REMARK    2  A    between atoms: C_2  and  O_3
REMARK    3  A    between atoms: O_3  and  C_4
REMARK    4  A    between atoms: C_4  and  C_6
REMARK    5  A    between atoms: C_9  and  N_12
REMARK    6  A    between atoms: N_12  and  C_13
REMARK    7  A    between atoms: N_17  and  C_21
REMARK    8  A    between atoms: C_21  and  C_22
REMARK    9  A    between atoms: C_25  and  C_28
REMARK                            x       y       z     vdW  Elec       q    Type
REMARK                         _______ _______ _______ _____ _____    ______ ____
ROOT
ATOM      1  C   UNL     1       5.261  -0.264  -3.572  0.00  0.00    +0.225 C 
ATOM      2  C   UNL     1       4.822   0.467  -2.311  0.00  0.00    +0.254 C 
ATOM      3  O   UNL     1       5.184   1.595  -2.057  0.00  0.00    -0.272 OA
ATOM      4  N   UNL     1       4.018  -0.214  -1.512  0.00  0.00    -0.226 N 
ATOM      5  C   UNL     1       3.606  -1.470  -1.771  0.00  0.00    +0.283 C 
ATOM      6  O   UNL     1       2.877  -2.173  -1.100  0.00  0.00    -0.262 OA
ATOM      7  S   UNL     1       4.381  -1.859  -3.333  0.00  0.00    -0.035 S 
ENDROOT
BRANCH   1   8
ATOM      8  N   UNL     1       6.713  -0.456  -3.599  0.00  0.00    -0.325 N 
ATOM      9  H   UNL     1       7.373   0.275  -3.108  0.00  0.00    +0.148 HD
BRANCH   8  13
ATOM     10  C   UNL     1       8.339  -3.760  -5.527  0.00  0.00    +0.059 A 
ATOM     11  C   UNL     1       7.122  -3.223  -5.961  0.00  0.00    +0.017 A 
ATOM     12  C   UNL     1       6.589  -2.133  -5.323  0.00  0.00    +0.024 A 
ATOM     13  C   UNL     1       7.257  -1.560  -4.244  0.00  0.00    +0.028 A 
ATOM     14  C   UNL     1       8.471  -2.088  -3.812  0.00  0.00    +0.024 A 
ATOM     15  C   UNL     1       9.007  -3.182  -4.443  0.00  0.00    +0.017 A 
BRANCH  10  16
ATOM     16  C   UNL     1       8.915  -4.932  -6.210  0.00  0.00    +0.339 C 
ATOM     17  O   UNL     1       8.333  -5.433  -7.151  0.00  0.00    -0.245 OA
BRANCH  16  18
ATOM     18  O   UNL     1      10.087  -5.447  -5.790  0.00  0.00    -0.461 OA
BRANCH  18  20
ATOM     19  C   UNL     1      11.925  -7.042  -5.895  0.00  0.00    +0.048 C 
ATOM     20  C   UNL     1      10.595  -6.601  -6.510  0.00  0.00    +0.229 C 
ENDBRANCH  18  20
ENDBRANCH  16  18
ENDBRANCH  10  16
ENDBRANCH   8  13
ENDBRANCH   1   8
BRANCH   4  21
ATOM     21  C   UNL     1       3.556   0.428  -0.279  0.00  0.00    +0.152 C 
BRANCH  21  22
ATOM     22  C   UNL     1       2.270   1.167  -0.549  0.00  0.00    -0.030 A 
ATOM     23  C   UNL     1       1.058   0.519  -0.392  0.00  0.00    +0.006 A 
ATOM     24  C   UNL     1      -0.123   1.189  -0.637  0.00  0.00    +0.015 A 
ATOM     25  C   UNL     1      -0.092   2.525  -1.043  0.00  0.00    +0.063 A 
ATOM     26  C   UNL     1       1.135   3.172  -1.199  0.00  0.00    +0.015 A 
ATOM     27  C   UNL     1       2.308   2.490  -0.951  0.00  0.00    +0.006 A 
BRANCH  25  28
ATOM     28  C   UNL     1      -1.352   3.247  -1.313  0.00  0.00    +0.387 C 
ATOM     29  O   UNL     1      -2.418   2.679  -1.182  0.00  0.00    -0.241 OA
ATOM     30  O   UNL     1      -1.319   4.535  -1.704  0.00  0.00    -0.241 OA
ENDBRANCH  25  28
ENDBRANCH  21  22
ENDBRANCH   4  21
TORSDOF 8
