REMARK  Name = ZINC20327885
REMARK  7 active torsions:
REMARK  status: ('A' for Active; 'I' for Inactive)
REMARK    1  A    between atoms: C_1  and  C_2
REMARK    2  A    between atoms: C_2  and  C_3
REMARK    3  A    between atoms: C_3  and  C_4
REMARK    4  A    between atoms: C_4  and  S_5
REMARK    5  A    between atoms: S_5  and  C_6
REMARK    6  A    between atoms: C_11  and  C_21
REMARK    7  A    between atoms: C_26  and  N_27
REMARK                            x       y       z     vdW  Elec       q    Type
REMARK                         _______ _______ _______ _____ _____    ______ ____
ROOT
ATOM      1  C   UNL     1       2.791  -0.941  -2.772  0.00  0.00    +0.210 A 
ATOM      2  N   UNL     1       2.609  -1.843  -1.796  0.00  0.00    -0.187 NA
ATOM      3  C   UNL     1       2.498  -1.229  -0.650  0.00  0.00    +0.219 A 
ATOM      4  N   UNL     1       2.602   0.104  -0.874  0.00  0.00    -0.220 N 
ATOM      5  N   UNL     1       2.794   0.265  -2.245  0.00  0.00    -0.141 NA
ATOM      6  C   UNL     1       2.515   1.104   0.183  0.00  0.00    +0.178 C 
ATOM      7  C   UNL     1       2.642   0.439   1.537  0.00  0.00    +0.041 C 
ATOM      8  C   UNL     1       2.538  -0.898   1.692  0.00  0.00    +0.020 C 
ATOM      9  N   UNL     1       2.312  -1.736   0.626  0.00  0.00    -0.287 N 
ATOM     10  C   UNL     1       2.675  -1.534   3.055  0.00  0.00    +0.052 C 
ATOM     11  C   UNL     1       2.173  -0.566   4.128  0.00  0.00    +0.014 C 
ATOM     12  C   UNL     1       2.992   0.725   4.035  0.00  0.00    +0.080 C 
ATOM     13  C   UNL     1       2.873   1.278   2.642  0.00  0.00    +0.163 C 
ATOM     14  O   UNL     1       2.979   2.476   2.467  0.00  0.00    -0.292 OA
ATOM     15  H   UNL     1       1.993  -2.779   0.762  0.00  0.00    +0.155 HD
ENDROOT
BRANCH   6  16
ATOM     16  C   UNL     1       1.187   1.810   0.096  0.00  0.00    +0.012 A 
ATOM     17  C   UNL     1       0.018   1.119   0.354  0.00  0.00    +0.008 A 
ATOM     18  C   UNL     1      -1.200   1.765   0.268  0.00  0.00    +0.000 A 
ATOM     19  C   UNL     1      -1.250   3.106  -0.066  0.00  0.00    +0.002 A 
ATOM     20  C   UNL     1      -0.081   3.797  -0.323  0.00  0.00    +0.033 A 
ATOM     21  C   UNL     1       1.138   3.149  -0.242  0.00  0.00    +0.132 A 
BRANCH  21  22
ATOM     22  N   UNL     1       2.390   3.890  -0.517  0.00  0.00    +0.057 N 
ATOM     23  O   UNL     1       2.521   5.034  -0.120  0.00  0.00    -0.126 OA
ATOM     24  O   UNL     1       3.289   3.355  -1.142  0.00  0.00    -0.126 OA
ENDBRANCH  21  22
ENDBRANCH   6  16
BRANCH   1  25
ATOM     25  S   UNL     1       2.994  -1.311  -4.482  0.00  0.00    -0.084 S 
BRANCH  25  26
ATOM     26  C   UNL     1       2.895  -3.120  -4.555  0.00  0.00    +0.077 C 
BRANCH  26  27
ATOM     27  C   UNL     1       3.058  -3.583  -6.005  0.00  0.00    +0.011 C 
BRANCH  27  29
ATOM     28  C   UNL     1       3.138  -5.571  -7.515  0.00  0.00    +0.004 C 
ATOM     29  C   UNL     1       2.975  -5.109  -6.066  0.00  0.00    -0.003 C 
ENDBRANCH  27  29
ENDBRANCH  26  27
ENDBRANCH  25  26
ENDBRANCH   1  25
TORSDOF 6
