REMARK  Name = ZINC29547703
REMARK  9 active torsions:
REMARK  status: ('A' for Active; 'I' for Inactive)
REMARK    1  A    between atoms: C_1  and  C_2
REMARK    2  A    between atoms: C_2  and  C_4
REMARK    3  A    between atoms: C_2  and  S_17
REMARK    4  A    between atoms: N_6  and  C_7
REMARK    5  A    between atoms: C_10  and  N_14
REMARK    6  A    between atoms: S_17  and  C_18
REMARK    7  A    between atoms: C_21  and  C_26
REMARK    8  A    between atoms: N_22  and  C_23
REMARK    9  A    between atoms: C_23  and  C_24
REMARK                            x       y       z     vdW  Elec       q    Type
REMARK                         _______ _______ _______ _____ _____    ______ ____
ROOT
ATOM      1  C   UNL     1       4.361  -1.089  -1.218  0.00  0.00    +0.029 C 
ATOM      2  C   UNL     1       3.744  -0.964   0.176  0.00  0.00    +0.137 C 
ENDROOT
BRANCH   2   3
ATOM      3  C   UNL     1       2.427  -0.238   0.079  0.00  0.00    +0.230 C 
ATOM      4  O   UNL     1       1.388  -0.864   0.086  0.00  0.00    -0.274 OA
ATOM      5  N   UNL     1       2.403   1.106  -0.015  0.00  0.00    -0.283 N 
ATOM      6  H   UNL     1       3.345   1.668  -0.095  0.00  0.00    +0.155 HD
BRANCH   5   7
ATOM      7  C   UNL     1       1.179   1.786  -0.011  0.00  0.00    +0.052 A 
ATOM      8  C   UNL     1       0.064   1.215  -0.608  0.00  0.00    +0.027 A 
ATOM      9  C   UNL     1      -1.141   1.891  -0.607  0.00  0.00    +0.034 A 
ATOM     10  C   UNL     1      -1.239   3.132  -0.003  0.00  0.00    +0.128 A 
ATOM     11  C   UNL     1      -0.131   3.704   0.593  0.00  0.00    +0.054 A 
ATOM     12  C   UNL     1       1.079   3.034   0.591  0.00  0.00    +0.064 A 
ATOM     13 CL   UNL     1       2.471   3.753   1.341  0.00  0.00    -0.082 Cl
BRANCH  10  14
ATOM     14  N   UNL     1      -2.533   3.851  -0.001  0.00  0.00    +0.056 N 
ATOM     15  O   UNL     1      -2.620   4.946   0.527  0.00  0.00    -0.126 OA
ATOM     16  O   UNL     1      -3.510   3.349  -0.526  0.00  0.00    -0.126 OA
ENDBRANCH  10  14
ENDBRANCH   5   7
ENDBRANCH   2   3
BRANCH   2  17
ATOM     17  S   UNL     1       3.474  -2.615   0.867  0.00  0.00    -0.073 S 
BRANCH  17  18
ATOM     18  C   UNL     1       5.143  -3.164   1.008  0.00  0.00    +0.193 A 
ATOM     19  N   UNL     1       6.217  -2.487   0.670  0.00  0.00    -0.122 NA
ATOM     20  N   UNL     1       7.271  -3.182   0.908  0.00  0.00    -0.125 NA
ATOM     21  C   UNL     1       6.935  -4.352   1.405  0.00  0.00    +0.201 A 
ATOM     22  N   UNL     1       5.560  -4.375   1.484  0.00  0.00    -0.296 N 
BRANCH  21  23
ATOM     23  C   UNL     1       7.853  -5.431   1.801  0.00  0.00    +0.172 A 
ATOM     24  C   UNL     1       9.168  -5.528   1.459  0.00  0.00    +0.053 A 
ATOM     25  C   UNL     1       9.655  -6.708   2.054  0.00  0.00    +0.042 A 
ATOM     26  C   UNL     1       8.625  -7.273   2.715  0.00  0.00    +0.196 A 
ATOM     27  O   UNL     1       7.538  -6.499   2.560  0.00  0.00    -0.460 OA
ENDBRANCH  21  23
BRANCH  22  28
ATOM     28  C   UNL     1       4.720  -5.470   1.976  0.00  0.00    +0.152 C 
BRANCH  28  29
ATOM     29  C   UNL     1       4.364  -6.384   0.831  0.00  0.00    -0.013 C 
ATOM     30  C   UNL     1       4.629  -7.665   0.909  0.00  0.00    +0.005 C 
ENDBRANCH  28  29
ENDBRANCH  22  28
ENDBRANCH  17  18
ENDBRANCH   2  17
TORSDOF 8
