REMARK  Name = ZINC23282244
REMARK  9 active torsions:
REMARK  status: ('A' for Active; 'I' for Inactive)
REMARK    1  A    between atoms: C_1  and  C_2
REMARK    2  A    between atoms: C_2  and  C_4
REMARK    3  A    between atoms: C_2  and  N_13
REMARK    4  A    between atoms: C_14  and  C_16
REMARK    5  A    between atoms: C_16  and  C_18
REMARK    6  A    between atoms: C_16  and  S_19
REMARK    7  A    between atoms: S_19  and  C_20
REMARK    8  A    between atoms: C_23  and  C_26
REMARK    9  A    between atoms: N_24  and  N_25
REMARK                            x       y       z     vdW  Elec       q    Type
REMARK                         _______ _______ _______ _____ _____    ______ ____
ROOT
ATOM      1  N   UNL     1       5.806   4.238   0.610  0.00  0.00    -0.305 N 
ATOM      2  C   UNL     1       5.441   3.049   0.091  0.00  0.00    +0.227 C 
ATOM      3  O   UNL     1       6.287   2.266  -0.286  0.00  0.00    -0.275 OA
ATOM      4  H   UNL     1       5.038   4.948   0.951  0.00  0.00    +0.149 HD
ENDROOT
BRANCH   1   6
ATOM      5  C   UNL     1       7.792   4.010   2.018  0.00  0.00    +0.036 C 
ATOM      6  C   UNL     1       7.225   4.585   0.719  0.00  0.00    +0.136 C 
BRANCH   6   7
ATOM      7  C   UNL     1       7.376   6.084   0.725  0.00  0.00    +0.126 A 
ATOM      8  C   UNL     1       8.343   6.761   0.090  0.00  0.00    +0.055 A 
ATOM      9  C   UNL     1       8.101   8.181   0.369  0.00  0.00    +0.020 A 
ATOM     10  C   UNL     1       8.736   9.368   0.007  0.00  0.00    +0.011 A 
ATOM     11  C   UNL     1       8.240  10.564   0.448  0.00  0.00    +0.001 A 
ATOM     12  C   UNL     1       7.111  10.602   1.253  0.00  0.00    +0.004 A 
ATOM     13  C   UNL     1       6.470   9.439   1.621  0.00  0.00    +0.047 A 
ATOM     14  C   UNL     1       6.957   8.213   1.184  0.00  0.00    +0.135 A 
ATOM     15  O   UNL     1       6.558   6.938   1.365  0.00  0.00    -0.458 OA
ENDBRANCH   6   7
ENDBRANCH   1   6
BRANCH   2  16
ATOM     16  C   UNL     1       3.981   2.692  -0.021  0.00  0.00    +0.137 C 
ATOM     17  C   UNL     1       3.413   3.268  -1.321  0.00  0.00    +0.029 C 
BRANCH  16  18
ATOM     18  S   UNL     1       3.799   0.891  -0.029  0.00  0.00    -0.072 S 
BRANCH  18  19
ATOM     19  C   UNL     1       2.042   0.761  -0.013  0.00  0.00    +0.209 A 
ATOM     20  N   UNL     1       1.185   1.756   0.000  0.00  0.00    -0.121 NA
ATOM     21  N   UNL     1      -0.016   1.299   0.009  0.00  0.00    -0.123 NA
ATOM     22  C   UNL     1       0.002  -0.004   0.002  0.00  0.00    +0.255 A 
ATOM     23  N   UNL     1       1.313  -0.393  -0.013  0.00  0.00    -0.220 N 
BRANCH  22  24
ATOM     24  C   UNL     1      -1.200  -0.913   0.008  0.00  0.00    +0.454 C 
ATOM     25  F   UNL     1      -2.343  -0.177  -0.319  0.00  0.00    -0.163 F 
ATOM     26  F   UNL     1      -1.017  -1.933  -0.932  0.00  0.00    -0.163 F 
ATOM     27  F   UNL     1      -1.354  -1.474   1.280  0.00  0.00    -0.163 F 
ENDBRANCH  22  24
BRANCH  23  28
ATOM     28  N   UNL     1       1.794  -1.672  -0.024  0.00  0.00    -0.295 N 
ATOM     29  H   UNL     1       1.095  -2.522  -0.022  0.00  0.00    +0.163 HD
ATOM     30  H   UNL     1       2.879  -1.852  -0.035  0.00  0.00    +0.163 HD
ENDBRANCH  23  28
ENDBRANCH  18  19
ENDBRANCH  16  18
ENDBRANCH   2  16
TORSDOF 7
