REMARK  Name = ZINC09631457
REMARK  15 active torsions:
REMARK  status: ('A' for Active; 'I' for Inactive)
REMARK    1  A    between atoms: C_1  and  C_2
REMARK    2  A    between atoms: C_4  and  C_22
REMARK    3  A    between atoms: C_5  and  C_21
REMARK    4  A    between atoms: N_6  and  C_7
REMARK    5  A    between atoms: C_9  and  C_17
REMARK    6  A    between atoms: C_11  and  C_13
REMARK    7  A    between atoms: C_13  and  O_15
REMARK    8  A    between atoms: O_15  and  C_16
REMARK    9  A    between atoms: C_17  and  O_19
REMARK   10  A    between atoms: O_19  and  C_20
REMARK   11  A    between atoms: N_28  and  C_29
REMARK   12  A    between atoms: C_29  and  C_31
REMARK   13  A    between atoms: C_29  and  C_32
REMARK   14  A    between atoms: C_32  and  O_33
REMARK   15  A    between atoms: O_33  and  C_34
REMARK                            x       y       z     vdW  Elec       q    Type
REMARK                         _______ _______ _______ _____ _____    ______ ____
ROOT
ATOM      1  C   UNL     1      -8.620   5.637   6.473  0.00  0.00    +0.064 C 
ATOM      2  C   UNL     1      -7.316   5.441   5.743  0.00  0.00    +0.022 A 
ATOM      3  C   UNL     1      -6.933   4.314   5.115  0.00  0.00    +0.033 A 
ATOM      4  C   UNL     1      -5.604   4.577   4.555  0.00  0.00    +0.020 A 
ATOM      5  C   UNL     1      -5.296   5.866   4.890  0.00  0.00    +0.030 A 
ATOM      6  N   UNL     1      -6.334   6.379   5.606  0.00  0.00    -0.317 N 
ATOM      7  C   UNL     1      -4.026   6.593   4.529  0.00  0.00    +0.064 C 
ENDROOT
BRANCH   4   8
ATOM      8  C   UNL     1      -4.771   3.643   3.781  0.00  0.00    +0.083 C 
ATOM      9  N   UNL     1      -3.619   4.044   3.354  0.00  0.00    -0.150 NA
ATOM     10  N   UNL     1      -2.726   3.267   2.629  0.00  0.00    -0.127 NA
ATOM     11  C   UNL     1      -3.086   2.226   1.919  0.00  0.00    +0.176 C 
ATOM     12  S   UNL     1      -4.778   1.734   1.860  0.00  0.00    -0.083 S 
ATOM     13  C   UNL     1      -5.293   2.257   3.516  0.00  0.00    +0.135 C 
ATOM     14  N   UNL     1      -2.140   1.512   1.221  0.00  0.00    -0.318 N 
ATOM     15  H   UNL     1      -2.404   0.739   0.698  0.00  0.00    +0.148 HD
BRANCH  14  16
ATOM     16  C   UNL     1      -0.733   1.918   1.269  0.00  0.00    +0.095 C 
ATOM     17  C   UNL     1      -0.068   1.310   2.505  0.00  0.00    +0.030 C 
BRANCH  16  18
ATOM     18  C   UNL     1      -0.017   1.425   0.010  0.00  0.00    +0.181 C 
BRANCH  18  19
ATOM     19  O   UNL     1       0.002  -0.004   0.002  0.00  0.00    -0.381 OA
ATOM     20  C   UNL     1       0.652  -0.570  -1.138  0.00  0.00    +0.194 C 
ENDBRANCH  18  19
ENDBRANCH  16  18
ENDBRANCH  14  16
ENDBRANCH   4   8
BRANCH   6  21
ATOM     21  C   UNL     1      -6.386   7.680   6.127  0.00  0.00    +0.048 A 
ATOM     22  C   UNL     1      -5.493   8.066   7.115  0.00  0.00    +0.041 A 
ATOM     23  C   UNL     1      -5.538   9.363   7.632  0.00  0.00    +0.062 A 
ATOM     24  C   UNL     1      -6.490  10.265   7.162  0.00  0.00    +0.030 A 
ATOM     25  C   UNL     1      -7.390   9.872   6.173  0.00  0.00    +0.062 A 
ATOM     26  C   UNL     1      -7.334   8.576   5.656  0.00  0.00    +0.041 A 
BRANCH  25  27
ATOM     27  C   UNL     1      -8.401  10.825   5.671  0.00  0.00    +0.339 C 
ATOM     28  O   UNL     1      -9.185  10.481   4.809  0.00  0.00    -0.245 OA
BRANCH  27  29
ATOM     29  O   UNL     1      -8.454  12.075   6.170  0.00  0.00    -0.464 OA
ATOM     30  C   UNL     1      -9.473  12.958   5.630  0.00  0.00    +0.280 C 
ENDBRANCH  27  29
ENDBRANCH  25  27
BRANCH  23  31
ATOM     31  C   UNL     1      -4.583   9.775   8.681  0.00  0.00    +0.339 C 
ATOM     32  O   UNL     1      -3.753   8.987   9.090  0.00  0.00    -0.245 OA
BRANCH  31  33
ATOM     33  O   UNL     1      -4.631  11.024   9.183  0.00  0.00    -0.464 OA
ATOM     34  C   UNL     1      -3.662  11.359  10.210  0.00  0.00    +0.280 C 
ENDBRANCH  31  33
ENDBRANCH  23  31
ENDBRANCH   6  21
TORSDOF 9
