REMARK  Name = ZINC36649159
REMARK  7 active torsions:
REMARK  status: ('A' for Active; 'I' for Inactive)
REMARK    1  A    between atoms: C_1  and  C_2
REMARK    2  A    between atoms: C_5  and  N_8
REMARK    3  A    between atoms: N_8  and  N_9
REMARK    4  A    between atoms: C_10  and  C_17
REMARK    5  A    between atoms: C_13  and  C_14
REMARK    6  A    between atoms: C_14  and  C_16
REMARK    7  A    between atoms: C_18  and  C_26
REMARK                            x       y       z     vdW  Elec       q    Type
REMARK                         _______ _______ _______ _____ _____    ______ ____
ROOT
ATOM      1  N   UNL     1       0.066  -4.878   1.187  0.00  0.00    -0.217 N 
ATOM      2  C   UNL     1       0.473  -6.165   1.382  0.00  0.00    +0.217 A 
ATOM      3  N   UNL     1       0.335  -6.429   2.674  0.00  0.00    -0.124 NA
ATOM      4  N   UNL     1      -0.127  -5.397   3.285  0.00  0.00    -0.124 NA
ATOM      5  C   UNL     1      -0.307  -4.410   2.427  0.00  0.00    +0.217 A 
ENDROOT
BRANCH   2   6
ATOM      6  C   UNL     1       0.970  -7.088   0.353  0.00  0.00    +0.178 A 
ATOM      7  C   UNL     1       1.442  -8.340   0.587  0.00  0.00    +0.006 A 
ATOM      8  C   UNL     1       1.821  -8.881  -0.718  0.00  0.00    +0.024 A 
ATOM      9  C   UNL     1       2.361 -10.095  -1.149  0.00  0.00    +0.012 A 
ATOM     10  C   UNL     1       2.606 -10.293  -2.479  0.00  0.00    +0.001 A 
ATOM     11  C   UNL     1       2.322  -9.296  -3.402  0.00  0.00    +0.004 A 
ATOM     12  C   UNL     1       1.789  -8.091  -2.997  0.00  0.00    +0.047 A 
ATOM     13  C   UNL     1       1.531  -7.867  -1.650  0.00  0.00    +0.136 A 
ATOM     14  O   UNL     1       1.022  -6.821  -0.969  0.00  0.00    -0.451 OA
ATOM     15  C   UNL     1       1.553  -9.032   1.921  0.00  0.00    +0.048 C 
ENDBRANCH   2   6
BRANCH   5  16
ATOM     16  C   UNL     1      -0.810  -3.072   2.735  0.00  0.00    +0.198 C 
ATOM     17  O   UNL     1      -1.022  -2.282   1.838  0.00  0.00    -0.289 OA
ATOM     18  C   UNL     1      -1.067  -2.675   4.165  0.00  0.00    +0.095 C 
ENDBRANCH   5  16
BRANCH   1  19
ATOM     19  N   UNL     1       0.040  -4.175  -0.025  0.00  0.00    -0.250 N 
ATOM     20  H   UNL     1       0.765  -3.572  -0.252  0.00  0.00    +0.173 HD
BRANCH  19  25
ATOM     21  C   UNL     1      -4.307  -4.854  -3.603  0.00  0.00    +0.044 C 
ATOM     22  C   UNL     1      -3.152  -4.674  -2.652  0.00  0.00    -0.050 A 
ATOM     23  C   UNL     1      -2.186  -3.719  -2.913  0.00  0.00    +0.005 A 
ATOM     24  C   UNL     1      -1.126  -3.551  -2.044  0.00  0.00    +0.025 A 
ATOM     25  C   UNL     1      -1.031  -4.342  -0.906  0.00  0.00    +0.047 A 
ATOM     26  C   UNL     1      -2.003  -5.300  -0.646  0.00  0.00    +0.025 A 
ATOM     27  C   UNL     1      -3.063  -5.459  -1.517  0.00  0.00    +0.005 A 
ENDBRANCH  19  25
ENDBRANCH   1  19
TORSDOF 4
