REMARK  Name = ZINC36802161
REMARK  9 active torsions:
REMARK  status: ('A' for Active; 'I' for Inactive)
REMARK    1  A    between atoms: C_1  and  C_2
REMARK    2  A    between atoms: C_2  and  N_3
REMARK    3  A    between atoms: C_4  and  C_24
REMARK    4  A    between atoms: C_7  and  S_8
REMARK    5  A    between atoms: S_8  and  C_9
REMARK    6  A    between atoms: C_9  and  C_11
REMARK    7  A    between atoms: C_9  and  C_12
REMARK    8  A    between atoms: N_14  and  C_15
REMARK    9  A    between atoms: C_18  and  N_21
REMARK                            x       y       z     vdW  Elec       q    Type
REMARK                         _______ _______ _______ _____ _____    ______ ____
ROOT
ATOM      1  C   UNL     1      -1.560  -1.174   4.598  0.00  0.00    +0.137 C 
ATOM      2  C   UNL     1      -0.754  -0.192   5.450  0.00  0.00    +0.029 C 
ENDROOT
BRANCH   1   3
ATOM      3  C   UNL     1      -2.985  -1.210   5.086  0.00  0.00    +0.230 C 
ATOM      4  O   UNL     1      -3.843  -0.582   4.502  0.00  0.00    -0.274 OA
ATOM      5  N   UNL     1      -3.307  -1.941   6.171  0.00  0.00    -0.285 N 
ATOM      6  H   UNL     1      -2.636  -2.496   6.599  0.00  0.00    +0.155 HD
BRANCH   5   7
ATOM      7  C   UNL     1      -4.609  -1.899   6.682  0.00  0.00    +0.034 A 
ATOM      8  C   UNL     1      -4.822  -1.976   8.053  0.00  0.00    +0.025 A 
ATOM      9  C   UNL     1      -6.108  -1.935   8.554  0.00  0.00    +0.034 A 
ATOM     10  C   UNL     1      -7.184  -1.815   7.693  0.00  0.00    +0.126 A 
ATOM     11  C   UNL     1      -6.975  -1.738   6.328  0.00  0.00    +0.034 A 
ATOM     12  C   UNL     1      -5.691  -1.773   5.821  0.00  0.00    +0.025 A 
BRANCH  10  13
ATOM     13  N   UNL     1      -8.561  -1.771   8.233  0.00  0.00    +0.056 N 
ATOM     14  O   UNL     1      -8.745  -1.839   9.426  0.00  0.00    -0.126 OA
ATOM     15  O   UNL     1      -9.502  -1.667   7.481  0.00  0.00    -0.126 OA
ENDBRANCH  10  13
ENDBRANCH   5   7
ENDBRANCH   1   3
BRANCH   1  16
ATOM     16  S   UNL     1      -1.528  -0.638   2.865  0.00  0.00    -0.074 S 
BRANCH  16  21
ATOM     17  N   UNL     1       0.702  -0.498   1.179  0.00  0.00    -0.302 N 
ATOM     18  C   UNL     1       2.049  -0.761   1.292  0.00  0.00    +0.171 A 
ATOM     19  N   UNL     1       2.256  -1.183   2.520  0.00  0.00    -0.128 NA
ATOM     20  N   UNL     1       1.149  -1.202   3.171  0.00  0.00    -0.122 NA
ATOM     21  C   UNL     1       0.166  -0.788   2.403  0.00  0.00    +0.193 A 
BRANCH  18  22
ATOM     22  C   UNL     1       3.064  -0.600   0.238  0.00  0.00    +0.056 A 
ATOM     23  C   UNL     1       4.431  -0.579   0.351  0.00  0.00    +0.019 A 
ATOM     24  C   UNL     1       5.185  -0.414  -0.789  0.00  0.00    +0.008 A 
ATOM     25  C   UNL     1       4.556  -0.277  -1.985  0.00  0.00    +0.046 A 
ATOM     26  S   UNL     1       2.836  -0.389  -1.520  0.00  0.00    -0.094 S 
ENDBRANCH  18  22
BRANCH  17  28
ATOM     27  C   UNL     1      -0.020   1.525   0.009  0.00  0.00    +0.027 C 
ATOM     28  C   UNL     1      -0.008  -0.005  -0.004  0.00  0.00    +0.122 C 
ENDBRANCH  17  28
ENDBRANCH  16  21
ENDBRANCH   1  16
TORSDOF 7
