REMARK  Name = ZINC10062656
REMARK  7 active torsions:
REMARK  status: ('A' for Active; 'I' for Inactive)
REMARK    1  A    between atoms: C_1  and  C_2
REMARK    2  A    between atoms: C_2  and  C_3
REMARK    3  A    between atoms: C_3  and  N_4
REMARK    4  A    between atoms: N_9  and  C_26
REMARK    5  A    between atoms: C_12  and  C_14
REMARK    6  A    between atoms: N_16  and  C_17
REMARK    7  A    between atoms: C_20  and  N_23
REMARK                            x       y       z     vdW  Elec       q    Type
REMARK                         _______ _______ _______ _____ _____    ______ ____
ROOT
ATOM      1  N   UNL     1       1.421   3.520   0.007  0.00  0.00    -0.352 N 
ATOM      2  C   UNL     1       1.421   4.166   1.185  0.00  0.00    +0.101 A 
ATOM      3  C   UNL     1       1.394   5.540   1.226  0.00  0.00    +0.085 A 
ATOM      4  C   UNL     1       1.386   6.572   2.285  0.00  0.00    +0.283 A 
ATOM      5  O   UNL     1       1.404   6.393   3.485  0.00  0.00    -0.265 OA
ATOM      6  N   UNL     1       1.355   7.757   1.637  0.00  0.00    -0.196 N 
ATOM      7  N   UNL     1       1.343   7.592   0.363  0.00  0.00    -0.162 NA
ATOM      8  C   UNL     1       1.365   6.283   0.018  0.00  0.00    +0.112 A 
ATOM      9  C   UNL     1       1.365   5.573  -1.196  0.00  0.00    +0.081 A 
ATOM     10  C   UNL     1       1.399   4.175  -1.156  0.00  0.00    +0.101 A 
ENDROOT
BRANCH   6  11
ATOM     11  C   UNL     1       1.337   8.993   2.266  0.00  0.00    +0.069 A 
ATOM     12  C   UNL     1       0.651   9.156   3.469  0.00  0.00    +0.028 A 
ATOM     13  C   UNL     1       0.642  10.386   4.093  0.00  0.00    +0.002 A 
ATOM     14  C   UNL     1       1.302  11.460   3.521  0.00  0.00    +0.000 A 
ATOM     15  C   UNL     1       1.980  11.305   2.324  0.00  0.00    +0.002 A 
ATOM     16  C   UNL     1       2.001  10.078   1.694  0.00  0.00    +0.028 A 
ENDBRANCH   6  11
BRANCH   9  17
ATOM     17  C   UNL     1       1.335   6.291  -2.490  0.00  0.00    +0.252 C 
ATOM     18  O   UNL     1       1.310   7.506  -2.510  0.00  0.00    -0.270 OA
ATOM     19  N   UNL     1       1.335   5.597  -3.645  0.00  0.00    -0.281 N 
ATOM     20  H   UNL     1       1.422   4.631  -3.631  0.00  0.00    +0.155 HD
BRANCH  19  21
ATOM     21  C   UNL     1       1.209   6.270  -4.864  0.00  0.00    +0.034 A 
ATOM     22  C   UNL     1       0.515   5.683  -5.915  0.00  0.00    +0.025 A 
ATOM     23  C   UNL     1       0.388   6.353  -7.116  0.00  0.00    +0.034 A 
ATOM     24  C   UNL     1       0.960   7.601  -7.277  0.00  0.00    +0.126 A 
ATOM     25  C   UNL     1       1.657   8.186  -6.235  0.00  0.00    +0.034 A 
ATOM     26  C   UNL     1       1.783   7.524  -5.029  0.00  0.00    +0.025 A 
BRANCH  24  27
ATOM     27  N   UNL     1       0.827   8.313  -8.568  0.00  0.00    +0.056 N 
ATOM     28  O   UNL     1       1.371   9.503  -8.723  0.00  0.00    -0.126 OA
ATOM     29  O   UNL     1       0.164   7.758  -9.561  0.00  0.00    -0.126 OA
ENDBRANCH  24  27
ENDBRANCH  19  21
ENDBRANCH   9  17
BRANCH   1  30
ATOM     30  C   UNL     1       1.451   2.055  -0.001  0.00  0.00    +0.121 C 
BRANCH  30  32
ATOM     31  C   UNL     1       0.051  -0.014   0.004  0.00  0.00    +0.005 C 
ATOM     32  C   UNL     1       0.019   1.516   0.013  0.00  0.00    +0.018 C 
ENDBRANCH  30  32
ENDBRANCH   1  30
TORSDOF 6
