REMARK  Name = ZINC15805838
REMARK  11 active torsions:
REMARK  status: ('A' for Active; 'I' for Inactive)
REMARK    1  A    between atoms: C_1  and  C_2
REMARK    2  A    between atoms: C_2  and  C_4
REMARK    3  A    between atoms: C_2  and  O_19
REMARK    4  A    between atoms: N_6  and  C_7
REMARK    5  A    between atoms: C_7  and  C_8
REMARK    6  A    between atoms: C_8  and  C_9
REMARK    7  A    between atoms: C_12  and  S_15
REMARK    8  A    between atoms: S_15  and  N_18
REMARK    9  A    between atoms: O_19  and  C_20
REMARK   10  A    between atoms: C_20  and  C_22
REMARK   11  A    between atoms: C_22  and  C_23
REMARK                            x       y       z     vdW  Elec       q    Type
REMARK                         _______ _______ _______ _____ _____    ______ ____
ROOT
ATOM      1  C   UNL     1       1.841   7.141   3.214  0.00  0.00    +0.254 C 
ATOM      2  O   UNL     1       2.204   7.737   2.223  0.00  0.00    -0.272 OA
ATOM      3  N   UNL     1       2.057   7.669   4.435  0.00  0.00    -0.312 N 
ATOM      4  H   UNL     1       1.767   7.192   5.228  0.00  0.00    +0.149 HD
ENDROOT
BRANCH   1   6
ATOM      5  C   UNL     1      -0.292   5.931   3.584  0.00  0.00    +0.062 C 
ATOM      6  C   UNL     1       1.148   5.809   3.081  0.00  0.00    +0.258 C 
BRANCH   6   7
ATOM      7  O   UNL     1       1.140   5.405   1.686  0.00  0.00    -0.452 OA
BRANCH   7   8
ATOM      8  C   UNL     1       1.157   4.087   1.434  0.00  0.00    +0.312 C 
ATOM      9  O   UNL     1       1.176   3.297   2.348  0.00  0.00    -0.250 OA
BRANCH   8  10
ATOM     10  C   UNL     1       1.150   3.592   0.010  0.00  0.00    +0.155 C 
BRANCH  10  11
ATOM     11  C   UNL     1       1.171   2.086   0.002  0.00  0.00    -0.037 A 
ATOM     12  C   UNL     1      -0.017   1.378   0.010  0.00  0.00    +0.005 A 
ATOM     13  C   UNL     1       0.002  -0.004   0.002  0.00  0.00    +0.015 A 
ATOM     14  C   UNL     1       1.209  -0.679  -0.013  0.00  0.00    +0.018 A 
ATOM     15  C   UNL     1       2.397   0.029  -0.021  0.00  0.00    +0.015 A 
ATOM     16  C   UNL     1       2.378   1.411  -0.013  0.00  0.00    +0.005 A 
ATOM     17 BR   UNL     1       1.236  -2.570  -0.023  0.00  0.00    -0.050 Br
ENDBRANCH  10  11
ENDBRANCH   8  10
ENDBRANCH   7   8
ENDBRANCH   6   7
ENDBRANCH   1   6
BRANCH   3  18
ATOM     18  C   UNL     1       2.731   8.963   4.565  0.00  0.00    +0.109 C 
BRANCH  18  19
ATOM     19  C   UNL     1       2.850   9.330   6.046  0.00  0.00    +0.054 C 
BRANCH  19  20
ATOM     20  C   UNL     1       3.543  10.662   6.179  0.00  0.00    -0.046 A 
ATOM     21  C   UNL     1       4.919  10.716   6.299  0.00  0.00    +0.005 A 
ATOM     22  C   UNL     1       5.555  11.937   6.417  0.00  0.00    +0.029 A 
ATOM     23  C   UNL     1       4.815  13.104   6.424  0.00  0.00    +0.105 A 
ATOM     24  C   UNL     1       3.438  13.050   6.309  0.00  0.00    +0.029 A 
ATOM     25  C   UNL     1       2.802  11.829   6.187  0.00  0.00    +0.005 A 
BRANCH  23  26
ATOM     26  S   UNL     1       5.625  14.661   6.579  0.00  0.00    +0.056 S 
ATOM     27  O   UNL     1       6.958  14.473   6.122  0.00  0.00    -0.153 OA
ATOM     28  O   UNL     1       4.755  15.630   6.010  0.00  0.00    -0.153 OA
BRANCH  26  29
ATOM     29  N   UNL     1       5.723  15.004   8.196  0.00  0.00    -0.204 NA
ATOM     30  H   UNL     1       5.362  14.381   8.846  0.00  0.00    +0.144 HD
ATOM     31  H   UNL     1       6.141  15.827   8.493  0.00  0.00    +0.144 HD
ENDBRANCH  26  29
ENDBRANCH  23  26
ENDBRANCH  19  20
ENDBRANCH  18  19
ENDBRANCH   3  18
TORSDOF 10
