REMARK  Name = ZINC16539508
REMARK  6 active torsions:
REMARK  status: ('A' for Active; 'I' for Inactive)
REMARK    1  A    between atoms: C_14  and  C_15
REMARK    2  A    between atoms: C_15  and  O_16
REMARK    3  A    between atoms: O_16  and  C_17
REMARK    4  A    between atoms: C_17  and  C_19
REMARK    5  A    between atoms: C_19  and  C_20
REMARK    6  A    between atoms: C_20  and  N_21
REMARK                            x       y       z     vdW  Elec       q    Type
REMARK                         _______ _______ _______ _____ _____    ______ ____
ROOT
ATOM      1  C   UNL     1      -2.915   3.255   1.477  0.00  0.00    +0.309 C 
ATOM      2  O   UNL     1      -3.425   3.593   0.434  0.00  0.00    -0.251 OA
ENDROOT
BRANCH   1   3
ATOM      3  O   UNL     1      -3.470   3.618   2.644  0.00  0.00    -0.458 OA
BRANCH   3   4
ATOM      4  C   UNL     1      -4.681   4.417   2.578  0.00  0.00    +0.288 C 
BRANCH   4  18
ATOM      5  C   UNL     1      -3.827   8.176   5.938  0.00  0.00    +0.001 A 
ATOM      6  C   UNL     1      -3.384   7.899   4.650  0.00  0.00    +0.001 A 
ATOM      7  C   UNL     1      -3.803   6.781   3.988  0.00  0.00    +0.010 A 
ATOM      8  C   UNL     1      -4.691   5.898   4.614  0.00  0.00    +0.007 A 
ATOM      9  C   UNL     1      -5.139   6.185   5.926  0.00  0.00    -0.007 A 
ATOM     10  C   UNL     1      -4.695   7.334   6.576  0.00  0.00    +0.009 A 
ATOM     11  C   UNL     1      -6.068   5.237   6.547  0.00  0.00    +0.008 A 
ATOM     12  C   UNL     1      -6.567   5.430   7.835  0.00  0.00    +0.010 A 
ATOM     13  C   UNL     1      -7.430   4.516   8.370  0.00  0.00    +0.001 A 
ATOM     14  C   UNL     1      -7.817   3.397   7.643  0.00  0.00    +0.002 A 
ATOM     15  C   UNL     1      -7.345   3.182   6.381  0.00  0.00    +0.028 A 
ATOM     16  C   UNL     1      -6.457   4.100   5.801  0.00  0.00    +0.072 A 
ATOM     17  N   UNL     1      -5.985   3.910   4.558  0.00  0.00    -0.248 NA
ATOM     18  C   UNL     1      -5.154   4.727   3.975  0.00  0.00    +0.087 A 
ENDBRANCH   4  18
ENDBRANCH   3   4
ENDBRANCH   1   3
BRANCH   1  19
ATOM     19  C   UNL     1      -1.658   2.425   1.466  0.00  0.00    +0.140 C 
BRANCH  19  20
ATOM     20  C   UNL     1      -1.239   2.152   0.020  0.00  0.00    +0.129 C 
BRANCH  20  21
ATOM     21  N   UNL     1      -0.016   1.345   0.009  0.00  0.00    -0.224 N 
ATOM     22  C   UNL     1       0.002  -0.004   0.002  0.00  0.00    +0.247 C 
ATOM     23  O   UNL     1      -0.953  -0.751   0.007  0.00  0.00    -0.273 OA
ATOM     24  C   UNL     1       1.464  -0.388  -0.014  0.00  0.00    +0.113 C 
ATOM     25  C   UNL     1       1.792  -1.178  -1.276  0.00  0.00    +0.035 C 
ATOM     26  C   UNL     1       3.281  -1.532  -1.287  0.00  0.00    +0.003 C 
ATOM     27  C   UNL     1       3.616  -2.361  -0.045  0.00  0.00    +0.000 C 
ATOM     28  C   UNL     1       3.305  -1.546   1.212  0.00  0.00    +0.003 C 
ATOM     29  C   UNL     1       1.816  -1.192   1.233  0.00  0.00    +0.035 C 
ATOM     30  N   UNL     1       2.171   0.899  -0.014  0.00  0.00    -0.285 N 
ATOM     31  C   UNL     1       1.222   1.855   0.000  0.00  0.00    +0.309 C 
ATOM     32  O   UNL     1       1.462   3.046   0.004  0.00  0.00    -0.252 OA
ATOM     33  H   UNL     1       3.131   1.035  -0.023  0.00  0.00    +0.151 HD
ENDBRANCH  20  21
ENDBRANCH  19  20
ENDBRANCH   1  19
TORSDOF 6
