REMARK  Name = ZINC13450627
REMARK  6 active torsions:
REMARK  status: ('A' for Active; 'I' for Inactive)
REMARK    1  A    between atoms: C_1  and  C_2
REMARK    2  A    between atoms: C_4  and  O_38
REMARK    3  A    between atoms: C_14  and  C_16
REMARK    4  A    between atoms: C_16  and  C_21
REMARK    5  A    between atoms: C_26  and  C_37
REMARK    6  A    between atoms: N_28  and  O_29
REMARK                            x       y       z     vdW  Elec       q    Type
REMARK                         _______ _______ _______ _____ _____    ______ ____
ROOT
ATOM      1  C   UNL     1       0.528   1.400   1.710  0.00  0.00    +0.012 C 
ATOM      2  C   UNL     1       0.495  -0.050   1.196  0.00  0.00    -0.019 C 
ATOM      3  C   UNL     1      -0.934  -0.533   0.976  0.00  0.00    +0.039 C 
ATOM      4  C   UNL     1      -1.647  -0.937   2.248  0.00  0.00    +0.119 C 
ATOM      5  C   UNL     1      -0.876  -1.947   3.086  0.00  0.00    +0.033 C 
ATOM      6  C   UNL     1       0.570  -1.572   3.265  0.00  0.00    -0.001 C 
ATOM      7  C   UNL     1       1.302  -0.982   2.094  0.00  0.00    -0.001 C 
ATOM      8  C   UNL     1       2.046  -1.983   1.213  0.00  0.00    +0.005 C 
ATOM      9  C   UNL     1       1.802  -1.554  -0.247  0.00  0.00    +0.009 C 
ATOM     10  C   UNL     1       1.194  -0.145  -0.190  0.00  0.00    +0.054 C 
ATOM     11  C   UNL     1       1.404  -2.619   3.992  0.00  0.00    +0.004 C 
ATOM     12  C   UNL     1       1.122  -4.040   3.525  0.00  0.00    +0.005 C 
ATOM     13  C   UNL     1      -0.369  -4.336   3.606  0.00  0.00    +0.006 C 
ATOM     14  C   UNL     1      -1.146  -3.382   2.690  0.00  0.00    +0.018 C 
ATOM     15  C   UNL     1      -2.611  -3.724   2.917  0.00  0.00    +0.069 C 
ATOM     16  N   UNL     1      -3.448  -2.867   3.359  0.00  0.00    -0.096 NA
ATOM     17  C   UNL     1      -3.033  -5.146   2.615  0.00  0.00    +0.119 C 
ATOM     18  C   UNL     1      -2.139  -6.118   3.385  0.00  0.00    +0.176 C 
ATOM     19  C   UNL     1      -0.658  -5.785   3.234  0.00  0.00    +0.069 C 
ATOM     20  O   UNL     1      -2.366  -7.447   2.870  0.00  0.00    -0.346 OA
ATOM     21  C   UNL     1      -2.225  -8.311   4.023  0.00  0.00    +0.191 C 
ATOM     22  C   UNL     1      -2.882  -7.450   5.131  0.00  0.00    +0.191 C 
ATOM     23  O   UNL     1      -2.500  -6.106   4.772  0.00  0.00    -0.346 OA
ATOM     24  C   UNL     1      -0.814  -3.655   1.227  0.00  0.00    +0.018 C 
ENDROOT
BRANCH  10  25
ATOM     25  C   UNL     1       2.290   0.917  -0.306  0.00  0.00    +0.171 C 
ATOM     26  O   UNL     1       1.711   2.225  -0.165  0.00  0.00    -0.346 OA
ATOM     27  C   UNL     1       2.469   3.065  -1.069  0.00  0.00    +0.191 C 
ATOM     28  C   UNL     1       2.736   2.096  -2.248  0.00  0.00    +0.191 C 
ATOM     29  O   UNL     1       2.916   0.825  -1.592  0.00  0.00    -0.346 OA
ATOM     30  C   UNL     1       3.334   0.700   0.791  0.00  0.00    +0.074 C 
ENDBRANCH  10  25
BRANCH  16  31
ATOM     31  O   UNL     1      -2.986  -1.657   3.930  0.00  0.00    -0.409 OA
ATOM     32  H   UNL     1      -3.692  -1.071   4.237  0.00  0.00    +0.328 HD
ENDBRANCH  16  31
BRANCH   4  33
ATOM     33  O   UNL     1      -1.934   0.221   3.043  0.00  0.00    -0.391 OA
ATOM     34  H   UNL     1      -2.499   0.871   2.602  0.00  0.00    +0.210 HD
ENDBRANCH   4  33
TORSDOF 3
