REMARK  Name = ZINC10149057
REMARK  8 active torsions:
REMARK  status: ('A' for Active; 'I' for Inactive)
REMARK    1  A    between atoms: C_1  and  C_2
REMARK    2  A    between atoms: C_2  and  C_3
REMARK    3  A    between atoms: C_4  and  C_24
REMARK    4  A    between atoms: C_6  and  N_11
REMARK    5  A    between atoms: C_7  and  C_8
REMARK    6  A    between atoms: C_12  and  C_14
REMARK    7  A    between atoms: C_14  and  O_15
REMARK    8  A    between atoms: O_15  and  C_16
REMARK                            x       y       z     vdW  Elec       q    Type
REMARK                         _______ _______ _______ _____ _____    ______ ____
ROOT
ATOM      1  N   UNL     1       3.909  -2.193  -0.049  0.00  0.00    -0.277 N 
ATOM      2  C   UNL     1       3.713  -0.860  -0.040  0.00  0.00    +0.255 C 
ATOM      3  O   UNL     1       4.664  -0.107  -0.044  0.00  0.00    -0.272 OA
ATOM      4  H   UNL     1       3.148  -2.795  -0.045  0.00  0.00    +0.155 HD
ENDROOT
BRANCH   1   8
ATOM      5  C   UNL     1       7.021  -4.284  -0.092  0.00  0.00    -0.024 A 
ATOM      6  C   UNL     1       7.832  -3.212  -0.094  0.00  0.00    -0.008 A 
ATOM      7  S   UNL     1       6.698  -1.839  -0.082  0.00  0.00    -0.078 S 
ATOM      8  C   UNL     1       5.198  -2.704  -0.065  0.00  0.00    +0.084 A 
ATOM      9  C   UNL     1       5.599  -4.035  -0.076  0.00  0.00    +0.068 A 
ATOM     10  C   UNL     1       9.339  -3.179  -0.109  0.00  0.00    +0.052 C 
BRANCH   9  11
ATOM     11  C   UNL     1       4.626  -5.132  -0.072  0.00  0.00    +0.244 C 
ATOM     12  O   UNL     1       4.211  -5.581  -1.124  0.00  0.00    -0.270 OA
ATOM     13  N   UNL     1       4.190  -5.642   1.097  0.00  0.00    -0.325 N 
ATOM     14  H   UNL     1       4.521  -5.283   1.936  0.00  0.00    +0.145 HD
ATOM     15  H   UNL     1       3.546  -6.367   1.100  0.00  0.00    +0.145 HD
ENDBRANCH   9  11
BRANCH   5  17
ATOM     16  C   UNL     1       7.744  -6.154  -1.552  0.00  0.00    +0.009 C 
ATOM     17  C   UNL     1       7.572  -5.687  -0.105  0.00  0.00    +0.033 C 
ENDBRANCH   5  17
ENDBRANCH   1   8
BRANCH   2  18
ATOM     18  C   UNL     1       2.312  -0.304  -0.023  0.00  0.00    +0.325 C 
BRANCH  18  19
ATOM     19  O   UNL     1       2.366   1.124  -0.015  0.00  0.00    -0.482 OA
BRANCH  19  20
ATOM     20  C   UNL     1       1.179   1.786   0.000  0.00  0.00    +0.135 A 
ATOM     21  C   UNL     1      -0.013   1.076   0.008  0.00  0.00    +0.048 A 
ATOM     22  C   UNL     1      -1.218   1.751   0.017  0.00  0.00    +0.023 A 
ATOM     23  C   UNL     1      -1.238   3.134   0.031  0.00  0.00    +0.042 A 
ATOM     24  C   UNL     1      -0.051   3.845   0.023  0.00  0.00    +0.039 A 
ATOM     25  C   UNL     1       1.157   3.174   0.008  0.00  0.00    +0.061 A 
ATOM     26 BR   UNL     1       2.780   4.145  -0.002  0.00  0.00    -0.046 Br
ATOM     27 CL   UNL     1      -2.754   3.979   0.050  0.00  0.00    -0.084 Cl
ENDBRANCH  19  20
ENDBRANCH  18  19
ENDBRANCH   2  18
TORSDOF 6
