REMARK  Name = ZINC00106884
REMARK  4 active torsions:
REMARK  status: ('A' for Active; 'I' for Inactive)
REMARK    1  A    between atoms: C_3  and  O_12
REMARK    2  A    between atoms: C_6  and  C_7
REMARK    3  A    between atoms: O_12  and  C_13
REMARK    4  A    between atoms: N_15  and  C_16
REMARK                            x       y       z     vdW  Elec       q    Type
REMARK                         _______ _______ _______ _____ _____    ______ ____
ROOT
ATOM      1  O   UNL     1       2.382   5.346  -0.061  0.00  0.00    -0.411 OA
ENDROOT
BRANCH   1   4
ATOM      2  C   UNL     1       4.857   8.011  -0.043  0.00  0.00    +0.014 A 
ATOM      3  C   UNL     1       3.638   7.366  -0.047  0.00  0.00    +0.047 A 
ATOM      4  C   UNL     1       3.585   5.979  -0.058  0.00  0.00    +0.133 A 
ATOM      5  C   UNL     1       4.758   5.237  -0.061  0.00  0.00    +0.047 A 
ATOM      6  C   UNL     1       5.981   5.877  -0.063  0.00  0.00    +0.014 A 
ATOM      7  C   UNL     1       6.036   7.269  -0.052  0.00  0.00    +0.003 A 
BRANCH   7   8
ATOM      8  C   UNL     1       7.350   7.961  -0.048  0.00  0.00    +0.102 A 
ATOM      9  C   UNL     1       8.549   7.294  -0.050  0.00  0.00    +0.097 A 
ATOM     10  S   UNL     1       9.666   8.619  -0.045  0.00  0.00    +0.029 S 
ATOM     11  N   UNL     1       8.640   9.818  -0.033  0.00  0.00    -0.110 NA
ATOM     12  N   UNL     1       7.474   9.279  -0.036  0.00  0.00    -0.141 NA
ENDBRANCH   7   8
ENDBRANCH   1   4
BRANCH   1  13
ATOM     13  C   UNL     1       1.608   5.509  -1.151  0.00  0.00    +0.410 C 
ATOM     14  O   UNL     1       2.032   6.120  -2.111  0.00  0.00    -0.226 OA
ATOM     15  N   UNL     1       0.362   4.994  -1.175  0.00  0.00    -0.251 N 
ATOM     16  H   UNL     1      -0.009   4.583  -0.379  0.00  0.00    +0.158 HD
BRANCH  15  17
ATOM     17  C   UNL     1      -0.396   5.053  -2.351  0.00  0.00    +0.037 A 
ATOM     18  C   UNL     1       0.238   5.112  -3.585  0.00  0.00    +0.025 A 
ATOM     19  C   UNL     1      -0.513   5.169  -4.743  0.00  0.00    +0.022 A 
ATOM     20  C   UNL     1      -1.895   5.168  -4.674  0.00  0.00    +0.041 A 
ATOM     21  C   UNL     1      -2.529   5.109  -3.445  0.00  0.00    +0.022 A 
ATOM     22  C   UNL     1      -1.783   5.051  -2.284  0.00  0.00    +0.025 A 
ATOM     23 CL   UNL     1      -2.835   5.240  -6.131  0.00  0.00    -0.084 Cl
ENDBRANCH  15  17
ENDBRANCH   1  13
TORSDOF 4
