REMARK  Name = ZINC58099442
REMARK  6 active torsions:
REMARK  status: ('A' for Active; 'I' for Inactive)
REMARK    1  A    between atoms: C_1  and  C_2
REMARK    2  A    between atoms: C_2  and  C_3
REMARK    3  A    between atoms: C_2  and  O_16
REMARK    4  A    between atoms: N_5  and  C_6
REMARK    5  A    between atoms: C_8  and  N_13
REMARK    6  A    between atoms: O_16  and  C_17
REMARK                            x       y       z     vdW  Elec       q    Type
REMARK                         _______ _______ _______ _____ _____    ______ ____
ROOT
ATOM      1  C   UNL     1       1.074  -0.075   0.842  0.00  0.00    +0.258 C 
ATOM      2  O   UNL     1       2.243  -0.037   0.519  0.00  0.00    -0.271 OA
ATOM      3  N   UNL     1       0.736  -0.345   2.118  0.00  0.00    -0.280 N 
ATOM      4  H   UNL     1      -0.197  -0.464   2.358  0.00  0.00    +0.155 HD
ENDROOT
BRANCH   3   5
ATOM      5  C   UNL     1       1.730  -0.455   3.098  0.00  0.00    +0.071 A 
ATOM      6  C   UNL     1       2.987   0.091   2.878  0.00  0.00    +0.059 A 
ATOM      7  C   UNL     1       3.966  -0.018   3.846  0.00  0.00    +0.128 A 
ATOM      8  C   UNL     1       3.695  -0.670   5.036  0.00  0.00    +0.035 A 
ATOM      9  C   UNL     1       2.445  -1.216   5.260  0.00  0.00    +0.042 A 
ATOM     10  C   UNL     1       1.458  -1.105   4.297  0.00  0.00    +0.145 A 
ATOM     11  F   UNL     1       0.234  -1.633   4.518  0.00  0.00    -0.204 F 
BRANCH   7  12
ATOM     12  N   UNL     1       5.306   0.563   3.611  0.00  0.00    +0.056 N 
ATOM     13  O   UNL     1       5.544   1.133   2.571  0.00  0.00    -0.126 OA
ATOM     14  O   UNL     1       6.164   0.469   4.458  0.00  0.00    -0.126 OA
ENDBRANCH   7  12
ENDBRANCH   3   5
BRANCH   1  16
ATOM     15  C   UNL     1      -0.753   1.464   0.176  0.00  0.00    +0.062 C 
ATOM     16  C   UNL     1       0.001   0.182  -0.184  0.00  0.00    +0.256 C 
BRANCH  16  17
ATOM     17  O   UNL     1       0.599   0.328  -1.474  0.00  0.00    -0.480 OA
BRANCH  17  18
ATOM     18  C   UNL     1      -0.186   0.069  -2.552  0.00  0.00    +0.123 A 
ATOM     19  C   UNL     1       0.360   0.074  -3.827  0.00  0.00    +0.046 A 
ATOM     20  C   UNL     1      -0.440  -0.190  -4.922  0.00  0.00    +0.005 A 
ATOM     21  C   UNL     1      -1.785  -0.460  -4.748  0.00  0.00    +0.020 A 
ATOM     22  C   UNL     1      -2.333  -0.466  -3.477  0.00  0.00    +0.044 A 
ATOM     23  C   UNL     1      -1.534  -0.208  -2.378  0.00  0.00    +0.065 A 
ATOM     24 CL   UNL     1      -4.022  -0.805  -3.262  0.00  0.00    -0.083 Cl
ENDBRANCH  17  18
ENDBRANCH  16  17
ENDBRANCH   1  16
TORSDOF 5
