REMARK  Name = ZINC35397312
REMARK  8 active torsions:
REMARK  status: ('A' for Active; 'I' for Inactive)
REMARK    1  A    between atoms: C_1  and  C_2
REMARK    2  A    between atoms: C_2  and  O_3
REMARK    3  A    between atoms: O_3  and  C_4
REMARK    4  A    between atoms: C_4  and  C_6
REMARK    5  A    between atoms: C_14  and  C_31
REMARK    6  A    between atoms: C_16  and  N_19
REMARK    7  A    between atoms: N_19  and  S_20
REMARK    8  A    between atoms: S_20  and  C_23
REMARK                            x       y       z     vdW  Elec       q    Type
REMARK                         _______ _______ _______ _____ _____    ______ ____
ROOT
ATOM      1  C   UNL     1      -0.053  -4.162   2.541  0.00  0.00    +0.115 C 
ATOM      2  C   UNL     1       0.128  -2.649   2.687  0.00  0.00    +0.018 C 
ATOM      3  C   UNL     1       1.613  -2.298   2.572  0.00  0.00    +0.020 C 
ATOM      4  C   UNL     1       2.385  -2.988   3.701  0.00  0.00    +0.106 C 
ATOM      5  N   UNL     1       2.100  -4.429   3.656  0.00  0.00    -0.315 N 
ATOM      6  C   UNL     1       0.700  -4.874   3.669  0.00  0.00    +0.121 C 
ATOM      7  C   UNL     1       3.132  -5.350   3.603  0.00  0.00    +0.113 A 
ATOM      8  C   UNL     1       3.733  -5.794   4.794  0.00  0.00    +0.103 A 
ATOM      9  C   UNL     1       4.776  -6.728   4.717  0.00  0.00    +0.046 A 
ATOM     10  C   UNL     1       5.169  -7.173   3.462  0.00  0.00    +0.091 A 
ATOM     11  C   UNL     1       4.524  -6.685   2.332  0.00  0.00    +0.110 A 
ATOM     12  N   UNL     1       3.541  -5.811   2.432  0.00  0.00    -0.347 N 
ATOM     13  H   UNL     1       3.109  -5.494   1.623  0.00  0.00    +0.167 HD
ENDROOT
BRANCH   8  14
ATOM     14  C   UNL     1       3.277  -5.288   6.097  0.00  0.00    +0.390 C 
ATOM     15  O   UNL     1       3.875  -5.600   7.118  0.00  0.00    -0.240 OA
ATOM     16  O   UNL     1       2.299  -4.556   6.160  0.00  0.00    -0.240 OA
ENDBRANCH   8  14
BRANCH   1  17
ATOM     17  C   UNL     1      -1.519  -4.503   2.622  0.00  0.00    +0.312 C 
ATOM     18  O   UNL     1      -1.921  -5.240   3.490  0.00  0.00    -0.250 OA
BRANCH  17  19
ATOM     19  O   UNL     1      -2.378  -3.987   1.728  0.00  0.00    -0.465 OA
BRANCH  19  21
ATOM     20  C   UNL     1      -4.573  -3.674   0.766  0.00  0.00    +0.048 C 
ATOM     21  C   UNL     1      -3.753  -4.353   1.865  0.00  0.00    +0.229 C 
ENDBRANCH  19  21
ENDBRANCH  17  19
ENDBRANCH   1  17
BRANCH  10  22
ATOM     22  N   UNL     1       6.207  -8.105   3.336  0.00  0.00    -0.096 NA
BRANCH  22  23
ATOM     23  S   UNL     1       6.670  -8.631   1.836  0.00  0.00    +0.094 S 
ATOM     24  O   UNL     1       5.575  -9.367   1.308  0.00  0.00    -0.148 OA
ATOM     25  O   UNL     1       7.227  -7.508   1.166  0.00  0.00    -0.148 OA
BRANCH  23  26
ATOM     26  C   UNL     1       7.984  -9.781   2.069  0.00  0.00    +0.148 A 
ATOM     27  C   UNL     1       7.814 -11.107   1.717  0.00  0.00    +0.070 A 
ATOM     28  C   UNL     1       8.846 -12.010   1.900  0.00  0.00    +0.125 A 
ATOM     29  C   UNL     1      10.050 -11.586   2.436  0.00  0.00    +0.041 A 
ATOM     30  C   UNL     1      10.221 -10.261   2.788  0.00  0.00    +0.043 A 
ATOM     31  C   UNL     1       9.190  -9.356   2.600  0.00  0.00    +0.150 A 
ATOM     32  F   UNL     1       9.359  -8.059   2.940  0.00  0.00    -0.203 F 
ATOM     33  F   UNL     1       8.679 -13.306   1.556  0.00  0.00    -0.205 F 
ENDBRANCH  23  26
ENDBRANCH  22  23
ENDBRANCH  10  22
TORSDOF 7
