REMARK  Name = ZINC08646556
REMARK  7 active torsions:
REMARK  status: ('A' for Active; 'I' for Inactive)
REMARK    1  A    between atoms: C_1  and  C_2
REMARK    2  A    between atoms: C_2  and  C_21
REMARK    3  A    between atoms: N_5  and  C_9
REMARK    4  A    between atoms: C_9  and  C_10
REMARK    5  A    between atoms: N_12  and  C_13
REMARK    6  A    between atoms: C_13  and  C_14
REMARK    7  A    between atoms: C_24  and  N_27
REMARK                            x       y       z     vdW  Elec       q    Type
REMARK                         _______ _______ _______ _____ _____    ______ ____
ROOT
ATOM      1  C   UNL     1      -0.013   1.086   0.008  0.00  0.00    +0.047 C 
ATOM      2  C   UNL     1      -0.729   1.579   1.267  0.00  0.00    +0.135 C 
ATOM      3  C   UNL     1      -0.026   1.077   2.512  0.00  0.00    +0.251 C 
ATOM      4  O   UNL     1       1.113   1.312   2.855  0.00  0.00    -0.272 OA
ATOM      5  N   UNL     1      -0.929   0.314   3.158  0.00  0.00    -0.215 N 
ATOM      6  C   UNL     1      -2.094   0.265   2.501  0.00  0.00    +0.310 C 
ATOM      7  O   UNL     1      -3.062  -0.361   2.886  0.00  0.00    -0.252 OA
ATOM      8  N   UNL     1      -2.073   0.985   1.365  0.00  0.00    -0.281 N 
ATOM      9  H   UNL     1      -2.802   1.093   0.734  0.00  0.00    +0.152 HD
ENDROOT
BRANCH   2  10
ATOM     10  C   UNL     1      -0.809   3.084   1.274  0.00  0.00    -0.015 A 
ATOM     11  C   UNL     1       0.193   3.827   1.871  0.00  0.00    +0.008 A 
ATOM     12  C   UNL     1       0.122   5.207   1.873  0.00  0.00    +0.033 A 
ATOM     13  C   UNL     1      -0.956   5.845   1.288  0.00  0.00    +0.126 A 
ATOM     14  C   UNL     1      -1.960   5.102   0.696  0.00  0.00    +0.033 A 
ATOM     15  C   UNL     1      -1.887   3.722   0.689  0.00  0.00    +0.008 A 
BRANCH  13  16
ATOM     16  N   UNL     1      -1.035   7.323   1.296  0.00  0.00    +0.056 N 
ATOM     17  O   UNL     1      -1.985   7.885   0.780  0.00  0.00    -0.126 OA
ATOM     18  O   UNL     1      -0.150   7.977   1.817  0.00  0.00    -0.126 OA
ENDBRANCH  13  16
ENDBRANCH   2  10
BRANCH   5  19
ATOM     19  C   UNL     1      -0.669  -0.378   4.423  0.00  0.00    +0.213 C 
BRANCH  19  20
ATOM     20  C   UNL     1      -1.031   0.526   5.573  0.00  0.00    +0.231 C 
ATOM     21  O   UNL     1      -1.464   1.638   5.357  0.00  0.00    -0.274 OA
ATOM     22  N   UNL     1      -0.874   0.098   6.842  0.00  0.00    -0.310 N 
ATOM     23  H   UNL     1      -0.527  -0.791   7.014  0.00  0.00    +0.149 HD
BRANCH  22  24
ATOM     24  C   UNL     1      -1.226   0.977   7.960  0.00  0.00    +0.141 C 
BRANCH  24  25
ATOM     25  C   UNL     1      -0.958   0.266   9.261  0.00  0.00    -0.012 A 
ATOM     26  C   UNL     1      -1.999  -0.318   9.957  0.00  0.00    +0.006 A 
ATOM     27  C   UNL     1      -1.753  -0.974  11.149  0.00  0.00    +0.000 A 
ATOM     28  C   UNL     1      -0.466  -1.038  11.650  0.00  0.00    +0.001 A 
ATOM     29  C   UNL     1       0.576  -0.451  10.957  0.00  0.00    +0.020 A 
ATOM     30  C   UNL     1       0.330   0.202   9.762  0.00  0.00    +0.046 A 
ATOM     31 CL   UNL     1       1.638   0.941   8.892  0.00  0.00    -0.083 Cl
ENDBRANCH  24  25
ENDBRANCH  22  24
ENDBRANCH  19  20
ENDBRANCH   5  19
TORSDOF 6
