REMARK  Name = ZINC38814076
REMARK  9 active torsions:
REMARK  status: ('A' for Active; 'I' for Inactive)
REMARK    1  A    between atoms: C_1  and  C_2
REMARK    2  A    between atoms: C_4  and  C_17
REMARK    3  A    between atoms: C_6  and  C_16
REMARK    4  A    between atoms: N_8  and  C_10
REMARK    5  A    between atoms: N_18  and  N_19
REMARK    6  A    between atoms: C_20  and  C_22
REMARK    7  A    between atoms: C_25  and  C_28
REMARK    8  A    between atoms: C_31  and  O_34
REMARK    9  A    between atoms: O_34  and  C_35
REMARK                            x       y       z     vdW  Elec       q    Type
REMARK                         _______ _______ _______ _____ _____    ______ ____
ROOT
ATOM      1  N   UNL     1      -3.673  -0.344  -2.870  0.00  0.00    -0.205 N 
ATOM      2  C   UNL     1      -4.819   0.284  -3.200  0.00  0.00    +0.263 C 
ATOM      3  O   UNL     1      -5.372   1.000  -2.392  0.00  0.00    -0.271 OA
ATOM      4  H   UNL     1      -3.231  -0.917  -3.516  0.00  0.00    +0.177 HD
ENDROOT
BRANCH   2   5
ATOM      5  C   UNL     1      -5.413   0.097  -4.572  0.00  0.00    +0.240 C 
ATOM      6  C   UNL     1      -4.742   1.016  -5.577  0.00  0.00    +0.041 C 
ATOM      7  C   UNL     1      -5.745   1.802  -6.014  0.00  0.00    +0.092 C 
ATOM      8  N   UNL     1      -6.911   1.468  -5.403  0.00  0.00    -0.153 NA
ATOM      9  N   UNL     1      -6.818   0.536  -4.594  0.00  0.00    -0.170 NA
BRANCH   7  10
ATOM     10  C   UNL     1      -5.597   2.880  -7.022  0.00  0.00    +0.002 A 
ATOM     11  C   UNL     1      -4.351   3.136  -7.593  0.00  0.00    +0.013 A 
ATOM     12  C   UNL     1      -4.217   4.139  -8.530  0.00  0.00    +0.046 A 
ATOM     13  C   UNL     1      -5.320   4.894  -8.905  0.00  0.00    +0.120 A 
ATOM     14  C   UNL     1      -6.562   4.641  -8.338  0.00  0.00    +0.046 A 
ATOM     15  C   UNL     1      -6.704   3.636  -7.405  0.00  0.00    +0.013 A 
BRANCH  13  16
ATOM     16  O   UNL     1      -5.184   5.882  -9.828  0.00  0.00    -0.495 OA
ATOM     17  C   UNL     1      -6.361   6.619 -10.167  0.00  0.00    +0.277 C 
ENDBRANCH  13  16
ENDBRANCH   7  10
ENDBRANCH   2   5
BRANCH   1  19
ATOM     18  C   UNL     1      -2.032  -0.767  -1.282  0.00  0.00    +0.110 C 
ATOM     19  N   UNL     1      -3.120  -0.170  -1.595  0.00  0.00    -0.192 NA
BRANCH  18  22
ATOM     20  C   UNL     1      -0.019   1.526   0.010  0.00  0.00    +0.026 C 
ATOM     21  C   UNL     1       0.002  -0.004   0.002  0.00  0.00    +0.080 C 
ATOM     22  C   UNL     1      -1.438  -0.580   0.090  0.00  0.00    +0.072 C 
ATOM     23  C   UNL     1      -1.173  -1.943   0.774  0.00  0.00    +0.098 C 
ATOM     24  N   UNL     1       0.143  -1.809   1.419  0.00  0.00    -0.263 N 
ATOM     25  N   UNL     1       0.619  -0.534   1.245  0.00  0.00    -0.236 NA
ATOM     26  C   UNL     1      -2.252  -2.227   1.822  0.00  0.00    +0.030 C 
ATOM     27  H   UNL     1       0.392   0.048   2.038  0.00  0.00    +0.145 HD
BRANCH  24  28
ATOM     28  C   UNL     1       0.809  -2.827   2.104  0.00  0.00    +0.045 A 
ATOM     29  C   UNL     1       0.232  -4.086   2.213  0.00  0.00    +0.024 A 
ATOM     30  C   UNL     1       0.893  -5.091   2.891  0.00  0.00    +0.002 A 
ATOM     31  C   UNL     1       2.128  -4.845   3.462  0.00  0.00    +0.000 A 
ATOM     32  C   UNL     1       2.705  -3.593   3.357  0.00  0.00    +0.002 A 
ATOM     33  C   UNL     1       2.052  -2.585   2.675  0.00  0.00    +0.024 A 
ENDBRANCH  24  28
ENDBRANCH  18  22
ENDBRANCH   1  19
TORSDOF 6
