REMARK  Name = ZINC06098401
REMARK  5 active torsions:
REMARK  status: ('A' for Active; 'I' for Inactive)
REMARK    1  A    between atoms: C_3  and  N_11
REMARK    2  A    between atoms: C_4  and  N_8
REMARK    3  A    between atoms: C_12  and  C_14
REMARK    4  A    between atoms: C_14  and  S_15
REMARK    5  A    between atoms: S_15  and  C_16
REMARK                            x       y       z     vdW  Elec       q    Type
REMARK                         _______ _______ _______ _____ _____    ______ ____
ROOT
ATOM      1  N   UNL     1      -0.685  -5.272   0.005  0.00  0.00    -0.283 N 
ATOM      2  C   UNL     1       0.377  -4.442  -0.006  0.00  0.00    +0.228 C 
ATOM      3  O   UNL     1       1.502  -4.896  -0.008  0.00  0.00    -0.275 OA
ATOM      4  H   UNL     1      -1.582  -4.912   0.087  0.00  0.00    +0.155 HD
ENDROOT
BRANCH   1   7
ATOM      5  C   UNL     1       0.829  -8.517  -0.833  0.00  0.00    +0.022 A 
ATOM      6  C   UNL     1       0.643  -7.153  -0.727  0.00  0.00    +0.027 A 
ATOM      7  C   UNL     1      -0.494  -6.655  -0.104  0.00  0.00    +0.064 A 
ATOM      8  C   UNL     1      -1.438  -7.531   0.416  0.00  0.00    +0.149 A 
ATOM      9  C   UNL     1      -1.249  -8.894   0.304  0.00  0.00    +0.054 A 
ATOM     10  C   UNL     1      -0.115  -9.388  -0.318  0.00  0.00    +0.043 A 
ATOM     11 CL   UNL     1       0.123 -11.102  -0.452  0.00  0.00    -0.083 Cl
BRANCH   8  12
ATOM     12  N   UNL     1      -2.647  -7.003   1.086  0.00  0.00    +0.058 N 
ATOM     13  O   UNL     1      -3.430  -7.769   1.621  0.00  0.00    -0.126 OA
ATOM     14  O   UNL     1      -2.861  -5.804   1.103  0.00  0.00    -0.126 OA
ENDBRANCH   8  12
ENDBRANCH   1   7
BRANCH   2  15
ATOM     15  C   UNL     1       0.167  -2.950  -0.015  0.00  0.00    +0.173 C 
BRANCH  15  16
ATOM     16  S   UNL     1       1.772  -2.115  -0.028  0.00  0.00    -0.077 S 
BRANCH  16  17
ATOM     17  C   UNL     1       1.242  -0.434  -0.037  0.00  0.00    +0.192 A 
ATOM     18  N   UNL     1       0.000  -0.004  -0.034  0.00  0.00    -0.122 NA
ATOM     19  N   UNL     1      -0.018   1.283  -0.037  0.00  0.00    -0.134 NA
ATOM     20  C   UNL     1       1.198   1.743  -0.037  0.00  0.00    +0.134 A 
ATOM     21  N   UNL     1       2.041   0.668  -0.048  0.00  0.00    -0.306 N 
ATOM     22  C   UNL     1       3.503   0.708  -0.076  0.00  0.00    +0.125 C 
ATOM     23  C   UNL     1       3.987   1.999   0.590  0.00  0.00    +0.022 C 
ATOM     24  C   UNL     1       4.088   3.111  -0.453  0.00  0.00    +0.002 C 
ATOM     25  C   UNL     1       2.722   3.398  -1.068  0.00  0.00    +0.008 C 
ATOM     26  C   UNL     1       1.628   3.187  -0.016  0.00  0.00    +0.076 C 
ENDBRANCH  16  17
ENDBRANCH  15  16
ENDBRANCH   2  15
TORSDOF 5
