REMARK  Name = ZINC03417128
REMARK  6 active torsions:
REMARK  status: ('A' for Active; 'I' for Inactive)
REMARK    1  A    between atoms: C_1  and  C_2
REMARK    2  A    between atoms: C_8  and  C_16
REMARK    3  A    between atoms: C_16  and  O_18
REMARK    4  A    between atoms: O_18  and  C_19
REMARK    5  A    between atoms: C_19  and  C_21
REMARK    6  A    between atoms: C_19  and  C_22
REMARK                            x       y       z     vdW  Elec       q    Type
REMARK                         _______ _______ _______ _____ _____    ______ ____
ROOT
ATOM      1  C   UNL     1      -0.018   1.503   0.010  0.00  0.00    +0.044 C 
ATOM      2  C   UNL     1       0.002  -0.004   0.002  0.00  0.00    -0.050 A 
ATOM      3  C   UNL     1       0.006  -0.685  -1.214  0.00  0.00    +0.005 A 
ATOM      4  C   UNL     1       0.024  -2.045  -1.256  0.00  0.00    +0.028 A 
ATOM      5  C   UNL     1       0.038  -2.781  -0.057  0.00  0.00    +0.072 A 
ATOM      6  C   UNL     1       0.036  -2.084   1.177  0.00  0.00    +0.015 A 
ATOM      7  C   UNL     1       0.022  -0.683   1.183  0.00  0.00    +0.014 A 
ATOM      8  C   UNL     1       0.054  -2.832   2.378  0.00  0.00    +0.073 A 
ATOM      9  C   UNL     1       0.069  -4.224   2.289  0.00  0.00    -0.012 A 
ATOM     10  C   UNL     1       0.065  -4.832   1.041  0.00  0.00    +0.046 A 
ATOM     11  N   UNL     1       0.053  -4.112  -0.065  0.00  0.00    -0.251 NA
ATOM     12  C   UNL     1       0.065  -6.333   0.882  0.00  0.00    +0.056 C 
ATOM     13  C   UNL     1       0.516  -7.010   2.174  0.00  0.00    +0.006 C 
ATOM     14  C   UNL     1      -0.322  -6.455   3.332  0.00  0.00    +0.005 C 
ATOM     15  C   UNL     1       0.094  -5.006   3.576  0.00  0.00    +0.038 C 
ENDROOT
BRANCH   8  16
ATOM     16  C   UNL     1       0.057  -2.156   3.692  0.00  0.00    +0.341 C 
ATOM     17  O   UNL     1      -0.994  -1.891   4.241  0.00  0.00    -0.245 OA
BRANCH  16  18
ATOM     18  O   UNL     1       1.225  -1.835   4.282  0.00  0.00    -0.449 OA
BRANCH  18  19
ATOM     19  C   UNL     1       1.153  -1.184   5.552  0.00  0.00    +0.259 C 
ATOM     20  C   UNL     1       1.108   0.332   5.345  0.00  0.00    +0.062 C 
BRANCH  19  21
ATOM     21  C   UNL     1       2.366  -1.543   6.370  0.00  0.00    +0.261 C 
ATOM     22  O   UNL     1       3.252  -2.210   5.880  0.00  0.00    -0.271 OA
ATOM     23  N   UNL     1       2.466  -1.124   7.647  0.00  0.00    -0.237 N 
ATOM     24  C   UNL     1       3.551  -1.445   8.379  0.00  0.00    +0.303 C 
ATOM     25  O   UNL     1       4.439  -2.113   7.888  0.00  0.00    -0.253 OA
ATOM     26  N   UNL     1       3.651  -1.026   9.656  0.00  0.00    -0.313 N 
ATOM     27  H   UNL     1       1.757  -0.590   8.039  0.00  0.00    +0.159 HD
ATOM     28  H   UNL     1       2.942  -0.492  10.048  0.00  0.00    +0.146 HD
ATOM     29  H   UNL     1       4.431  -1.257  10.183  0.00  0.00    +0.146 HD
ENDBRANCH  19  21
ENDBRANCH  18  19
ENDBRANCH  16  18
ENDBRANCH   8  16
TORSDOF 4
