REMARK  Name = ZINC38744454
REMARK  9 active torsions:
REMARK  status: ('A' for Active; 'I' for Inactive)
REMARK    1  A    between atoms: C_1  and  C_2
REMARK    2  A    between atoms: C_2  and  C_3
REMARK    3  A    between atoms: C_2  and  C_4
REMARK    4  A    between atoms: C_6  and  C_10
REMARK    5  A    between atoms: C_14  and  C_19
REMARK    6  A    between atoms: C_22  and  O_27
REMARK    7  A    between atoms: C_23  and  O_25
REMARK    8  A    between atoms: O_25  and  C_26
REMARK    9  A    between atoms: O_27  and  C_28
REMARK                            x       y       z     vdW  Elec       q    Type
REMARK                         _______ _______ _______ _____ _____    ______ ____
ROOT
ATOM      1  C   UNL     1       0.938  -0.952   4.528  0.00  0.00    +0.182 C 
ATOM      2  N   UNL     1       2.033  -1.140   5.517  0.00  0.00    -0.265 N 
ATOM      3  N   UNL     1       1.621  -1.438   6.782  0.00  0.00    -0.220 N 
ATOM      4  C   UNL     1       2.144  -1.369   8.070  0.00  0.00    +0.182 A 
ATOM      5  N   UNL     1       1.249  -1.862   8.890  0.00  0.00    -0.127 NA
ATOM      6  N   UNL     1       0.202  -2.220   8.234  0.00  0.00    -0.120 NA
ATOM      7  C   UNL     1       0.370  -1.968   6.972  0.00  0.00    +0.211 A 
ATOM      8  S   UNL     1      -0.348  -1.996   5.341  0.00  0.00    -0.058 S 
ATOM      9  H   UNL     1       2.705  -1.817   5.187  0.00  0.00    +0.168 HD
ENDROOT
BRANCH   4  10
ATOM     10  C   UNL     1       3.471  -0.837   8.445  0.00  0.00    +0.024 A 
ATOM     11  C   UNL     1       4.444  -0.629   7.466  0.00  0.00    +0.015 A 
ATOM     12  C   UNL     1       5.681  -0.132   7.817  0.00  0.00    +0.050 A 
ATOM     13  C   UNL     1       5.963   0.161   9.143  0.00  0.00    +0.162 A 
ATOM     14  C   UNL     1       4.997  -0.045  10.126  0.00  0.00    +0.162 A 
ATOM     15  C   UNL     1       3.752  -0.536   9.779  0.00  0.00    +0.061 A 
BRANCH  14  16
ATOM     16  O   UNL     1       5.277   0.243  11.425  0.00  0.00    -0.491 OA
ATOM     17  C   UNL     1       4.240   0.007  12.380  0.00  0.00    +0.277 C 
ENDBRANCH  14  16
BRANCH  13  18
ATOM     18  O   UNL     1       7.185   0.650   9.485  0.00  0.00    -0.491 OA
ATOM     19  C   UNL     1       8.128   0.837   8.428  0.00  0.00    +0.277 C 
ENDBRANCH  13  18
ENDBRANCH   4  10
BRANCH   1  22
ATOM     20  C   UNL     1       0.731  -0.503   1.223  0.00  0.00    +0.064 C 
ATOM     21  C   UNL     1       0.194  -1.291   2.157  0.00  0.00    +0.029 C 
ATOM     22  C   UNL     1       1.322  -1.500   3.152  0.00  0.00    +0.185 C 
ATOM     23  N   UNL     1       2.427  -0.722   2.567  0.00  0.00    -0.177 NA
ATOM     24  N   UNL     1       2.019  -0.219   1.517  0.00  0.00    -0.158 NA
BRANCH  20  26
ATOM     25  C   UNL     1      -0.019   1.526   0.010  0.00  0.00    +0.014 C 
ATOM     26  C   UNL     1       0.002  -0.004   0.002  0.00  0.00    +0.033 C 
ATOM     27  C   UNL     1       0.718  -0.497  -1.257  0.00  0.00    +0.014 C 
ENDBRANCH  20  26
ENDBRANCH   1  22
TORSDOF 5
