REMARK  Name = ZINC08646825
REMARK  10 active torsions:
REMARK  status: ('A' for Active; 'I' for Inactive)
REMARK    1  A    between atoms: C_1  and  C_2
REMARK    2  A    between atoms: C_2  and  C_4
REMARK    3  A    between atoms: C_4  and  C_6
REMARK    4  A    between atoms: C_4  and  N_13
REMARK    5  A    between atoms: C_6  and  C_7
REMARK    6  A    between atoms: C_14  and  C_16
REMARK    7  A    between atoms: C_16  and  N_17
REMARK    8  A    between atoms: C_20  and  C_24
REMARK    9  A    between atoms: C_20  and  C_25
REMARK   10  A    between atoms: C_28  and  N_31
REMARK                            x       y       z     vdW  Elec       q    Type
REMARK                         _______ _______ _______ _____ _____    ______ ____
ROOT
ATOM      1  N   UNL     1       2.325  -3.515  -2.419  0.00  0.00    -0.215 N 
ATOM      2  C   UNL     1       1.640  -4.662  -2.596  0.00  0.00    +0.251 C 
ATOM      3  O   UNL     1       0.481  -4.778  -2.933  0.00  0.00    -0.272 OA
ATOM      4  C   UNL     1       2.619  -5.777  -2.286  0.00  0.00    +0.135 C 
ATOM      5  N   UNL     1       3.859  -5.062  -1.937  0.00  0.00    -0.281 N 
ATOM      6  C   UNL     1       3.590  -3.748  -2.049  0.00  0.00    +0.310 C 
ATOM      7  O   UNL     1       4.403  -2.871  -1.834  0.00  0.00    -0.252 OA
ATOM      8  C   UNL     1       2.127  -6.611  -1.101  0.00  0.00    +0.047 C 
ATOM      9  H   UNL     1       4.705  -5.460  -1.680  0.00  0.00    +0.152 HD
ENDROOT
BRANCH   4  10
ATOM     10  C   UNL     1       2.832  -6.648  -3.497  0.00  0.00    -0.015 A 
ATOM     11  C   UNL     1       1.813  -6.813  -4.417  0.00  0.00    +0.008 A 
ATOM     12  C   UNL     1       2.010  -7.608  -5.531  0.00  0.00    +0.033 A 
ATOM     13  C   UNL     1       3.222  -8.246  -5.718  0.00  0.00    +0.126 A 
ATOM     14  C   UNL     1       4.239  -8.085  -4.796  0.00  0.00    +0.033 A 
ATOM     15  C   UNL     1       4.043  -7.286  -3.685  0.00  0.00    +0.008 A 
BRANCH  13  16
ATOM     16  N   UNL     1       3.431  -9.103  -6.908  0.00  0.00    +0.056 N 
ATOM     17  O   UNL     1       4.498  -9.665  -7.073  0.00  0.00    -0.126 OA
ATOM     18  O   UNL     1       2.535  -9.244  -7.721  0.00  0.00    -0.126 OA
ENDBRANCH  13  16
ENDBRANCH   4  10
BRANCH   1  19
ATOM     19  C   UNL     1       1.758  -2.179  -2.614  0.00  0.00    +0.213 C 
BRANCH  19  21
ATOM     20  N   UNL     1       0.580  -0.478  -1.258  0.00  0.00    -0.304 N 
ATOM     21  C   UNL     1       1.163  -1.692  -1.318  0.00  0.00    +0.232 C 
ATOM     22  O   UNL     1       1.208  -2.392  -0.329  0.00  0.00    -0.274 OA
ATOM     23  H   UNL     1       0.544   0.082  -2.049  0.00  0.00    +0.149 HD
BRANCH  20  24
ATOM     24  C   UNL     1       0.002  -0.004   0.002  0.00  0.00    +0.143 C 
BRANCH  24  26
ATOM     25  C   UNL     1      -2.103  -0.476   1.471  0.00  0.00    +0.088 C 
ATOM     26  C   UNL     1      -1.405  -0.526   0.137  0.00  0.00    +0.151 C 
ATOM     27  O   UNL     1      -1.973  -0.985  -0.825  0.00  0.00    -0.296 OA
ENDBRANCH  24  26
BRANCH  24  28
ATOM     28  C   UNL     1      -0.019   1.526   0.010  0.00  0.00    +0.065 C 
BRANCH  28  29
ATOM     29  C   UNL     1       1.395   2.047  -0.000  0.00  0.00    -0.045 A 
ATOM     30  C   UNL     1       2.053   2.285   1.192  0.00  0.00    +0.004 A 
ATOM     31  C   UNL     1       3.352   2.759   1.182  0.00  0.00    +0.000 A 
ATOM     32  C   UNL     1       3.989   3.005  -0.020  0.00  0.00    +0.000 A 
ATOM     33  C   UNL     1       3.329   2.772  -1.212  0.00  0.00    +0.000 A 
ATOM     34  C   UNL     1       2.032   2.293  -1.202  0.00  0.00    +0.004 A 
ENDBRANCH  28  29
ENDBRANCH  24  28
ENDBRANCH  20  24
ENDBRANCH  19  21
ENDBRANCH   1  19
TORSDOF 8
