REMARK  Name = ZINC06975468
REMARK  5 active torsions:
REMARK  status: ('A' for Active; 'I' for Inactive)
REMARK    1  A    between atoms: C_1  and  C_2
REMARK    2  A    between atoms: C_9  and  S_12
REMARK    3  A    between atoms: S_12  and  C_13
REMARK    4  A    between atoms: C_13  and  C_14
REMARK    5  A    between atoms: C_22  and  C_25
REMARK                            x       y       z     vdW  Elec       q    Type
REMARK                         _______ _______ _______ _____ _____    ______ ____
ROOT
ATOM      1  C   UNL     1       2.383  -4.189  -0.043  0.00  0.00    +0.133 C 
ENDROOT
BRANCH   1   2
ATOM      2  C   UNL     1       2.397  -2.682  -0.035  0.00  0.00    +0.059 A 
ATOM      3  C   UNL     1       3.600  -2.003  -0.043  0.00  0.00    +0.094 A 
ATOM      4  C   UNL     1       3.587  -0.603  -0.035  0.00  0.00    +0.259 A 
ATOM      5  O   UNL     1       4.633   0.026  -0.041  0.00  0.00    -0.267 OA
ATOM      6  N   UNL     1       2.400   0.039  -0.021  0.00  0.00    -0.268 N 
ATOM      7  C   UNL     1       2.370   1.401  -0.013  0.00  0.00    +0.096 A 
ATOM      8  C   UNL     1       1.194   2.067   0.002  0.00  0.00    +0.019 A 
ATOM      9  C   UNL     1      -0.016   1.359   0.009  0.00  0.00    +0.008 A 
ATOM     10  C   UNL     1       0.002  -0.004   0.002  0.00  0.00    -0.008 A 
ATOM     11  C   UNL     1       1.236  -0.679  -0.013  0.00  0.00    +0.143 A 
ATOM     12  N   UNL     1       1.256  -2.011  -0.021  0.00  0.00    -0.233 NA
ATOM     13  C   UNL     1      -1.289  -0.781   0.010  0.00  0.00    +0.047 C 
ENDBRANCH   1   2
BRANCH   1  14
ATOM     14  S   UNL     1       1.952  -4.797   1.606  0.00  0.00    -0.082 S 
BRANCH  14  23
ATOM     15  C   UNL     1       2.575 -11.945  -1.105  0.00  0.00    +0.044 C 
ATOM     16  C   UNL     1       2.341 -10.805  -0.148  0.00  0.00    -0.048 A 
ATOM     17  C   UNL     1       1.999 -11.072   1.169  0.00  0.00    +0.005 A 
ATOM     18  C   UNL     1       1.781 -10.039   2.057  0.00  0.00    +0.028 A 
ATOM     19  C   UNL     1       1.904  -8.725   1.631  0.00  0.00    +0.067 A 
ATOM     20  C   UNL     1       2.250  -8.449   0.298  0.00  0.00    +0.090 A 
ATOM     21  C   UNL     1       2.468  -9.507  -0.588  0.00  0.00    +0.033 A 
ATOM     22  N   UNL     1       2.293  -7.097   0.167  0.00  0.00    -0.222 NA
ATOM     23  C   UNL     1       2.009  -6.535   1.316  0.00  0.00    +0.168 A 
ATOM     24  N   UNL     1       1.757  -7.496   2.254  0.00  0.00    -0.333 N 
ATOM     25  H   UNL     1       1.512  -7.341   3.211  0.00  0.00    +0.168 HD
ENDBRANCH  14  23
ENDBRANCH   1  14
TORSDOF 3
