REMARK  Name = ZINC63557893
REMARK  10 active torsions:
REMARK  status: ('A' for Active; 'I' for Inactive)
REMARK    1  A    between atoms: C_1  and  C_2
REMARK    2  A    between atoms: C_2  and  C_3
REMARK    3  A    between atoms: C_3  and  C_4
REMARK    4  A    between atoms: C_8  and  N_11
REMARK    5  A    between atoms: C_12  and  C_14
REMARK    6  A    between atoms: N_19  and  C_21
REMARK    7  A    between atoms: C_21  and  C_22
REMARK    8  A    between atoms: C_22  and  C_23
REMARK    9  A    between atoms: C_26  and  O_32
REMARK   10  A    between atoms: O_32  and  C_33
REMARK                            x       y       z     vdW  Elec       q    Type
REMARK                         _______ _______ _______ _____ _____    ______ ____
ROOT
ATOM      1  C   UNL     1      -3.821  -5.900   4.441  0.00  0.00    +0.101 C 
ATOM      2  C   UNL     1      -2.792  -5.920   5.596  0.00  0.00    +0.110 C 
ATOM      3  C   UNL     1      -3.314  -6.982   6.538  0.00  0.00    +0.216 C 
ATOM      4  O   UNL     1      -2.964  -7.120   7.691  0.00  0.00    -0.276 OA
ATOM      5  N   UNL     1      -4.223  -7.750   5.913  0.00  0.00    -0.300 N 
ATOM      6  C   UNL     1      -4.413  -7.324   4.520  0.00  0.00    +0.121 C 
ENDROOT
BRANCH   1   8
ATOM      7  N   UNL     1      -2.504  -4.508   2.876  0.00  0.00    -0.290 N 
ATOM      8  C   UNL     1      -3.140  -5.672   3.116  0.00  0.00    +0.220 C 
ATOM      9  O   UNL     1      -3.164  -6.536   2.265  0.00  0.00    -0.275 OA
ATOM     10  H   UNL     1      -2.485  -3.817   3.557  0.00  0.00    +0.151 HD
BRANCH   7  14
ATOM     11  C   UNL     1      -1.413  -2.063   0.004  0.00  0.00    +0.130 C 
ATOM     12  N   UNL     1      -2.796  -2.632   0.006  0.00  0.00    -0.241 NA
ATOM     13  N   UNL     1      -2.833  -3.982   0.529  0.00  0.00    -0.227 NA
ATOM     14  C   UNL     1      -1.842  -4.286   1.588  0.00  0.00    +0.216 C 
ATOM     15  S   UNL     1      -0.830  -2.744   1.622  0.00  0.00    -0.102 S 
ATOM     16  H   UNL     1      -3.205  -2.589  -0.915  0.00  0.00    +0.142 HD
ATOM     17  H   UNL     1      -3.766  -4.229   0.824  0.00  0.00    +0.143 HD
BRANCH  11  18
ATOM     18  C   UNL     1      -1.433  -0.534   0.013  0.00  0.00    +0.031 C 
BRANCH  18  20
ATOM     19  C   UNL     1      -0.019   1.526   0.010  0.00  0.00    +0.004 C 
ATOM     20  C   UNL     1       0.002  -0.004   0.002  0.00  0.00    -0.001 C 
ENDBRANCH  18  20
ENDBRANCH  11  18
ENDBRANCH   7  14
ENDBRANCH   1   8
BRANCH   5  21
ATOM     21  C   UNL     1      -4.933  -8.867   6.539  0.00  0.00    +0.112 C 
BRANCH  21  22
ATOM     22  C   UNL     1      -6.228  -8.357   7.175  0.00  0.00    +0.052 C 
BRANCH  22  23
ATOM     23  C   UNL     1      -6.958  -9.506   7.819  0.00  0.00    -0.040 C 
ATOM     24  C   UNL     1      -6.901  -9.881   9.117  0.00  0.00    +0.002 A 
ATOM     25  C   UNL     1      -6.169  -9.353  10.274  0.00  0.00    +0.055 A 
ATOM     26  C   UNL     1      -6.310  -9.950  11.482  0.00  0.00    +0.121 A 
ATOM     27  C   UNL     1      -7.139 -11.068  11.674  0.00  0.00    +0.047 A 
ATOM     28  C   UNL     1      -7.851 -11.626  10.671  0.00  0.00    +0.029 A 
ATOM     29  C   UNL     1      -7.774 -11.060   9.321  0.00  0.00    +0.043 A 
ATOM     30  N   UNL     1      -8.348 -11.400   8.194  0.00  0.00    -0.380 N 
ATOM     31  C   UNL     1      -7.910 -10.471   7.147  0.00  0.00    +0.144 C 
ATOM     32  H   UNL     1      -8.964 -12.140   8.074  0.00  0.00    +0.160 HD
BRANCH  26  33
ATOM     33  O   UNL     1      -5.625  -9.450  12.544  0.00  0.00    -0.495 OA
ATOM     34  C   UNL     1      -5.803 -10.110  13.799  0.00  0.00    +0.277 C 
ENDBRANCH  26  33
ENDBRANCH  22  23
ENDBRANCH  21  22
ENDBRANCH   5  21
TORSDOF 8
