REMARK  Name = ZINC16478521
REMARK  4 active torsions:
REMARK  status: ('A' for Active; 'I' for Inactive)
REMARK    1  A    between atoms: C_4  and  C_7
REMARK    2  A    between atoms: N_18  and  N_19
REMARK    3  A    between atoms: N_19  and  S_20
REMARK    4  A    between atoms: S_20  and  C_23
REMARK                            x       y       z     vdW  Elec       q    Type
REMARK                         _______ _______ _______ _____ _____    ______ ____
ROOT
ATOM      1  C   UNL     1       3.711  -0.707  -0.038  0.00  0.00    +0.136 C 
ATOM      2  C   UNL     1       4.013  -1.180  -1.439  0.00  0.00    +0.003 A 
ATOM      3  C   UNL     1       4.657  -0.355  -2.334  0.00  0.00    +0.008 A 
ATOM      4  C   UNL     1       4.917  -0.798  -3.619  0.00  0.00    +0.000 A 
ATOM      5  C   UNL     1       4.531  -2.069  -4.010  0.00  0.00    +0.002 A 
ATOM      6  C   UNL     1       3.889  -2.905  -3.121  0.00  0.00    +0.028 A 
ATOM      7  C   UNL     1       3.629  -2.467  -1.821  0.00  0.00    +0.073 A 
ATOM      8  N   UNL     1       3.022  -3.299  -0.921  0.00  0.00    -0.218 NA
ATOM      9  C   UNL     1       3.000  -3.017   0.358  0.00  0.00    +0.197 C 
ATOM     10  N   UNL     1       3.631  -1.890   0.834  0.00  0.00    -0.305 N 
ATOM     11  N   UNL     1       2.344  -3.849   1.230  0.00  0.00    -0.234 N 
ATOM     12  H   UNL     1       2.326  -3.643   2.177  0.00  0.00    +0.171 HD
ATOM     13  H   UNL     1       4.016  -1.875   1.724  0.00  0.00    +0.150 HD
ENDROOT
BRANCH   1  17
ATOM     14  C   UNL     1      -0.017   1.378   0.010  0.00  0.00    +0.000 A 
ATOM     15  C   UNL     1       1.171   2.086   0.002  0.00  0.00    +0.000 A 
ATOM     16  C   UNL     1       2.377   1.411  -0.013  0.00  0.00    +0.006 A 
ATOM     17  C   UNL     1       2.396   0.029  -0.020  0.00  0.00    -0.023 A 
ATOM     18  C   UNL     1       1.208  -0.679  -0.012  0.00  0.00    +0.006 A 
ATOM     19  C   UNL     1       0.002  -0.004   0.002  0.00  0.00    +0.000 A 
ENDBRANCH   1  17
BRANCH  11  20
ATOM     20  N   UNL     1       1.699  -4.997   0.751  0.00  0.00    -0.108 NA
ATOM     21  H   UNL     1       1.036  -4.923   0.047  0.00  0.00    +0.172 HD
BRANCH  20  22
ATOM     22  S   UNL     1       2.070  -6.481   1.386  0.00  0.00    +0.074 S 
ATOM     23  O   UNL     1       1.162  -7.409   0.808  0.00  0.00    -0.152 OA
ATOM     24  O   UNL     1       3.479  -6.627   1.281  0.00  0.00    -0.152 OA
BRANCH  22  25
ATOM     25  C   UNL     1       1.697  -6.418   3.107  0.00  0.00    +0.107 A 
ATOM     26  C   UNL     1       2.663  -6.012   4.009  0.00  0.00    +0.029 A 
ATOM     27  C   UNL     1       2.371  -5.963   5.359  0.00  0.00    +0.017 A 
ATOM     28  C   UNL     1       1.112  -6.319   5.808  0.00  0.00    +0.018 A 
ATOM     29  C   UNL     1       0.146  -6.725   4.905  0.00  0.00    +0.017 A 
ATOM     30  C   UNL     1       0.437  -6.769   3.555  0.00  0.00    +0.029 A 
ATOM     31 BR   UNL     1       0.712  -6.251   7.655  0.00  0.00    -0.050 Br
ENDBRANCH  22  25
ENDBRANCH  20  22
ENDBRANCH  11  20
TORSDOF 4
