REMARK  Name = ZINC39870681
REMARK  10 active torsions:
REMARK  status: ('A' for Active; 'I' for Inactive)
REMARK    1  A    between atoms: C_1  and  C_2
REMARK    2  A    between atoms: C_3  and  C_28
REMARK    3  A    between atoms: N_6  and  C_24
REMARK    4  A    between atoms: C_8  and  N_9
REMARK    5  A    between atoms: N_10  and  C_11
REMARK    6  A    between atoms: C_14  and  N_20
REMARK    7  A    between atoms: C_16  and  N_17
REMARK    8  A    between atoms: C_24  and  C_25
REMARK    9  A    between atoms: C_25  and  C_26
REMARK   10  A    between atoms: C_25  and  C_27
REMARK                            x       y       z     vdW  Elec       q    Type
REMARK                         _______ _______ _______ _____ _____    ______ ____
ROOT
ATOM      1  C   UNL     1      -0.018   1.503   0.010  0.00  0.00    +0.048 C 
ATOM      2  C   UNL     1       0.002  -0.004   0.002  0.00  0.00    +0.005 A 
ATOM      3  C   UNL     1       0.006  -0.705  -1.200  0.00  0.00    +0.121 A 
ATOM      4  C   UNL     1       0.025  -2.123  -1.178  0.00  0.00    +0.272 A 
ATOM      5  O   UNL     1       0.029  -2.745  -2.226  0.00  0.00    -0.266 OA
ATOM      6  N   UNL     1       0.040  -2.786  -0.008  0.00  0.00    -0.273 N 
ATOM      7  C   UNL     1       0.036  -2.123   1.175  0.00  0.00    +0.282 A 
ATOM      8  C   UNL     1       0.023  -0.725   1.208  0.00  0.00    +0.155 A 
ATOM      9  O   UNL     1       0.051  -2.818   2.329  0.00  0.00    -0.265 OA
ENDROOT
BRANCH   8  10
ATOM     10  N   UNL     1       0.026  -0.067   2.400  0.00  0.00    -0.143 NA
ATOM     11  N   UNL     1       0.046  -0.733   3.504  0.00  0.00    -0.147 NA
BRANCH  11  12
ATOM     12  C   UNL     1       0.048  -0.072   4.702  0.00  0.00    +0.116 A 
ATOM     13  C   UNL     1       0.024   1.325   4.733  0.00  0.00    +0.034 A 
ATOM     14  C   UNL     1       0.027   1.985   5.944  0.00  0.00    +0.035 A 
ATOM     15  C   UNL     1       0.054   1.266   7.127  0.00  0.00    +0.128 A 
ATOM     16  C   UNL     1       0.078  -0.117   7.104  0.00  0.00    +0.067 A 
ATOM     17  C   UNL     1       0.070  -0.790   5.900  0.00  0.00    +0.155 A 
BRANCH  17  18
ATOM     18  N   UNL     1       0.089  -2.270   5.877  0.00  0.00    +0.059 N 
ATOM     19  O   UNL     1       0.107  -2.890   6.915  0.00  0.00    -0.126 OA
ATOM     20  O   UNL     1       0.086  -2.859   4.821  0.00  0.00    -0.126 OA
ENDBRANCH  17  18
BRANCH  15  21
ATOM     21  N   UNL     1       0.058   1.982   8.422  0.00  0.00    +0.056 N 
ATOM     22  O   UNL     1       0.037   3.190   8.446  0.00  0.00    -0.126 OA
ATOM     23  O   UNL     1       0.081   1.357   9.458  0.00  0.00    -0.126 OA
ENDBRANCH  15  21
ENDBRANCH  11  12
ENDBRANCH   8  10
BRANCH   3  24
ATOM     24  C   UNL     1      -0.010  -0.001  -2.447  0.00  0.00    +0.105 C 
ATOM     25  N   UNL     1      -0.022   0.557  -3.437  0.00  0.00    -0.191 NA
ENDBRANCH   3  24
BRANCH   6  26
ATOM     26  C   UNL     1       0.060  -4.251  -0.011  0.00  0.00    +0.131 C 
BRANCH  26  27
ATOM     27  C   UNL     1       1.510  -4.741  -0.019  0.00  0.00    +0.003 C 
ATOM     28  C   UNL     1       2.195  -4.330   1.286  0.00  0.00    +0.009 C 
ATOM     29  C   UNL     1       1.532  -6.265  -0.148  0.00  0.00    +0.009 C 
ENDBRANCH  26  27
ENDBRANCH   6  26
TORSDOF 7
