REMARK  Name = ZINC51323453
REMARK  8 active torsions:
REMARK  status: ('A' for Active; 'I' for Inactive)
REMARK    1  A    between atoms: C_3  and  N_26
REMARK    2  A    between atoms: C_6  and  C_7
REMARK    3  A    between atoms: N_10  and  C_12
REMARK    4  A    between atoms: C_12  and  C_13
REMARK    5  A    between atoms: C_13  and  C_15
REMARK    6  A    between atoms: C_13  and  O_25
REMARK    7  A    between atoms: C_15  and  O_16
REMARK    8  A    between atoms: O_16  and  C_17
REMARK                            x       y       z     vdW  Elec       q    Type
REMARK                         _______ _______ _______ _____ _____    ______ ____
ROOT
ATOM      1  C   UNL     1      -1.271  -0.766   0.011  0.00  0.00    +0.181 A 
ATOM      2  N   UNL     1      -2.500  -0.233   0.020  0.00  0.00    -0.215 NA
ATOM      3  C   UNL     1      -3.396  -1.185   0.025  0.00  0.00    +0.219 A 
ATOM      4  N   UNL     1      -2.754  -2.368   0.019  0.00  0.00    -0.249 N 
ATOM      5  N   UNL     1      -1.380  -2.077   0.005  0.00  0.00    -0.150 NA
ENDROOT
BRANCH   1  11
ATOM      6  C   UNL     1      -0.017   1.389   0.010  0.00  0.00    +0.014 A 
ATOM      7  C   UNL     1       1.170   2.093   0.002  0.00  0.00    +0.033 A 
ATOM      8  C   UNL     1       2.377   1.418  -0.013  0.00  0.00    +0.126 A 
ATOM      9  C   UNL     1       2.402   0.035  -0.022  0.00  0.00    +0.033 A 
ATOM     10  C   UNL     1       1.221  -0.679  -0.014  0.00  0.00    +0.014 A 
ATOM     11  C   UNL     1       0.002  -0.004   0.002  0.00  0.00    +0.021 A 
BRANCH   8  12
ATOM     12  N   UNL     1       3.648   2.178  -0.022  0.00  0.00    +0.056 N 
ATOM     13  O   UNL     1       3.629   3.387  -0.015  0.00  0.00    -0.126 OA
ATOM     14  O   UNL     1       4.704   1.590  -0.036  0.00  0.00    -0.126 OA
ENDBRANCH   8  12
ENDBRANCH   1  11
BRANCH   4  15
ATOM     15  C   UNL     1      -3.368  -3.698   0.022  0.00  0.00    +0.180 C 
BRANCH  15  16
ATOM     16  C   UNL     1      -2.839  -4.506  -1.164  0.00  0.00    +0.173 C 
BRANCH  16  17
ATOM     17  O   UNL     1      -3.265  -3.896  -2.384  0.00  0.00    -0.387 OA
ATOM     18  H   UNL     1      -4.225  -3.841  -2.482  0.00  0.00    +0.210 HD
ENDBRANCH  16  17
BRANCH  16  19
ATOM     19  C   UNL     1      -3.383  -5.934  -1.091  0.00  0.00    +0.262 C 
BRANCH  19  20
ATOM     20  O   UNL     1      -2.798  -6.721  -2.131  0.00  0.00    -0.488 OA
BRANCH  20  21
ATOM     21  C   UNL     1      -3.178  -8.024  -2.208  0.00  0.00    +0.139 A 
ATOM     22  C   UNL     1      -4.099  -8.533  -1.304  0.00  0.00    +0.048 A 
ATOM     23  C   UNL     1      -4.483  -9.857  -1.383  0.00  0.00    +0.023 A 
ATOM     24  C   UNL     1      -3.951 -10.677  -2.363  0.00  0.00    +0.043 A 
ATOM     25  C   UNL     1      -3.033 -10.171  -3.266  0.00  0.00    +0.043 A 
ATOM     26  C   UNL     1      -2.649  -8.845  -3.194  0.00  0.00    +0.084 A 
ATOM     27 CL   UNL     1      -1.502  -8.209  -4.331  0.00  0.00    -0.080 Cl
ATOM     28 CL   UNL     1      -4.436 -12.341  -2.459  0.00  0.00    -0.083 Cl
ENDBRANCH  20  21
ENDBRANCH  19  20
ENDBRANCH  16  19
ENDBRANCH  15  16
ENDBRANCH   4  15
TORSDOF 8
