REMARK  Name = ZINC39756788
REMARK  11 active torsions:
REMARK  status: ('A' for Active; 'I' for Inactive)
REMARK    1  A    between atoms: C_1  and  C_2
REMARK    2  A    between atoms: C_4  and  S_9
REMARK    3  A    between atoms: C_5  and  C_8
REMARK    4  A    between atoms: S_9  and  N_12
REMARK    5  A    between atoms: N_12  and  C_13
REMARK    6  A    between atoms: C_13  and  C_14
REMARK    7  A    between atoms: C_14  and  C_15
REMARK    8  A    between atoms: N_17  and  C_18
REMARK    9  A    between atoms: C_18  and  C_20
REMARK   10  A    between atoms: C_18  and  C_27
REMARK   11  A    between atoms: C_20  and  C_21
REMARK                            x       y       z     vdW  Elec       q    Type
REMARK                         _______ _______ _______ _____ _____    ______ ____
ROOT
ATOM      1  C   UNL     1      -2.333  -4.796  -3.634  0.00  0.00    +0.215 C 
ATOM      2  O   UNL     1      -2.342  -5.318  -2.539  0.00  0.00    -0.276 OA
ATOM      3  N   UNL     1      -2.338  -5.560  -4.744  0.00  0.00    -0.308 N 
ATOM      4  H   UNL     1      -2.331  -5.143  -5.620  0.00  0.00    +0.149 HD
ENDROOT
BRANCH   1   5
ATOM      5  C   UNL     1      -2.318  -3.294  -3.753  0.00  0.00    +0.112 C 
BRANCH   5   6
ATOM      6  C   UNL     1      -2.316  -2.672  -2.355  0.00  0.00    +0.115 C 
BRANCH   6   7
ATOM      7  N   UNL     1      -2.300  -1.212  -2.470  0.00  0.00    -0.190 NA
ATOM      8  H   UNL     1      -2.076  -0.794  -3.317  0.00  0.00    +0.148 HD
BRANCH   7   9
ATOM      9  S   UNL     1      -2.666  -0.273  -1.156  0.00  0.00    +0.059 S 
ATOM     10  O   UNL     1      -3.870  -0.792  -0.609  0.00  0.00    -0.153 OA
ATOM     11  O   UNL     1      -2.539   1.079  -1.574  0.00  0.00    -0.153 OA
BRANCH   9  14
ATOM     12  C   UNL     1      -0.019   1.526   0.010  0.00  0.00    +0.047 C 
ATOM     13  C   UNL     1       0.002  -0.004   0.002  0.00  0.00    +0.196 C 
ATOM     14  C   UNL     1      -1.407  -0.548   0.046  0.00  0.00    +0.134 C 
ATOM     15  C   UNL     1      -1.526  -1.263   1.145  0.00  0.00    +0.061 C 
ATOM     16  N   UNL     1      -0.345  -1.271   1.865  0.00  0.00    -0.268 N 
ATOM     17  O   UNL     1       0.636  -0.500   1.190  0.00  0.00    -0.265 OA
ATOM     18  C   UNL     1      -2.784  -1.980   1.564  0.00  0.00    +0.067 C 
ATOM     19  H   UNL     1      -0.208  -1.735   2.706  0.00  0.00    +0.194 HD
ENDBRANCH   9  14
ENDBRANCH   7   9
ENDBRANCH   6   7
ENDBRANCH   5   6
ENDBRANCH   1   5
BRANCH   3  20
ATOM     20  C   UNL     1      -2.353  -7.020  -4.629  0.00  0.00    +0.110 C 
BRANCH  20  21
ATOM     21  C   UNL     1      -1.756  -7.629  -5.871  0.00  0.00    -0.027 A 
ATOM     22  C   UNL     1      -2.035  -7.084  -7.111  0.00  0.00    +0.005 A 
ATOM     23  C   UNL     1      -1.486  -7.642  -8.250  0.00  0.00    +0.000 A 
ATOM     24  C   UNL     1      -0.658  -8.745  -8.150  0.00  0.00    +0.000 A 
ATOM     25  C   UNL     1      -0.378  -9.289  -6.911  0.00  0.00    +0.000 A 
ATOM     26  C   UNL     1      -0.923  -8.728  -5.771  0.00  0.00    +0.005 A 
ENDBRANCH  20  21
BRANCH  20  27
ATOM     27  C   UNL     1      -3.796  -7.504  -4.467  0.00  0.00    +0.099 C 
BRANCH  27  28
ATOM     28  C   UNL     1      -4.354  -6.995  -3.163  0.00  0.00    +0.086 A 
ATOM     29  N   UNL     1      -4.280  -7.619  -1.998  0.00  0.00    -0.350 N 
ATOM     30  H   UNL     1      -3.861  -8.479  -1.840  0.00  0.00    +0.166 HD
ATOM     31  C   UNL     1      -4.890  -6.854  -1.070  0.00  0.00    +0.101 A 
ATOM     32  C   UNL     1      -5.338  -5.746  -1.694  0.00  0.00    +0.101 A 
ATOM     33  N   UNL     1      -4.991  -5.848  -2.994  0.00  0.00    -0.350 N 
ATOM     34  H   UNL     1      -5.179  -5.195  -3.685  0.00  0.00    +0.166 HD
ENDBRANCH  27  28
ENDBRANCH  20  27
ENDBRANCH   3  20
TORSDOF 9
