REMARK  Name = ZINC60495905
REMARK  7 active torsions:
REMARK  status: ('A' for Active; 'I' for Inactive)
REMARK    1  A    between atoms: C_1  and  C_2
REMARK    2  A    between atoms: C_4  and  N_23
REMARK    3  A    between atoms: C_5  and  S_9
REMARK    4  A    between atoms: C_7  and  C_8
REMARK    5  A    between atoms: S_9  and  N_12
REMARK    6  A    between atoms: N_12  and  C_13
REMARK    7  A    between atoms: C_13  and  C_14
REMARK                            x       y       z     vdW  Elec       q    Type
REMARK                         _______ _______ _______ _____ _____    ______ ____
ROOT
ATOM      1  S   UNL     1      -0.074  -4.754  -0.061  0.00  0.00    +0.061 S 
ATOM      2  O   UNL     1       1.022  -5.303  -0.781  0.00  0.00    -0.153 OA
ATOM      3  O   UNL     1      -0.221  -4.919   1.343  0.00  0.00    -0.153 OA
ENDROOT
BRANCH   1   8
ATOM      4  C   UNL     1      -0.021   1.188  -1.103  0.00  0.00    +0.044 C 
ATOM      5  C   UNL     1      -0.034  -0.296  -0.843  0.00  0.00    -0.045 A 
ATOM      6  C   UNL     1      -1.046  -0.856  -0.085  0.00  0.00    +0.038 A 
ATOM      7  C   UNL     1      -1.058  -2.217   0.153  0.00  0.00    +0.153 A 
ATOM      8  C   UNL     1      -0.059  -3.019  -0.366  0.00  0.00    +0.136 A 
ATOM      9  C   UNL     1       0.952  -2.459  -1.124  0.00  0.00    +0.034 A 
ATOM     10  C   UNL     1       0.962  -1.098  -1.366  0.00  0.00    -0.046 A 
ATOM     11  C   UNL     1       2.062  -0.489  -2.197  0.00  0.00    +0.044 C 
BRANCH   7  12
ATOM     12  N   UNL     1      -2.141  -2.817   0.965  0.00  0.00    +0.058 N 
ATOM     13  O   UNL     1      -2.942  -2.104   1.525  0.00  0.00    -0.126 OA
ATOM     14  O   UNL     1      -2.225  -4.018   1.069  0.00  0.00    -0.126 OA
ENDBRANCH   7  12
ENDBRANCH   1   8
BRANCH   1  15
ATOM     15  N   UNL     1      -1.449  -5.362  -0.755  0.00  0.00    -0.186 NA
ATOM     16  H   UNL     1      -2.134  -5.768  -0.201  0.00  0.00    +0.148 HD
BRANCH  15  17
ATOM     17  C   UNL     1      -1.631  -5.286  -2.207  0.00  0.00    +0.141 C 
BRANCH  17  18
ATOM     18  C   UNL     1      -2.710  -6.250  -2.629  0.00  0.00    -0.028 A 
ATOM     19  C   UNL     1      -2.381  -7.550  -2.964  0.00  0.00    +0.009 A 
ATOM     20  C   UNL     1      -3.367  -8.438  -3.351  0.00  0.00    +0.050 A 
ATOM     21  C   UNL     1      -4.689  -8.026  -3.404  0.00  0.00    +0.166 A 
ATOM     22  C   UNL     1      -5.021  -6.717  -3.066  0.00  0.00    +0.167 A 
ATOM     23  C   UNL     1      -4.027  -5.834  -2.674  0.00  0.00    +0.054 A 
ATOM     24  O   UNL     1      -6.370  -6.561  -3.197  0.00  0.00    -0.453 OA
ATOM     25  C   UNL     1      -6.808  -7.667  -4.009  0.00  0.00    +0.466 C 
ATOM     26  O   UNL     1      -5.831  -8.691  -3.747  0.00  0.00    -0.453 OA
ENDBRANCH  17  18
ENDBRANCH  15  17
ENDBRANCH   1  15
TORSDOF 5
