REMARK  Name = ZINC35201369
REMARK  9 active torsions:
REMARK  status: ('A' for Active; 'I' for Inactive)
REMARK    1  A    between atoms: C_4  and  C_7
REMARK    2  A    between atoms: C_7  and  N_8
REMARK    3  A    between atoms: N_11  and  C_12
REMARK    4  A    between atoms: C_12  and  C_13
REMARK    5  A    between atoms: C_16  and  S_27
REMARK    6  A    between atoms: N_17  and  C_18
REMARK    7  A    between atoms: C_21  and  N_24
REMARK    8  A    between atoms: S_27  and  C_28
REMARK    9  A    between atoms: C_28  and  C_29
REMARK                            x       y       z     vdW  Elec       q    Type
REMARK                         _______ _______ _______ _____ _____    ______ ____
ROOT
ATOM      1  C   UNL     1       7.196  -2.652   4.571  0.00  0.00    +0.156 A 
ATOM      2  N   UNL     1       7.816  -1.796   5.333  0.00  0.00    -0.132 NA
ATOM      3  N   UNL     1       7.823  -2.210   6.550  0.00  0.00    -0.122 NA
ATOM      4  C   UNL     1       7.202  -3.364   6.633  0.00  0.00    +0.196 A 
ATOM      5  N   UNL     1       6.776  -3.681   5.372  0.00  0.00    -0.273 N 
ENDROOT
BRANCH   5   6
ATOM      6  C   UNL     1       6.061  -4.822   4.981  0.00  0.00    +0.050 A 
ATOM      7  C   UNL     1       4.771  -4.699   4.484  0.00  0.00    +0.028 A 
ATOM      8  C   UNL     1       4.070  -5.825   4.100  0.00  0.00    +0.035 A 
ATOM      9  C   UNL     1       4.652  -7.075   4.210  0.00  0.00    +0.126 A 
ATOM     10  C   UNL     1       5.936  -7.201   4.706  0.00  0.00    +0.035 A 
ATOM     11  C   UNL     1       6.645  -6.078   5.086  0.00  0.00    +0.028 A 
BRANCH   9  12
ATOM     12  N   UNL     1       3.897  -8.280   3.798  0.00  0.00    +0.056 N 
ATOM     13  O   UNL     1       2.773  -8.171   3.365  0.00  0.00    -0.126 OA
ATOM     14  O   UNL     1       4.404  -9.373   3.894  0.00  0.00    -0.126 OA
ENDBRANCH   9  12
ENDBRANCH   5   6
BRANCH   1  15
ATOM     15  C   UNL     1       6.976  -2.531   3.085  0.00  0.00    +0.182 C 
BRANCH  15  19
ATOM     16  N   UNL     1       4.152  -0.952   1.338  0.00  0.00    -0.295 N 
ATOM     17  C   UNL     1       5.311  -1.601   1.569  0.00  0.00    +0.300 C 
ATOM     18  O   UNL     1       5.991  -1.982   0.636  0.00  0.00    -0.253 OA
ATOM     19  N   UNL     1       5.716  -1.826   2.834  0.00  0.00    -0.292 N 
ATOM     20  H   UNL     1       3.610  -0.648   2.082  0.00  0.00    +0.151 HD
ATOM     21  H   UNL     1       5.174  -1.522   3.579  0.00  0.00    +0.151 HD
BRANCH  16  22
ATOM     22  C   UNL     1       3.711  -0.707  -0.038  0.00  0.00    +0.141 C 
BRANCH  22  26
ATOM     23  C   UNL     1      -0.017   1.378   0.010  0.00  0.00    +0.000 A 
ATOM     24  C   UNL     1       1.171   2.086   0.002  0.00  0.00    +0.000 A 
ATOM     25  C   UNL     1       2.377   1.411  -0.013  0.00  0.00    +0.005 A 
ATOM     26  C   UNL     1       2.396   0.029  -0.020  0.00  0.00    -0.030 A 
ATOM     27  C   UNL     1       1.208  -0.679  -0.012  0.00  0.00    +0.005 A 
ATOM     28  C   UNL     1       0.002  -0.004   0.002  0.00  0.00    +0.000 A 
ENDBRANCH  22  26
ENDBRANCH  16  22
ENDBRANCH  15  19
ENDBRANCH   1  15
BRANCH   4  29
ATOM     29  S   UNL     1       6.957  -4.318   8.094  0.00  0.00    -0.081 S 
BRANCH  29  30
ATOM     30  C   UNL     1       7.750  -3.338   9.397  0.00  0.00    +0.112 C 
BRANCH  30  31
ATOM     31  C   UNL     1       7.611  -4.051  10.717  0.00  0.00    -0.037 A 
ATOM     32  C   UNL     1       6.511  -3.812  11.520  0.00  0.00    +0.004 A 
ATOM     33  C   UNL     1       6.383  -4.467  12.731  0.00  0.00    +0.000 A 
ATOM     34  C   UNL     1       7.356  -5.361  13.139  0.00  0.00    +0.000 A 
ATOM     35  C   UNL     1       8.455  -5.600  12.336  0.00  0.00    +0.000 A 
ATOM     36  C   UNL     1       8.581  -4.949  11.123  0.00  0.00    +0.004 A 
ENDBRANCH  30  31
ENDBRANCH  29  30
ENDBRANCH   4  29
TORSDOF 9
