REMARK  Name = ZINC07669794
REMARK  5 active torsions:
REMARK  status: ('A' for Active; 'I' for Inactive)
REMARK    1  A    between atoms: C_3  and  N_10
REMARK    2  A    between atoms: C_5  and  N_7
REMARK    3  A    between atoms: C_11  and  C_13
REMARK    4  A    between atoms: N_18  and  S_19
REMARK    5  A    between atoms: S_19  and  C_22
REMARK                            x       y       z     vdW  Elec       q    Type
REMARK                         _______ _______ _______ _____ _____    ______ ____
ROOT
ATOM      1  C   UNL     1       2.425  -4.236  -0.258  0.00  0.00    +0.166 C 
ATOM      2  C   UNL     1       1.685  -4.667  -1.542  0.00  0.00    +0.031 C 
ATOM      3  C   UNL     1       2.840  -4.871  -2.558  0.00  0.00    +0.019 C 
ATOM      4  C   UNL     1       3.958  -5.439  -1.647  0.00  0.00    +0.110 C 
ATOM      5  N   UNL     1       3.811  -4.714  -0.372  0.00  0.00    -0.165 NA
ENDROOT
BRANCH   1   7
ATOM      6  N   UNL     1       1.238  -2.080  -0.021  0.00  0.00    -0.284 N 
ATOM      7  C   UNL     1       2.410  -2.734  -0.137  0.00  0.00    +0.236 C 
ATOM      8  O   UNL     1       3.452  -2.114  -0.144  0.00  0.00    -0.274 OA
ATOM      9  H   UNL     1       0.410  -2.578   0.062  0.00  0.00    +0.155 HD
BRANCH   6  12
ATOM     10  C   UNL     1       0.248   1.380   0.736  0.00  0.00    +0.004 A 
ATOM     11  C   UNL     1       0.269  -0.001   0.737  0.00  0.00    +0.023 A 
ATOM     12  C   UNL     1       1.214  -0.681  -0.019  0.00  0.00    +0.036 A 
ATOM     13  C   UNL     1       2.137   0.031  -0.775  0.00  0.00    +0.056 A 
ATOM     14  C   UNL     1       2.112   1.412  -0.771  0.00  0.00    +0.128 A 
ATOM     15  C   UNL     1       1.168   2.086  -0.017  0.00  0.00    +0.033 A 
BRANCH  14  16
ATOM     16  N   UNL     1       3.098   2.172  -1.571  0.00  0.00    +0.056 N 
ATOM     17  O   UNL     1       3.933   1.579  -2.232  0.00  0.00    -0.126 OA
ATOM     18  O   UNL     1       3.076   3.389  -1.569  0.00  0.00    -0.126 OA
ENDBRANCH  14  16
ENDBRANCH   6  12
ENDBRANCH   1   7
BRANCH   5  19
ATOM     19  S   UNL     1       5.009  -4.477   0.746  0.00  0.00    +0.062 S 
ATOM     20  O   UNL     1       6.242  -4.576   0.047  0.00  0.00    -0.153 OA
ATOM     21  O   UNL     1       4.646  -3.323   1.491  0.00  0.00    -0.153 OA
BRANCH  19  22
ATOM     22  C   UNL     1       4.954  -5.837   1.865  0.00  0.00    +0.106 A 
ATOM     23  C   UNL     1       4.169  -5.766   3.001  0.00  0.00    +0.030 A 
ATOM     24  C   UNL     1       4.121  -6.834   3.876  0.00  0.00    +0.022 A 
ATOM     25  C   UNL     1       4.867  -7.971   3.621  0.00  0.00    +0.041 A 
ATOM     26  C   UNL     1       5.657  -8.040   2.487  0.00  0.00    +0.022 A 
ATOM     27  C   UNL     1       5.700  -6.973   1.610  0.00  0.00    +0.030 A 
ATOM     28 CL   UNL     1       4.814  -9.311   4.724  0.00  0.00    -0.084 Cl
ENDBRANCH  19  22
ENDBRANCH   5  19
TORSDOF 5
