REMARK  Name = ZINC07413430
REMARK  14 active torsions:
REMARK  status: ('A' for Active; 'I' for Inactive)
REMARK    1  A    between atoms: C_1  and  C_2
REMARK    2  A    between atoms: C_3  and  C_27
REMARK    3  A    between atoms: C_4  and  C_26
REMARK    4  A    between atoms: C_7  and  C_8
REMARK    5  A    between atoms: C_8  and  O_10
REMARK    6  A    between atoms: O_10  and  C_11
REMARK    7  A    between atoms: C_11  and  C_13
REMARK    8  A    between atoms: C_11  and  C_14
REMARK    9  A    between atoms: N_16  and  C_17
REMARK   10  A    between atoms: C_22  and  N_23
REMARK   11  A    between atoms: C_27  and  O_29
REMARK   12  A    between atoms: O_29  and  C_30
REMARK   13  A    between atoms: C_30  and  C_31
REMARK   14  A    between atoms: C_30  and  C_32
REMARK                            x       y       z     vdW  Elec       q    Type
REMARK                         _______ _______ _______ _____ _____    ______ ____
ROOT
ATOM      1  C   UNL     1       0.016  -0.383   2.498  0.00  0.00    +0.357 C 
ATOM      2  O   UNL     1      -0.013   0.802   2.768  0.00  0.00    -0.243 OA
ENDROOT
BRANCH   1   9
ATOM      3  C   UNL     1      -0.057   1.510   0.020  0.00  0.00    +0.047 C 
ATOM      4  C   UNL     1      -0.018   0.004   0.007  0.00  0.00    -0.005 A 
ATOM      5  C   UNL     1      -0.002  -0.827  -1.135  0.00  0.00    +0.083 A 
ATOM      6  C   UNL     1       0.034  -2.135  -0.686  0.00  0.00    +0.028 A 
ATOM      7  N   UNL     1       0.040  -2.122   0.656  0.00  0.00    -0.352 N 
ATOM      8  H   UNL     1       0.063  -2.907   1.225  0.00  0.00    +0.166 HD
ATOM      9  C   UNL     1       0.013  -0.816   1.097  0.00  0.00    +0.128 A 
ATOM     10  C   UNL     1       0.061  -3.365  -1.556  0.00  0.00    +0.064 C 
BRANCH   5  11
ATOM     11  C   UNL     1      -0.021  -0.385  -2.540  0.00  0.00    +0.341 C 
ATOM     12  O   UNL     1       1.024  -0.174  -3.124  0.00  0.00    -0.245 OA
BRANCH  11  13
ATOM     13  O   UNL     1      -1.196  -0.213  -3.177  0.00  0.00    -0.458 OA
BRANCH  13  14
ATOM     14  C   UNL     1      -1.139   0.218  -4.538  0.00  0.00    +0.171 C 
ATOM     15  C   UNL     1      -1.085  -1.004  -5.458  0.00  0.00    +0.052 C 
ATOM     16  C   UNL     1      -2.384   1.046  -4.863  0.00  0.00    +0.052 C 
ENDBRANCH  13  14
ENDBRANCH  11  13
ENDBRANCH   5  11
ENDBRANCH   1   9
BRANCH   1  17
ATOM     17  O   UNL     1       0.049  -1.299   3.487  0.00  0.00    -0.448 OA
BRANCH  17  18
ATOM     18  C   UNL     1       0.049  -0.806   4.829  0.00  0.00    +0.259 C 
ATOM     19  C   UNL     1      -1.393  -0.668   5.321  0.00  0.00    +0.062 C 
BRANCH  18  20
ATOM     20  C   UNL     1       0.793  -1.769   5.718  0.00  0.00    +0.258 C 
ATOM     21  O   UNL     1       1.276  -2.778   5.249  0.00  0.00    -0.271 OA
ATOM     22  N   UNL     1       0.923  -1.509   7.034  0.00  0.00    -0.281 N 
ATOM     23  H   UNL     1       0.608  -0.665   7.394  0.00  0.00    +0.155 HD
BRANCH  22  24
ATOM     24  C   UNL     1       1.511  -2.455   7.880  0.00  0.00    +0.064 A 
ATOM     25  C   UNL     1       1.487  -3.802   7.540  0.00  0.00    +0.025 A 
ATOM     26  C   UNL     1       2.069  -4.734   8.377  0.00  0.00    +0.002 A 
ATOM     27  C   UNL     1       2.675  -4.327   9.552  0.00  0.00    +0.002 A 
ATOM     28  C   UNL     1       2.700  -2.987   9.893  0.00  0.00    +0.034 A 
ATOM     29  C   UNL     1       2.125  -2.050   9.057  0.00  0.00    +0.147 A 
BRANCH  29  30
ATOM     30  N   UNL     1       2.158  -0.615   9.419  0.00  0.00    +0.058 N 
ATOM     31  O   UNL     1       2.769  -0.252  10.398  0.00  0.00    -0.126 OA
ATOM     32  O   UNL     1       1.575   0.195   8.737  0.00  0.00    -0.126 OA
ENDBRANCH  29  30
ENDBRANCH  22  24
ENDBRANCH  18  20
ENDBRANCH  17  18
ENDBRANCH   1  17
TORSDOF 9
