REMARK  Name = ZINC65315445
REMARK  8 active torsions:
REMARK  status: ('A' for Active; 'I' for Inactive)
REMARK    1  A    between atoms: C_1  and  C_2
REMARK    2  A    between atoms: C_4  and  C_33
REMARK    3  A    between atoms: C_6  and  N_8
REMARK    4  A    between atoms: N_11  and  C_12
REMARK    5  A    between atoms: C_15  and  N_18
REMARK    6  A    between atoms: C_24  and  C_27
REMARK    7  A    between atoms: N_29  and  C_30
REMARK    8  A    between atoms: C_30  and  C_31
REMARK                            x       y       z     vdW  Elec       q    Type
REMARK                         _______ _______ _______ _____ _____    ______ ____
ROOT
ATOM      1  C   UNL     1       0.111  -2.228   5.995  0.00  0.00    +0.035 A 
ATOM      2  C   UNL     1       0.706  -0.976   6.071  0.00  0.00    +0.025 A 
ATOM      3  C   UNL     1       0.740  -0.299   7.274  0.00  0.00    +0.025 A 
ATOM      4  C   UNL     1       0.179  -0.871   8.408  0.00  0.00    +0.035 A 
ATOM      5  C   UNL     1      -0.415  -2.123   8.332  0.00  0.00    +0.025 A 
ATOM      6  C   UNL     1      -0.454  -2.798   7.128  0.00  0.00    +0.025 A 
ENDROOT
BRANCH   4   7
ATOM      7  N   UNL     1       0.213  -0.184   9.629  0.00  0.00    -0.269 N 
ATOM      8  C   UNL     1       0.322  -0.869  10.785  0.00  0.00    +0.306 C 
ATOM      9  O   UNL     1       0.518  -2.069  10.764  0.00  0.00    -0.252 OA
ATOM     10  N   UNL     1       0.213  -0.224  11.963  0.00  0.00    -0.285 N 
ATOM     11  C   UNL     1      -0.149   1.200  12.007  0.00  0.00    +0.110 C 
ATOM     12  C   UNL     1      -1.356   1.373  12.934  0.00  0.00    +0.032 C 
ATOM     13  C   UNL     1      -1.036   0.764  14.301  0.00  0.00    +0.078 C 
ATOM     14  C   UNL     1      -0.760  -0.733  14.142  0.00  0.00    +0.032 C 
ATOM     15  C   UNL     1       0.447  -0.932  13.229  0.00  0.00    +0.110 C 
ATOM     16  H   UNL     1       0.160   0.784   9.642  0.00  0.00    +0.156 HD
BRANCH  13  17
ATOM     17  C   UNL     1      -2.208   0.964  15.226  0.00  0.00    +0.216 C 
ATOM     18  O   UNL     1      -3.202   1.537  14.832  0.00  0.00    -0.276 OA
ATOM     19  N   UNL     1      -2.153   0.505  16.492  0.00  0.00    -0.312 N 
ATOM     20  H   UNL     1      -1.358   0.047  16.808  0.00  0.00    +0.149 HD
BRANCH  19  21
ATOM     21  C   UNL     1      -3.293   0.699  17.392  0.00  0.00    +0.131 C 
BRANCH  21  22
ATOM     22  C   UNL     1      -2.978   0.100  18.738  0.00  0.00    -0.016 C 
ATOM     23  C   UNL     1      -3.068   0.833  19.820  0.00  0.00    +0.005 C 
ENDBRANCH  21  22
ENDBRANCH  19  21
ENDBRANCH  13  17
ENDBRANCH   4   7
BRANCH   1  27
ATOM     24  N   UNL     1       1.012  -3.356   2.682  0.00  0.00    -0.269 N 
ATOM     25  C   UNL     1       1.098  -2.794   3.904  0.00  0.00    +0.308 C 
ATOM     26  O   UNL     1       2.097  -2.178   4.221  0.00  0.00    -0.252 OA
ATOM     27  N   UNL     1       0.076  -2.915   4.774  0.00  0.00    -0.269 N 
ATOM     28  H   UNL     1       0.184  -3.773   2.397  0.00  0.00    +0.156 HD
ATOM     29  H   UNL     1      -0.683  -3.477   4.556  0.00  0.00    +0.156 HD
BRANCH  24  35
ATOM     30  C   UNL     1       2.827  -3.096  -1.880  0.00  0.00    +0.044 C 
ATOM     31  C   UNL     1       3.027  -3.213  -0.391  0.00  0.00    -0.048 A 
ATOM     32  C   UNL     1       4.305  -3.305   0.129  0.00  0.00    +0.006 A 
ATOM     33  C   UNL     1       4.492  -3.413   1.495  0.00  0.00    -0.048 A 
ATOM     34  C   UNL     1       3.403  -3.430   2.344  0.00  0.00    +0.026 A 
ATOM     35  C   UNL     1       2.118  -3.338   1.825  0.00  0.00    +0.035 A 
ATOM     36  C   UNL     1       1.934  -3.224   0.453  0.00  0.00    +0.026 A 
ATOM     37  C   UNL     1       5.887  -3.513   2.058  0.00  0.00    +0.044 C 
ENDBRANCH  24  35
ENDBRANCH   1  27
TORSDOF 6
