REMARK  Name = ZINC16847475
REMARK  6 active torsions:
REMARK  status: ('A' for Active; 'I' for Inactive)
REMARK    1  A    between atoms: C_1  and  C_2
REMARK    2  A    between atoms: C_5  and  S_8
REMARK    3  A    between atoms: S_8  and  N_11
REMARK    4  A    between atoms: C_14  and  C_29
REMARK    5  A    between atoms: C_15  and  N_17
REMARK    6  A    between atoms: N_20  and  C_21
REMARK                            x       y       z     vdW  Elec       q    Type
REMARK                         _______ _______ _______ _____ _____    ______ ____
ROOT
ATOM      1  N   UNL     1      -8.831   4.694   2.228  0.00  0.00    -0.194 N 
ATOM      2  C   UNL     1      -7.928   3.735   1.790  0.00  0.00    +0.179 A 
ATOM      3  N   UNL     1      -8.126   2.454   1.534  0.00  0.00    -0.227 NA
ATOM      4  C   UNL     1      -7.142   1.679   1.115  0.00  0.00    +0.069 A 
ATOM      5  C   UNL     1      -5.896   2.201   0.952  0.00  0.00    +0.097 A 
ATOM      6  S   UNL     1      -6.187   3.902   1.422  0.00  0.00    -0.036 S 
ATOM      7  C   UNL     1      -7.396   0.223   0.823  0.00  0.00    +0.068 C 
ATOM      8  H   UNL     1      -9.757   4.452   2.387  0.00  0.00    +0.176 HD
ENDROOT
BRANCH   5   9
ATOM      9  N   UNL     1      -4.714   1.580   0.528  0.00  0.00    -0.262 N 
ATOM     10  C   UNL     1      -3.575   2.294   0.431  0.00  0.00    +0.309 C 
ATOM     11  O   UNL     1      -3.574   3.478   0.710  0.00  0.00    -0.252 OA
ATOM     12  N   UNL     1      -2.438   1.697   0.023  0.00  0.00    -0.267 N 
ATOM     13  H   UNL     1      -4.715   0.636   0.305  0.00  0.00    +0.157 HD
ATOM     14  H   UNL     1      -2.454   0.772  -0.270  0.00  0.00    +0.156 HD
BRANCH  12  15
ATOM     15  C   UNL     1      -1.233   2.411   0.021  0.00  0.00    +0.072 A 
ATOM     16  C   UNL     1      -0.429   2.421   1.154  0.00  0.00    +0.064 A 
ATOM     17  C   UNL     1       0.757   3.132   1.151  0.00  0.00    +0.022 A 
ATOM     18  C   UNL     1       1.145   3.827   0.020  0.00  0.00    +0.003 A 
ATOM     19  C   UNL     1       0.349   3.815  -1.110  0.00  0.00    +0.022 A 
ATOM     20  C   UNL     1      -0.838   3.106  -1.114  0.00  0.00    +0.064 A 
ATOM     21 CL   UNL     1      -1.836   3.091  -2.534  0.00  0.00    -0.082 Cl
ATOM     22 CL   UNL     1      -0.915   1.548   2.573  0.00  0.00    -0.082 Cl
ENDBRANCH  12  15
ENDBRANCH   5   9
BRANCH   1  23
ATOM     23  S   UNL     1      -8.328   6.252   2.478  0.00  0.00    +0.074 S 
ATOM     24  O   UNL     1      -9.472   6.987   2.891  0.00  0.00    -0.150 OA
ATOM     25  O   UNL     1      -7.147   6.176   3.265  0.00  0.00    -0.150 OA
BRANCH  23  30
ATOM     26  C   UNL     1      -6.686   8.481  -2.883  0.00  0.00    +0.044 C 
ATOM     27  C   UNL     1      -7.096   7.925  -1.544  0.00  0.00    -0.050 A 
ATOM     28  C   UNL     1      -8.402   8.059  -1.110  0.00  0.00    +0.005 A 
ATOM     29  C   UNL     1      -8.778   7.548   0.118  0.00  0.00    +0.029 A 
ATOM     30  C   UNL     1      -7.848   6.903   0.913  0.00  0.00    +0.109 A 
ATOM     31  C   UNL     1      -6.542   6.773   0.481  0.00  0.00    +0.029 A 
ATOM     32  C   UNL     1      -6.167   7.280  -0.749  0.00  0.00    +0.005 A 
ENDBRANCH  23  30
ENDBRANCH   1  23
TORSDOF 4
