REMARK  Name = ZINC01314289
REMARK  4 active torsions:
REMARK  status: ('A' for Active; 'I' for Inactive)
REMARK    1  A    between atoms: C_3  and  N_20
REMARK    2  A    between atoms: C_6  and  C_7
REMARK    3  A    between atoms: C_7  and  S_8
REMARK    4  A    between atoms: S_8  and  C_9
REMARK                            x       y       z     vdW  Elec       q    Type
REMARK                         _______ _______ _______ _____ _____    ______ ____
ROOT
ATOM      1  S   UNL     1       3.836   0.640  -0.031  0.00  0.00    -0.083 S 
ENDROOT
BRANCH   1   2
ATOM      2  C   UNL     1       2.074   0.669  -0.014  0.00  0.00    +0.169 A 
ATOM      3  N   UNL     1       1.307   1.801  -0.001  0.00  0.00    -0.202 NA
ATOM      4  H   UNL     1       1.559  -1.460  -0.021  0.00  0.00    +0.168 HD
ATOM      5  C   UNL     1      -0.017   1.402   0.010  0.00  0.00    +0.179 A 
ATOM      6  C   UNL     1       0.002  -0.004   0.002  0.00  0.00    +0.087 A 
ATOM      7  N   UNL     1       1.303  -0.391  -0.013  0.00  0.00    -0.332 N 
ATOM      8  C   UNL     1      -1.211  -0.698   0.010  0.00  0.00    +0.051 A 
ATOM      9  C   UNL     1      -2.384   0.037   0.015  0.00  0.00    +0.061 A 
ATOM     10  C   UNL     1      -2.322   1.421   0.022  0.00  0.00    +0.133 A 
ATOM     11  N   UNL     1      -1.166   2.056   0.024  0.00  0.00    -0.233 NA
ATOM     12 CL   UNL     1      -3.921  -0.769   0.019  0.00  0.00    -0.082 Cl
ENDBRANCH   1   2
BRANCH   1  13
ATOM     13  C   UNL     1       4.121  -1.147  -0.044  0.00  0.00    +0.112 C 
BRANCH  13  19
ATOM     14  C   UNL     1       6.270  -1.543  -1.264  0.00  0.00    +0.007 A 
ATOM     15  C   UNL     1       7.630  -1.788  -1.279  0.00  0.00    +0.033 A 
ATOM     16  C   UNL     1       8.322  -1.920  -0.089  0.00  0.00    +0.126 A 
ATOM     17  C   UNL     1       7.654  -1.801   1.115  0.00  0.00    +0.033 A 
ATOM     18  C   UNL     1       6.294  -1.551   1.130  0.00  0.00    +0.007 A 
ATOM     19  C   UNL     1       5.603  -1.419  -0.060  0.00  0.00    -0.037 A 
BRANCH  16  20
ATOM     20  N   UNL     1       9.777  -2.187  -0.104  0.00  0.00    +0.056 N 
ATOM     21  O   UNL     1      10.387  -2.302   0.944  0.00  0.00    -0.126 OA
ATOM     22  O   UNL     1      10.366  -2.292  -1.166  0.00  0.00    -0.126 OA
ENDBRANCH  16  20
ENDBRANCH  13  19
ENDBRANCH   1  13
TORSDOF 4
