REMARK  Name = ZINC02498141
REMARK  11 active torsions:
REMARK  status: ('A' for Active; 'I' for Inactive)
REMARK    1  A    between atoms: C_1  and  C_2
REMARK    2  A    between atoms: C_2  and  O_3
REMARK    3  A    between atoms: O_3  and  C_4
REMARK    4  A    between atoms: C_4  and  C_6
REMARK    5  A    between atoms: C_7  and  C_29
REMARK    6  A    between atoms: C_8  and  C_24
REMARK    7  A    between atoms: C_10  and  N_11
REMARK    8  A    between atoms: C_12  and  C_14
REMARK    9  A    between atoms: C_24  and  O_26
REMARK   10  A    between atoms: O_26  and  C_27
REMARK   11  A    between atoms: C_27  and  C_28
REMARK                            x       y       z     vdW  Elec       q    Type
REMARK                         _______ _______ _______ _____ _____    ______ ____
ROOT
ATOM      1  C   UNL     1      -1.248  -2.099   0.003  0.00  0.00    +0.091 A 
ATOM      2  C   UNL     1      -1.287  -2.808  -1.187  0.00  0.00    -0.014 A 
ATOM      3  C   UNL     1      -1.339  -4.175  -1.111  0.00  0.00    +0.102 A 
ATOM      4  S   UNL     1      -1.333  -4.471   0.647  0.00  0.00    -0.066 S 
ATOM      5  C   UNL     1      -1.258  -2.829   1.197  0.00  0.00    +0.087 A 
ATOM      6  C   UNL     1      -1.274  -2.101  -2.518  0.00  0.00    +0.046 C 
ENDROOT
BRANCH   5   7
ATOM      7  N   UNL     1      -1.222  -2.357   2.493  0.00  0.00    -0.274 N 
ATOM      8  C   UNL     1      -1.240  -3.223   3.526  0.00  0.00    +0.271 C 
ATOM      9  O   UNL     1      -1.289  -4.418   3.316  0.00  0.00    -0.268 OA
ATOM     10  H   UNL     1      -1.183  -1.402   2.661  0.00  0.00    +0.156 HD
BRANCH   8  11
ATOM     11  C   UNL     1      -1.200  -2.716   4.919  0.00  0.00    +0.171 A 
ATOM     12  C   UNL     1      -1.212  -3.483   6.107  0.00  0.00    +0.027 A 
ATOM     13  C   UNL     1      -1.170  -2.570   7.100  0.00  0.00    +0.141 A 
ATOM     14  O   UNL     1      -1.123  -1.370   6.514  0.00  0.00    -0.359 OA
ATOM     15  N   UNL     1      -1.141  -1.462   5.305  0.00  0.00    -0.073 NA
ATOM     16  C   UNL     1      -1.179  -2.882   8.573  0.00  0.00    +0.077 C 
ATOM     17  C   UNL     1      -0.168  -3.999   8.855  0.00  0.00    +0.008 C 
ATOM     18  C   UNL     1      -0.841  -5.360   8.701  0.00  0.00    +0.001 C 
ATOM     19  C   UNL     1      -1.904  -5.321   7.605  0.00  0.00    +0.005 C 
ATOM     20  C   UNL     1      -1.244  -4.975   6.265  0.00  0.00    +0.041 C 
ENDBRANCH   8  11
ENDBRANCH   5   7
BRANCH   1  21
ATOM     21  C   UNL     1      -1.191  -0.632   0.010  0.00  0.00    +0.342 C 
ATOM     22  O   UNL     1      -2.220   0.016   0.023  0.00  0.00    -0.245 OA
BRANCH  21  23
ATOM     23  O   UNL     1       0.002  -0.004   0.002  0.00  0.00    -0.461 OA
BRANCH  23  25
ATOM     24  C   UNL     1       1.418   1.977  -0.001  0.00  0.00    +0.048 C 
ATOM     25  C   UNL     1      -0.018   1.448   0.010  0.00  0.00    +0.229 C 
ENDBRANCH  23  25
ENDBRANCH  21  23
ENDBRANCH   1  21
BRANCH   3  26
ATOM     26  C   UNL     1      -1.387  -5.149  -2.201  0.00  0.00    +0.346 C 
ATOM     27  O   UNL     1      -1.383  -4.769  -3.357  0.00  0.00    -0.244 OA
BRANCH  26  28
ATOM     28  O   UNL     1      -1.435  -6.468  -1.925  0.00  0.00    -0.461 OA
BRANCH  28  29
ATOM     29  C   UNL     1      -1.480  -7.363  -3.038  0.00  0.00    +0.229 C 
ATOM     30  C   UNL     1      -1.530  -8.806  -2.531  0.00  0.00    +0.048 C 
ENDBRANCH  28  29
ENDBRANCH  26  28
ENDBRANCH   3  26
TORSDOF 8
