REMARK  Name = ZINC63329519
REMARK  5 active torsions:
REMARK  status: ('A' for Active; 'I' for Inactive)
REMARK    1  A    between atoms: C_1  and  N_2
REMARK    2  A    between atoms: C_3  and  C_5
REMARK    3  A    between atoms: C_8  and  N_11
REMARK    4  A    between atoms: N_14  and  N_15
REMARK    5  A    between atoms: C_16  and  C_18
REMARK                            x       y       z     vdW  Elec       q    Type
REMARK                         _______ _______ _______ _____ _____    ______ ____
ROOT
ATOM      1  N   UNL     1      -0.030  -6.213   2.229  0.00  0.00    -0.295 N 
ATOM      2  C   UNL     1       0.092  -6.892   3.387  0.00  0.00    +0.316 C 
ATOM      3  O   UNL     1       0.185  -6.288   4.439  0.00  0.00    -0.251 OA
ATOM      4  N   UNL     1       0.110  -8.240   3.380  0.00  0.00    -0.218 N 
ATOM      5  H   UNL     1      -0.105  -6.695   1.390  0.00  0.00    +0.151 HD
ATOM      6  H   UNL     1       0.198  -8.728   4.213  0.00  0.00    +0.174 HD
ENDROOT
BRANCH   1  10
ATOM      7  C   UNL     1       0.625  -2.182   0.995  0.00  0.00    +0.075 C 
ATOM      8  C   UNL     1      -0.811  -2.712   1.006  0.00  0.00    +0.014 C 
ATOM      9  C   UNL     1      -0.790  -4.242   0.998  0.00  0.00    +0.023 C 
ATOM     10  C   UNL     1      -0.050  -4.748   2.237  0.00  0.00    +0.075 C 
ATOM     11  C   UNL     1       1.386  -4.219   2.226  0.00  0.00    +0.023 C 
ATOM     12  C   UNL     1       1.365  -2.689   2.235  0.00  0.00    +0.014 C 
BRANCH   7  15
ATOM     13  C   UNL     1      -0.018   1.461   0.010  0.00  0.00    +0.128 C 
ATOM     14  N   UNL     1       0.002  -0.004   0.002  0.00  0.00    -0.318 N 
ATOM     15  C   UNL     1       0.604  -0.675   1.004  0.00  0.00    +0.216 C 
ATOM     16  O   UNL     1       1.130  -0.067   1.911  0.00  0.00    -0.276 OA
ATOM     17  H   UNL     1      -0.418  -0.491  -0.724  0.00  0.00    +0.148 HD
ENDBRANCH   7  15
ENDBRANCH   1  10
BRANCH   4  18
ATOM     18  N   UNL     1       0.003  -8.935   2.168  0.00  0.00    -0.229 N 
ATOM     19  C   UNL     1       0.021 -10.283   2.161  0.00  0.00    +0.267 C 
ATOM     20  O   UNL     1       0.131 -10.895   3.207  0.00  0.00    -0.268 OA
ATOM     21  H   UNL     1      -0.085  -8.447   1.335  0.00  0.00    +0.173 HD
BRANCH  19  22
ATOM     22  C   UNL     1      -0.092 -11.010   0.893  0.00  0.00    +0.076 A 
ATOM     23  C   UNL     1      -0.100 -12.373   0.668  0.00  0.00    +0.024 A 
ATOM     24  C   UNL     1      -0.220 -12.794  -0.653  0.00  0.00    -0.036 A 
ATOM     25  C   UNL     1      -0.316 -11.818  -1.594  0.00  0.00    -0.006 A 
ATOM     26  S   UNL     1      -0.262 -10.368  -0.761  0.00  0.00    -0.088 S 
ATOM     27  C   UNL     1      -0.446 -11.984  -3.079  0.00  0.00    +0.043 C 
ATOM     28  C   UNL     1      -1.151 -13.310  -3.386  0.00  0.00    +0.005 C 
ATOM     29  C   UNL     1      -0.097 -14.406  -3.502  0.00  0.00    +0.001 C 
ATOM     30  C   UNL     1       0.672 -14.553  -2.192  0.00  0.00    +0.005 C 
ATOM     31  C   UNL     1      -0.244 -14.278  -1.003  0.00  0.00    +0.036 C 
ENDBRANCH  19  22
ENDBRANCH   4  18
TORSDOF 4
