REMARK  Name = ZINC59832257
REMARK  10 active torsions:
REMARK  status: ('A' for Active; 'I' for Inactive)
REMARK    1  A    between atoms: C_2  and  C_3
REMARK    2  A    between atoms: C_3  and  N_4
REMARK    3  A    between atoms: C_6  and  C_9
REMARK    4  A    between atoms: N_10  and  N_11
REMARK    5  A    between atoms: C_14  and  S_17
REMARK    6  A    between atoms: S_17  and  C_18
REMARK    7  A    between atoms: C_18  and  C_19
REMARK    8  A    between atoms: C_19  and  C_20
REMARK    9  A    between atoms: N_22  and  C_23
REMARK   10  A    between atoms: C_24  and  C_32
REMARK                            x       y       z     vdW  Elec       q    Type
REMARK                         _______ _______ _______ _____ _____    ______ ____
ROOT
ATOM      1  N   UNL     1      -1.728  -6.599  -4.383  0.00  0.00    -0.205 N 
ATOM      2  C   UNL     1      -1.648  -6.949  -5.718  0.00  0.00    +0.232 A 
ATOM      3  N   UNL     1      -1.420  -6.128  -6.722  0.00  0.00    -0.186 NA
ATOM      4  C   UNL     1      -1.411  -6.813  -7.870  0.00  0.00    +0.210 A 
ATOM      5  N   UNL     1      -1.633  -8.080  -7.613  0.00  0.00    -0.144 NA
ATOM      6  N   UNL     1      -1.785  -8.194  -6.222  0.00  0.00    -0.245 N 
ATOM      7  H   UNL     1      -1.897  -7.279  -3.713  0.00  0.00    +0.177 HD
ATOM      8  H   UNL     1      -1.956  -9.008  -5.721  0.00  0.00    +0.192 HD
ENDROOT
BRANCH   1  10
ATOM      9  C   UNL     1      -1.641  -4.933  -2.747  0.00  0.00    +0.141 C 
ATOM     10  N   UNL     1      -1.566  -5.261  -3.999  0.00  0.00    -0.187 NA
BRANCH   9  13
ATOM     11  N   UNL     1      -1.318  -1.700  -1.126  0.00  0.00    -0.267 N 
ATOM     12  C   UNL     1      -1.524  -3.030  -1.056  0.00  0.00    +0.118 A 
ATOM     13  C   UNL     1      -1.470  -3.523  -2.342  0.00  0.00    +0.032 A 
ATOM     14  C   UNL     1      -1.221  -2.431  -3.200  0.00  0.00    +0.143 A 
ATOM     15  N   UNL     1      -1.138  -1.351  -2.470  0.00  0.00    -0.179 NA
BRANCH  11  16
ATOM     16  C   UNL     1      -1.293  -0.775   0.010  0.00  0.00    +0.170 C 
BRANCH  16  18
ATOM     17  C   UNL     1      -0.016   1.306   0.009  0.00  0.00    +0.006 C 
ATOM     18  C   UNL     1       0.002  -0.004   0.002  0.00  0.00    -0.012 C 
ENDBRANCH  16  18
ENDBRANCH  11  16
ENDBRANCH   9  13
ENDBRANCH   1  10
BRANCH   4  19
ATOM     19  S   UNL     1      -1.144  -6.125  -9.470  0.00  0.00    -0.084 S 
BRANCH  19  20
ATOM     20  C   UNL     1      -1.253  -7.552 -10.585  0.00  0.00    +0.086 C 
BRANCH  20  21
ATOM     21  C   UNL     1      -1.037  -7.090 -12.028  0.00  0.00    +0.107 C 
BRANCH  21  22
ATOM     22  C   UNL     1      -1.127  -8.275 -12.954  0.00  0.00    +0.218 C 
ATOM     23  O   UNL     1      -1.343  -9.381 -12.505  0.00  0.00    -0.275 OA
ATOM     24  N   UNL     1      -0.968  -8.107 -14.282  0.00  0.00    -0.279 N 
ATOM     25  H   UNL     1      -0.795  -7.222 -14.641  0.00  0.00    +0.155 HD
BRANCH  24  26
ATOM     26  C   UNL     1      -1.051  -9.198 -15.135  0.00  0.00    +0.090 A 
ATOM     27  C   UNL     1      -0.910  -9.215 -16.512  0.00  0.00    +0.084 A 
ATOM     28  C   UNL     1      -1.042 -10.498 -17.179  0.00  0.00    -0.018 A 
ATOM     29  C   UNL     1      -1.292 -11.531 -16.344  0.00  0.00    -0.004 A 
ATOM     30  S   UNL     1      -1.339 -10.803 -14.732  0.00  0.00    -0.077 S 
ATOM     31  C   UNL     1      -1.481 -12.968 -16.721  0.00  0.00    +0.043 C 
ATOM     32  C   UNL     1      -1.722 -13.040 -18.236  0.00  0.00    +0.005 C 
ATOM     33  C   UNL     1      -0.663 -12.194 -18.948  0.00  0.00    +0.005 C 
ATOM     34  C   UNL     1      -0.917 -10.708 -18.680  0.00  0.00    +0.037 C 
BRANCH  27  35
ATOM     35  C   UNL     1      -0.645  -8.016 -17.249  0.00  0.00    +0.102 C 
ATOM     36  N   UNL     1      -0.434  -7.065 -17.834  0.00  0.00    -0.191 NA
ENDBRANCH  27  35
ENDBRANCH  24  26
ENDBRANCH  21  22
ENDBRANCH  20  21
ENDBRANCH  19  20
ENDBRANCH   4  19
TORSDOF 10
