REMARK  Name = ZINC09347495
REMARK  17 active torsions:
REMARK  status: ('A' for Active; 'I' for Inactive)
REMARK    1  A    between atoms: C_1  and  C_2
REMARK    2  A    between atoms: C_2  and  O_3
REMARK    3  A    between atoms: O_3  and  C_4
REMARK    4  A    between atoms: C_4  and  C_6
REMARK    5  A    between atoms: C_7  and  C_33
REMARK    6  A    between atoms: C_8  and  C_28
REMARK    7  A    between atoms: C_10  and  N_11
REMARK    8  A    between atoms: C_12  and  C_14
REMARK    9  A    between atoms: C_14  and  S_15
REMARK   10  A    between atoms: S_15  and  C_16
REMARK   11  A    between atoms: C_22  and  C_24
REMARK   12  A    between atoms: C_24  and  C_25
REMARK   13  A    between atoms: C_25  and  C_26
REMARK   14  A    between atoms: C_25  and  C_27
REMARK   15  A    between atoms: C_28  and  O_30
REMARK   16  A    between atoms: O_30  and  C_31
REMARK   17  A    between atoms: C_31  and  C_32
REMARK                            x       y       z     vdW  Elec       q    Type
REMARK                         _______ _______ _______ _____ _____    ______ ____
ROOT
ATOM      1  N   UNL     1       1.143   1.898   0.001  0.00  0.00    -0.279 N 
ATOM      2  C   UNL     1      -0.014   1.208   0.009  0.00  0.00    +0.228 C 
ATOM      3  O   UNL     1       0.002  -0.004   0.002  0.00  0.00    -0.275 OA
ATOM      4  H   UNL     1       1.130   2.868   0.007  0.00  0.00    +0.155 HD
ENDROOT
BRANCH   1   9
ATOM      5  C   UNL     1       3.644   1.754  -0.023  0.00  0.00    +0.091 A 
ATOM      6  C   UNL     1       4.705   0.862  -0.038  0.00  0.00    -0.014 A 
ATOM      7  C   UNL     1       4.412  -0.475  -0.042  0.00  0.00    +0.102 A 
ATOM      8  S   UNL     1       2.629  -0.486  -0.018  0.00  0.00    -0.066 S 
ATOM      9  C   UNL     1       2.349   1.224  -0.014  0.00  0.00    +0.087 A 
ATOM     10  C   UNL     1       6.132   1.348  -0.049  0.00  0.00    +0.046 C 
BRANCH   5  11
ATOM     11  C   UNL     1       3.871   3.203  -0.019  0.00  0.00    +0.342 C 
ATOM     12  O   UNL     1       3.975   3.799   1.036  0.00  0.00    -0.245 OA
BRANCH  11  13
ATOM     13  O   UNL     1       3.964   3.875  -1.184  0.00  0.00    -0.461 OA
BRANCH  13  15
ATOM     14  C   UNL     1       4.266   5.891  -2.515  0.00  0.00    +0.048 C 
ATOM     15  C   UNL     1       4.189   5.307  -1.104  0.00  0.00    +0.229 C 
ENDBRANCH  13  15
ENDBRANCH  11  13
ENDBRANCH   5  11
BRANCH   7  16
ATOM     16  C   UNL     1       5.332  -1.612  -0.056  0.00  0.00    +0.346 C 
ATOM     17  O   UNL     1       6.534  -1.422  -0.066  0.00  0.00    -0.244 OA
BRANCH  16  18
ATOM     18  O   UNL     1       4.848  -2.872  -0.058  0.00  0.00    -0.461 OA
BRANCH  18  19
ATOM     19  C   UNL     1       5.804  -3.934  -0.071  0.00  0.00    +0.229 C 
ATOM     20  C   UNL     1       5.073  -5.278  -0.071  0.00  0.00    +0.048 C 
ENDBRANCH  18  19
ENDBRANCH  16  18
ENDBRANCH   7  16
ENDBRANCH   1   9
BRANCH   2  21
ATOM     21  C   UNL     1      -1.330   1.944   0.019  0.00  0.00    +0.172 C 
BRANCH  21  22
ATOM     22  S   UNL     1      -2.692   0.747   0.019  0.00  0.00    -0.088 S 
BRANCH  22  23
ATOM     23  C   UNL     1      -4.141   1.750   0.031  0.00  0.00    +0.160 A 
ATOM     24  N   UNL     1      -4.264   3.069   0.038  0.00  0.00    -0.133 NA
ATOM     25  N   UNL     1      -5.391   3.634   0.047  0.00  0.00    -0.125 NA
ATOM     26  C   UNL     1      -6.521   2.945   0.049  0.00  0.00    +0.189 A 
ATOM     27  S   UNL     1      -5.868   1.277   0.029  0.00  0.00    -0.024 S 
ATOM     28  N   UNL     1      -7.841   3.389   0.058  0.00  0.00    -0.263 N 
ATOM     29  C   UNL     1      -8.107   4.710   0.066  0.00  0.00    +0.219 C 
ATOM     30  O   UNL     1      -7.197   5.512   0.066  0.00  0.00    -0.275 OA
ATOM     31  H   UNL     1      -8.568   2.748   0.059  0.00  0.00    +0.157 HD
BRANCH  29  32
ATOM     32  C   UNL     1      -9.535   5.191   0.076  0.00  0.00    +0.099 C 
BRANCH  32  33
ATOM     33  C   UNL     1      -9.558   6.721   0.084  0.00  0.00    -0.008 C 
ATOM     34  C   UNL     1      -8.963   7.247  -1.224  0.00  0.00    +0.008 C 
ATOM     35  C   UNL     1     -11.001   7.209   0.220  0.00  0.00    +0.008 C 
ENDBRANCH  32  33
ENDBRANCH  29  32
ENDBRANCH  22  23
ENDBRANCH  21  22
ENDBRANCH   2  21
TORSDOF 12
