REMARK  Name = ZINC00687046
REMARK  5 active torsions:
REMARK  status: ('A' for Active; 'I' for Inactive)
REMARK    1  A    between atoms: C_1  and  C_2
REMARK    2  A    between atoms: C_9  and  N_14
REMARK    3  A    between atoms: C_10  and  C_11
REMARK    4  A    between atoms: C_15  and  C_17
REMARK    5  A    between atoms: C_22  and  N_23
REMARK                            x       y       z     vdW  Elec       q    Type
REMARK                         _______ _______ _______ _____ _____    ______ ____
ROOT
ATOM      1  C   UNL     1      -7.575  -2.689   0.276  0.00  0.00    +0.008 C 
ATOM      2  C   UNL     1      -6.603  -1.539   0.546  0.00  0.00    -0.009 C 
ATOM      3  C   UNL     1      -7.013  -0.313  -0.274  0.00  0.00    +0.008 C 
ATOM      4  C   UNL     1      -6.205   0.907   0.174  0.00  0.00    +0.037 C 
ATOM      5  C   UNL     1      -4.724   0.552   0.141  0.00  0.00    -0.023 A 
ATOM      6  C   UNL     1      -4.317  -0.736   0.123  0.00  0.00    -0.004 A 
ATOM      7  S   UNL     1      -2.549  -0.651   0.086  0.00  0.00    -0.077 S 
ATOM      8  C   UNL     1      -2.351   1.070   0.094  0.00  0.00    +0.085 A 
ATOM      9  C   UNL     1      -3.657   1.538   0.130  0.00  0.00    +0.068 A 
ATOM     10  C   UNL     1      -5.184  -1.957   0.134  0.00  0.00    +0.046 C 
ENDROOT
BRANCH   9  11
ATOM     11  C   UNL     1      -3.949   2.975   0.153  0.00  0.00    +0.244 C 
ATOM     12  O   UNL     1      -4.095   3.583  -0.890  0.00  0.00    -0.270 OA
ATOM     13  N   UNL     1      -4.055   3.622   1.331  0.00  0.00    -0.325 N 
ATOM     14  H   UNL     1      -3.938   3.137   2.163  0.00  0.00    +0.145 HD
ATOM     15  H   UNL     1      -4.248   4.572   1.347  0.00  0.00    +0.145 HD
ENDBRANCH   9  11
BRANCH   8  16
ATOM     16  N   UNL     1      -1.174   1.801   0.074  0.00  0.00    -0.275 N 
ATOM     17  C   UNL     1       0.014   1.165   0.045  0.00  0.00    +0.251 C 
ATOM     18  O   UNL     1       0.053  -0.050   0.035  0.00  0.00    -0.270 OA
ATOM     19  H   UNL     1      -1.205   2.771   0.082  0.00  0.00    +0.156 HD
BRANCH  17  20
ATOM     20  C   UNL     1       1.269   1.945   0.018  0.00  0.00    +0.067 A 
ATOM     21  C   UNL     1       1.526   2.894   1.010  0.00  0.00    +0.015 A 
ATOM     22  C   UNL     1       2.702   3.615   0.981  0.00  0.00    +0.001 A 
ATOM     23  C   UNL     1       3.620   3.408  -0.032  0.00  0.00    +0.002 A 
ATOM     24  C   UNL     1       3.369   2.473  -1.021  0.00  0.00    +0.033 A 
ATOM     25  C   UNL     1       2.200   1.741  -1.002  0.00  0.00    +0.138 A 
BRANCH  25  26
ATOM     26  N   UNL     1       1.933   0.742  -2.061  0.00  0.00    +0.057 N 
ATOM     27  O   UNL     1       2.793   0.479  -2.881  0.00  0.00    -0.126 OA
ATOM     28  O   UNL     1       0.852   0.182  -2.111  0.00  0.00    -0.126 OA
ENDBRANCH  25  26
ENDBRANCH  17  20
ENDBRANCH   8  16
TORSDOF 4
