REMARK  Name = ZINC35829410
REMARK  7 active torsions:
REMARK  status: ('A' for Active; 'I' for Inactive)
REMARK    1  A    between atoms: C_1  and  C_2
REMARK    2  A    between atoms: C_2  and  C_3
REMARK    3  A    between atoms: C_4  and  C_18
REMARK    4  A    between atoms: N_6  and  C_8
REMARK    5  A    between atoms: C_11  and  N_14
REMARK    6  A    between atoms: N_22  and  C_26
REMARK    7  A    between atoms: C_26  and  C_27
REMARK                            x       y       z     vdW  Elec       q    Type
REMARK                         _______ _______ _______ _____ _____    ______ ____
ROOT
ATOM      1  C   UNL     1       0.707  -0.490  -1.238  0.00  0.00    +0.074 A 
ATOM      2  C   UNL     1       0.098  -0.763  -2.487  0.00  0.00    +0.066 A 
ATOM      3  C   UNL     1       1.108  -1.185  -3.348  0.00  0.00    +0.281 A 
ATOM      4  N   UNL     1       2.262  -1.165  -2.647  0.00  0.00    -0.196 N 
ATOM      5  N   UNL     1       1.985  -0.727  -1.348  0.00  0.00    -0.168 NA
ATOM      6  O   UNL     1       0.961  -1.548  -4.644  0.00  0.00    -0.265 OA
ENDROOT
BRANCH   2   7
ATOM      7  C   UNL     1      -1.323  -0.628  -2.811  0.00  0.00    +0.043 C 
ATOM      8  C   UNL     1      -1.705   0.057  -3.923  0.00  0.00    +0.099 C 
ATOM      9  C   UNL     1      -3.033   0.283  -4.374  0.00  0.00    +0.269 C 
ATOM     10  O   UNL     1      -4.056  -0.100  -3.836  0.00  0.00    -0.268 OA
ATOM     11  N   UNL     1      -2.947   1.003  -5.510  0.00  0.00    -0.216 N 
ATOM     12  C   UNL     1      -1.657   1.240  -5.798  0.00  0.00    +0.313 C 
ATOM     13  O   UNL     1      -1.260   1.866  -6.763  0.00  0.00    -0.252 OA
ATOM     14  N   UNL     1      -0.868   0.688  -4.857  0.00  0.00    -0.265 N 
ATOM     15  H   UNL     1       0.102   0.719  -4.830  0.00  0.00    +0.157 HD
BRANCH  11  16
ATOM     16  C   UNL     1      -4.088   1.457  -6.309  0.00  0.00    +0.153 C 
BRANCH  16  17
ATOM     17  C   UNL     1      -4.531   2.814  -5.827  0.00  0.00    -0.030 A 
ATOM     18  C   UNL     1      -5.480   2.916  -4.827  0.00  0.00    +0.005 A 
ATOM     19  C   UNL     1      -5.887   4.160  -4.384  0.00  0.00    +0.000 A 
ATOM     20  C   UNL     1      -5.344   5.303  -4.940  0.00  0.00    +0.000 A 
ATOM     21  C   UNL     1      -4.394   5.202  -5.939  0.00  0.00    +0.000 A 
ATOM     22  C   UNL     1      -3.984   3.957  -6.379  0.00  0.00    +0.005 A 
ENDBRANCH  16  17
ENDBRANCH  11  16
ENDBRANCH   2   7
BRANCH   4  23
ATOM     23  C   UNL     1       3.526  -1.519  -3.139  0.00  0.00    +0.069 A 
ATOM     24  C   UNL     1       3.648  -2.541  -4.071  0.00  0.00    +0.030 A 
ATOM     25  C   UNL     1       4.894  -2.888  -4.554  0.00  0.00    +0.035 A 
ATOM     26  C   UNL     1       6.020  -2.219  -4.110  0.00  0.00    +0.126 A 
ATOM     27  C   UNL     1       5.902  -1.202  -3.181  0.00  0.00    +0.035 A 
ATOM     28  C   UNL     1       4.658  -0.846  -2.699  0.00  0.00    +0.030 A 
BRANCH  26  29
ATOM     29  N   UNL     1       7.355  -2.594  -4.629  0.00  0.00    +0.056 N 
ATOM     30  O   UNL     1       7.460  -3.484  -5.441  0.00  0.00    -0.126 OA
ATOM     31  O   UNL     1       8.340  -2.010  -4.242  0.00  0.00    -0.126 OA
ENDBRANCH  26  29
ENDBRANCH   4  23
BRANCH   1  33
ATOM     32  C   UNL     1      -0.019   1.526   0.010  0.00  0.00    +0.010 C 
ATOM     33  C   UNL     1       0.002  -0.004   0.002  0.00  0.00    +0.054 C 
ENDBRANCH   1  33
TORSDOF 6
