REMARK  Name = ZINC37255942
REMARK  5 active torsions:
REMARK  status: ('A' for Active; 'I' for Inactive)
REMARK    1  A    between atoms: C_1  and  C_2
REMARK    2  A    between atoms: C_7  and  N_10
REMARK    3  A    between atoms: N_10  and  S_11
REMARK    4  A    between atoms: S_11  and  C_14
REMARK    5  A    between atoms: C_18  and  N_20
REMARK                            x       y       z     vdW  Elec       q    Type
REMARK                         _______ _______ _______ _____ _____    ______ ____
ROOT
ATOM      1  S   UNL     1       2.396  -3.897   2.329  0.00  0.00    +0.059 S 
ATOM      2  O   UNL     1       2.966  -4.088   3.617  0.00  0.00    -0.153 OA
ATOM      3  O   UNL     1       1.596  -4.885   1.696  0.00  0.00    -0.153 OA
ENDROOT
BRANCH   1   4
ATOM      4  C   UNL     1       3.732  -3.552   1.234  0.00  0.00    +0.107 A 
ATOM      5  C   UNL     1       3.596  -3.795  -0.120  0.00  0.00    +0.030 A 
ATOM      6  C   UNL     1       4.643  -3.525  -0.980  0.00  0.00    +0.024 A 
ATOM      7  C   UNL     1       5.829  -3.011  -0.486  0.00  0.00    +0.071 A 
ATOM      8  C   UNL     1       5.965  -2.768   0.869  0.00  0.00    +0.146 A 
ATOM      9  C   UNL     1       4.915  -3.034   1.728  0.00  0.00    +0.062 A 
ATOM     10 CL   UNL     1       7.145  -2.671  -1.565  0.00  0.00    -0.081 Cl
BRANCH   8  11
ATOM     11  N   UNL     1       7.233  -2.218   1.399  0.00  0.00    +0.058 N 
ATOM     12  O   UNL     1       7.352  -2.006   2.583  0.00  0.00    -0.126 OA
ATOM     13  O   UNL     1       8.150  -1.981   0.647  0.00  0.00    -0.126 OA
ENDBRANCH   8  11
ENDBRANCH   1   4
BRANCH   1  14
ATOM     14  N   UNL     1       1.471  -2.526   2.420  0.00  0.00    -0.187 NA
ATOM     15  H   UNL     1       1.399  -2.045   3.259  0.00  0.00    +0.148 HD
BRANCH  14  21
ATOM     16  C   UNL     1      -0.019   1.526   0.010  0.00  0.00    +0.007 C 
ATOM     17  C   UNL     1       0.002  -0.004   0.002  0.00  0.00    -0.013 C 
ATOM     18  C   UNL     1      -1.433  -0.534   0.013  0.00  0.00    +0.003 C 
ATOM     19  C   UNL     1      -1.413  -2.063   0.004  0.00  0.00    +0.002 C 
ATOM     20  C   UNL     1      -0.673  -2.570   1.244  0.00  0.00    +0.020 C 
ATOM     21  C   UNL     1       0.763  -2.041   1.233  0.00  0.00    +0.077 C 
ATOM     22  C   UNL     1       0.742  -0.511   1.242  0.00  0.00    +0.023 C 
ENDBRANCH  14  21
ENDBRANCH   1  14
TORSDOF 4
