REMARK  Name = ZINC04930206
REMARK  10 active torsions:
REMARK  status: ('A' for Active; 'I' for Inactive)
REMARK    1  A    between atoms: C_1  and  C_2
REMARK    2  A    between atoms: C_5  and  N_11
REMARK    3  A    between atoms: C_6  and  N_8
REMARK    4  A    between atoms: C_12  and  C_14
REMARK    5  A    between atoms: C_14  and  C_16
REMARK    6  A    between atoms: C_14  and  O_22
REMARK    7  A    between atoms: O_22  and  C_23
REMARK    8  A    between atoms: C_23  and  C_25
REMARK    9  A    between atoms: C_27  and  C_31
REMARK   10  A    between atoms: C_29  and  C_30
REMARK                            x       y       z     vdW  Elec       q    Type
REMARK                         _______ _______ _______ _____ _____    ______ ____
ROOT
ATOM      1  C   UNL     1      -2.418   1.060  -0.016  0.00  0.00    +0.292 C 
ENDROOT
BRANCH   1   2
ATOM      2  C   UNL     1      -2.856   0.806  -1.435  0.00  0.00    +0.002 A 
ATOM      3  C   UNL     1      -2.675   1.780  -2.400  0.00  0.00    +0.008 A 
ATOM      4  C   UNL     1      -3.074   1.546  -3.702  0.00  0.00    +0.000 A 
ATOM      5  C   UNL     1      -3.661   0.341  -4.039  0.00  0.00    +0.000 A 
ATOM      6  C   UNL     1      -3.846  -0.631  -3.074  0.00  0.00    +0.000 A 
ATOM      7  C   UNL     1      -3.444  -0.398  -1.772  0.00  0.00    +0.008 A 
ENDBRANCH   1   2
BRANCH   1   9
ATOM      8  N   UNL     1      -4.695   1.200   0.940  0.00  0.00    -0.280 N 
ATOM      9  C   UNL     1      -3.506   1.797   0.722  0.00  0.00    +0.263 C 
ATOM     10  O   UNL     1      -3.312   2.926   1.119  0.00  0.00    -0.271 OA
ATOM     11  H   UNL     1      -4.873   0.323   0.567  0.00  0.00    +0.155 HD
BRANCH   8  16
ATOM     12  C   UNL     1      -8.658   3.821   4.040  0.00  0.00    +0.044 C 
ATOM     13  C   UNL     1      -7.605   3.125   3.217  0.00  0.00    -0.048 A 
ATOM     14  C   UNL     1      -6.774   3.862   2.393  0.00  0.00    +0.005 A 
ATOM     15  C   UNL     1      -5.808   3.227   1.637  0.00  0.00    +0.026 A 
ATOM     16  C   UNL     1      -5.672   1.847   1.705  0.00  0.00    +0.064 A 
ATOM     17  C   UNL     1      -6.511   1.109   2.529  0.00  0.00    +0.148 A 
ATOM     18  C   UNL     1      -7.472   1.751   3.287  0.00  0.00    +0.038 A 
BRANCH  17  19
ATOM     19  N   UNL     1      -6.373  -0.363   2.600  0.00  0.00    +0.058 N 
ATOM     20  O   UNL     1      -7.171  -1.019   3.246  0.00  0.00    -0.126 OA
ATOM     21  O   UNL     1      -5.462  -0.918   2.013  0.00  0.00    -0.126 OA
ENDBRANCH  17  19
ENDBRANCH   8  16
ENDBRANCH   1   9
BRANCH   1  22
ATOM     22  O   UNL     1      -1.207   1.863  -0.020  0.00  0.00    -0.443 OA
BRANCH  22  23
ATOM     23  C   UNL     1      -0.034   1.200  -0.047  0.00  0.00    +0.344 C 
ATOM     24  O   UNL     1      -0.023  -0.015  -0.067  0.00  0.00    -0.245 OA
BRANCH  23  25
ATOM     25  C   UNL     1       1.234   1.948  -0.058  0.00  0.00    +0.100 A 
ATOM     26  C   UNL     1       1.405   3.408  -0.044  0.00  0.00    +0.059 A 
ATOM     27  C   UNL     1       2.729   3.624  -0.060  0.00  0.00    +0.103 A 
ATOM     28  O   UNL     1       3.367   2.444  -0.091  0.00  0.00    -0.464 OA
ATOM     29  C   UNL     1       2.497   1.431  -0.090  0.00  0.00    +0.116 A 
ATOM     30  C   UNL     1       2.849  -0.034  -0.119  0.00  0.00    +0.087 C 
ATOM     31  C   UNL     1       3.393   4.977  -0.052  0.00  0.00    +0.086 C 
ENDBRANCH  23  25
ENDBRANCH  22  23
ENDBRANCH   1  22
TORSDOF 7
