REMARK  Name = ZINC01748713
REMARK  6 active torsions:
REMARK  status: ('A' for Active; 'I' for Inactive)
REMARK    1  A    between atoms: C_3  and  S_21
REMARK    2  A    between atoms: C_6  and  C_7
REMARK    3  A    between atoms: N_9  and  N_10
REMARK    4  A    between atoms: C_11  and  C_12
REMARK    5  A    between atoms: C_14  and  N_18
REMARK    6  A    between atoms: S_21  and  N_24
REMARK                            x       y       z     vdW  Elec       q    Type
REMARK                         _______ _______ _______ _____ _____    ______ ____
ROOT
ATOM      1  C   UNL     1      -1.187   1.624   0.017  0.00  0.00    +0.263 C 
ATOM      2  O   UNL     1      -1.204   2.840   0.023  0.00  0.00    -0.268 OA
ATOM      3  N   UNL     1      -0.011   0.966   0.007  0.00  0.00    -0.203 N 
ATOM      4  H   UNL     1       0.002  -0.004   0.002  0.00  0.00    +0.178 HD
ENDROOT
BRANCH   1  10
ATOM      5  C   UNL     1      -2.442  -0.528   0.005  0.00  0.00    +0.015 A 
ATOM      6  C   UNL     1      -3.631  -1.228   0.012  0.00  0.00    +0.029 A 
ATOM      7  C   UNL     1      -4.836  -0.550   0.021  0.00  0.00    +0.106 A 
ATOM      8  C   UNL     1      -4.859   0.834   0.029  0.00  0.00    +0.029 A 
ATOM      9  C   UNL     1      -3.677   1.546   0.028  0.00  0.00    +0.015 A 
ATOM     10  C   UNL     1      -2.457   0.868   0.018  0.00  0.00    +0.038 A 
BRANCH   7  11
ATOM     11  S   UNL     1      -6.350  -1.451   0.023  0.00  0.00    +0.061 S 
ATOM     12  O   UNL     1      -6.059  -2.732   0.566  0.00  0.00    -0.153 OA
ATOM     13  O   UNL     1      -7.334  -0.592   0.583  0.00  0.00    -0.153 OA
BRANCH  11  14
ATOM     14  N   UNL     1      -6.778  -1.693  -1.558  0.00  0.00    -0.177 NA
ATOM     15  C   UNL     1      -7.623  -0.719  -2.263  0.00  0.00    +0.109 C 
ATOM     16  C   UNL     1      -6.911  -0.301  -3.558  0.00  0.00    +0.017 C 
ATOM     17  C   UNL     1      -6.577  -1.551  -4.376  0.00  0.00    +0.003 C 
ATOM     18  C   UNL     1      -5.631  -2.449  -3.575  0.00  0.00    +0.017 C 
ATOM     19  C   UNL     1      -6.324  -2.889  -2.282  0.00  0.00    +0.109 C 
ENDBRANCH  11  14
ENDBRANCH   7  11
ENDBRANCH   1  10
BRANCH   3  20
ATOM     20  N   UNL     1       1.193   1.683  -0.000  0.00  0.00    -0.187 NA
ATOM     21  C   UNL     1       2.325   1.049  -0.015  0.00  0.00    +0.142 C 
BRANCH  21  22
ATOM     22  C   UNL     1       3.592   1.803  -0.023  0.00  0.00    +0.043 A 
ATOM     23  C   UNL     1       4.813   1.125  -0.032  0.00  0.00    +0.046 A 
ATOM     24  C   UNL     1       5.994   1.837  -0.045  0.00  0.00    +0.127 A 
ATOM     25  C   UNL     1       5.975   3.221  -0.037  0.00  0.00    +0.036 A 
ATOM     26  C   UNL     1       4.773   3.904  -0.023  0.00  0.00    +0.054 A 
ATOM     27  C   UNL     1       3.577   3.205  -0.015  0.00  0.00    +0.188 A 
ATOM     28  O   UNL     1       2.396   3.874   0.001  0.00  0.00    -0.287 OA
BRANCH  24  29
ATOM     29  N   UNL     1       7.288   1.118  -0.061  0.00  0.00    +0.056 N 
ATOM     30  O   UNL     1       8.332   1.744  -0.067  0.00  0.00    -0.126 OA
ATOM     31  O   UNL     1       7.307  -0.100  -0.068  0.00  0.00    -0.126 OA
ENDBRANCH  24  29
ENDBRANCH  21  22
ENDBRANCH   3  20
TORSDOF 6
