REMARK  Name = ZINC12722794
REMARK  10 active torsions:
REMARK  status: ('A' for Active; 'I' for Inactive)
REMARK    1  A    between atoms: C_1  and  C_2
REMARK    2  A    between atoms: C_2  and  O_3
REMARK    3  A    between atoms: O_3  and  C_4
REMARK    4  A    between atoms: C_4  and  C_6
REMARK    5  A    between atoms: C_7  and  C_19
REMARK    6  A    between atoms: C_12  and  C_14
REMARK    7  A    between atoms: C_19  and  O_20
REMARK    8  A    between atoms: O_20  and  C_21
REMARK    9  A    between atoms: C_21  and  C_23
REMARK   10  A    between atoms: C_23  and  N_24
REMARK                            x       y       z     vdW  Elec       q    Type
REMARK                         _______ _______ _______ _____ _____    ______ ____
ROOT
ATOM      1  C   UNL     1      -2.795  -2.410   0.126  0.00  0.00    +0.082 C 
ATOM      2  C   UNL     1      -2.985  -3.731  -0.085  0.00  0.00    +0.061 C 
ATOM      3  N   UNL     1      -4.241  -4.255  -0.186  0.00  0.00    -0.269 N 
ATOM      4  C   UNL     1      -5.360  -3.526  -0.089  0.00  0.00    +0.304 C 
ATOM      5  O   UNL     1      -6.436  -4.083  -0.192  0.00  0.00    -0.252 OA
ATOM      6  N   UNL     1      -5.333  -2.195   0.121  0.00  0.00    -0.288 N 
ATOM      7  C   UNL     1      -4.024  -1.533   0.251  0.00  0.00    +0.150 C 
ATOM      8  H   UNL     1      -4.328  -5.210  -0.337  0.00  0.00    +0.156 HD
ATOM      9  H   UNL     1      -6.156  -1.686   0.188  0.00  0.00    +0.151 HD
ENDROOT
BRANCH   7  10
ATOM     10  C   UNL     1      -3.942  -0.465  -0.809  0.00  0.00    +0.015 A 
ATOM     11  C   UNL     1      -3.542   0.825  -0.692  0.00  0.00    +0.013 A 
ATOM     12  C   UNL     1      -3.548   1.633  -1.813  0.00  0.00    +0.008 A 
ATOM     13  C   UNL     1      -3.954   1.113  -2.997  0.00  0.00    +0.045 A 
ATOM     14  S   UNL     1      -4.340  -0.571  -2.546  0.00  0.00    -0.099 S 
ENDBRANCH   7  10
BRANCH   1  15
ATOM     15  C   UNL     1      -1.494  -1.866   0.231  0.00  0.00    +0.339 C 
ATOM     16  O   UNL     1      -1.030  -1.608   1.326  0.00  0.00    -0.245 OA
BRANCH  15  17
ATOM     17  O   UNL     1      -0.768  -1.632  -0.882  0.00  0.00    -0.462 OA
BRANCH  17  19
ATOM     18  C   UNL     1       1.204  -0.888  -2.065  0.00  0.00    +0.048 C 
ATOM     19  C   UNL     1       0.538  -1.081  -0.701  0.00  0.00    +0.229 C 
ENDBRANCH  17  19
ENDBRANCH  15  17
ENDBRANCH   1  15
BRANCH   2  20
ATOM     20  C   UNL     1      -1.789  -4.640  -0.210  0.00  0.00    +0.283 C 
BRANCH  20  21
ATOM     21  O   UNL     1      -1.771  -5.556   0.886  0.00  0.00    -0.457 OA
BRANCH  21  22
ATOM     22  C   UNL     1      -0.763  -6.442   0.924  0.00  0.00    +0.326 C 
ATOM     23  O   UNL     1       0.077  -6.438   0.055  0.00  0.00    -0.249 OA
BRANCH  22  24
ATOM     24  C   UNL     1      -0.677  -7.439   2.050  0.00  0.00    +0.236 C 
BRANCH  24  25
ATOM     25  N   UNL     1       0.503  -8.286   1.864  0.00  0.00    -0.231 N 
ATOM     26  C   UNL     1       0.478  -9.436   1.167  0.00  0.00    +0.226 C 
ATOM     27  O   UNL     1      -0.445  -9.842   0.495  0.00  0.00    -0.275 OA
ATOM     28  C   UNL     1       1.819 -10.137   1.373  0.00  0.00    +0.087 C 
ATOM     29  C   UNL     1       1.620 -11.233   2.403  0.00  0.00    +0.013 C 
ATOM     30  C   UNL     1       2.903 -11.575   3.147  0.00  0.00    +0.001 C 
ATOM     31  C   UNL     1       3.407 -10.312   3.853  0.00  0.00    +0.001 C 
ATOM     32  C   UNL     1       3.810  -9.300   2.785  0.00  0.00    +0.013 C 
ATOM     33  C   UNL     1       2.703  -8.977   1.810  0.00  0.00    +0.087 C 
ATOM     34  C   UNL     1       1.713  -7.981   2.371  0.00  0.00    +0.226 C 
ATOM     35  O   UNL     1       1.963  -7.074   3.136  0.00  0.00    -0.275 OA
ENDBRANCH  24  25
ENDBRANCH  22  24
ENDBRANCH  21  22
ENDBRANCH  20  21
ENDBRANCH   2  20
TORSDOF 9
