REMARK  Name = ZINC41620769
REMARK  5 active torsions:
REMARK  status: ('A' for Active; 'I' for Inactive)
REMARK    1  A    between atoms: C_4  and  C_7
REMARK    2  A    between atoms: C_10  and  C_12
REMARK    3  A    between atoms: C_12  and  N_13
REMARK    4  A    between atoms: N_13  and  C_14
REMARK    5  A    between atoms: C_15  and  N_25
REMARK                            x       y       z     vdW  Elec       q    Type
REMARK                         _______ _______ _______ _____ _____    ______ ____
ROOT
ATOM      1  N   UNL     1       7.840   0.085   1.316  0.00  0.00    -0.321 N 
ATOM      2  H   UNL     1       7.264  -0.166   2.055  0.00  0.00    +0.148 HD
ENDROOT
BRANCH   1   3
ATOM      3  C   UNL     1       9.106   0.583   1.565  0.00  0.00    +0.157 A 
ATOM      4  C   UNL     1       9.516   0.825   2.874  0.00  0.00    +0.230 A 
ATOM      5  C   UNL     1      10.797   1.327   3.095  0.00  0.00    +0.291 A 
ATOM      6  O   UNL     1      11.187   1.549   4.231  0.00  0.00    -0.265 OA
ATOM      7  N   UNL     1      11.602   1.564   2.038  0.00  0.00    -0.266 N 
ATOM      8  C   UNL     1      12.856   2.054   2.245  0.00  0.00    +0.096 A 
ATOM      9  C   UNL     1      13.683   2.301   1.205  0.00  0.00    +0.018 A 
ATOM     10  C   UNL     1      13.257   2.053  -0.108  0.00  0.00    +0.005 A 
ATOM     11  C   UNL     1      12.005   1.563  -0.327  0.00  0.00    +0.047 A 
ATOM     12  C   UNL     1      11.158   1.311   0.769  0.00  0.00    +0.142 A 
ATOM     13  N   UNL     1       9.937   0.827   0.555  0.00  0.00    -0.212 NA
BRANCH   4  14
ATOM     14  N   UNL     1       8.607   0.554   4.011  0.00  0.00    +0.065 N 
ATOM     15  O   UNL     1       7.538   0.023   3.816  0.00  0.00    -0.126 OA
ATOM     16  O   UNL     1       8.933   0.864   5.133  0.00  0.00    -0.126 OA
ENDBRANCH   4  14
ENDBRANCH   1   3
BRANCH   1  17
ATOM     17  C   UNL     1       7.370  -0.063  -0.063  0.00  0.00    +0.166 C 
BRANCH  17  21
ATOM     18  C   UNL     1       3.675  -0.605  -0.029  0.00  0.00    +0.078 A 
ATOM     19  C   UNL     1       3.726  -1.972  -0.062  0.00  0.00    +0.075 A 
ATOM     20  S   UNL     1       5.492  -2.235  -0.091  0.00  0.00    -0.078 S 
ATOM     21  C   UNL     1       5.970  -0.622  -0.059  0.00  0.00    +0.096 A 
ATOM     22  N   UNL     1       4.838   0.031  -0.034  0.00  0.00    -0.242 NA
BRANCH  18  26
ATOM     23  C   UNL     1      -0.022   1.494   0.065  0.00  0.00    +0.000 A 
ATOM     24  C   UNL     1       1.169   2.197   0.062  0.00  0.00    +0.001 A 
ATOM     25  C   UNL     1       2.372   1.521   0.032  0.00  0.00    +0.010 A 
ATOM     26  C   UNL     1       2.385   0.128   0.004  0.00  0.00    +0.001 A 
ATOM     27  C   UNL     1       1.181  -0.575   0.007  0.00  0.00    +0.010 A 
ATOM     28  C   UNL     1      -0.015   0.111   0.038  0.00  0.00    +0.001 A 
ENDBRANCH  18  26
ENDBRANCH  17  21
ENDBRANCH   1  17
TORSDOF 5
