REMARK  Name = ZINC12376885
REMARK  6 active torsions:
REMARK  status: ('A' for Active; 'I' for Inactive)
REMARK    1  A    between atoms: C_4  and  C_7
REMARK    2  A    between atoms: C_8  and  N_15
REMARK    3  A    between atoms: N_15  and  N_16
REMARK    4  A    between atoms: C_19  and  C_26
REMARK    5  A    between atoms: C_21  and  C_24
REMARK    6  A    between atoms: C_22  and  N_23
REMARK                            x       y       z     vdW  Elec       q    Type
REMARK                         _______ _______ _______ _____ _____    ______ ____
ROOT
ATOM      1  N   UNL     1       0.580   3.912  -1.665  0.00  0.00    -0.211 N 
ATOM      2  C   UNL     1       0.114   4.994  -0.968  0.00  0.00    +0.039 C 
ATOM      3  C   UNL     1      -0.610   5.951  -1.586  0.00  0.00    +0.026 C 
ATOM      4  C   UNL     1      -0.906   5.866  -3.062  0.00  0.00    +0.097 C 
ATOM      5  C   UNL     1      -0.705   4.471  -3.575  0.00  0.00    +0.078 C 
ATOM      6  C   UNL     1       0.024   3.566  -2.873  0.00  0.00    +0.119 C 
ATOM      7  C   UNL     1      -1.107   7.056  -0.874  0.00  0.00    +0.162 C 
ATOM      8  O   UNL     1      -1.748   7.905  -1.462  0.00  0.00    -0.292 OA
ATOM      9  C   UNL     1      -0.861   7.209   0.602  0.00  0.00    +0.080 C 
ATOM     10  C   UNL     1      -0.701   5.820   1.228  0.00  0.00    +0.014 C 
ATOM     11  C   UNL     1       0.433   5.090   0.504  0.00  0.00    +0.053 C 
ENDROOT
BRANCH   4  12
ATOM     12  C   UNL     1       0.013   6.803  -3.804  0.00  0.00    -0.035 A 
ATOM     13  C   UNL     1       1.383   6.639  -3.718  0.00  0.00    +0.004 A 
ATOM     14  C   UNL     1       2.225   7.496  -4.402  0.00  0.00    +0.000 A 
ATOM     15  C   UNL     1       1.698   8.520  -5.166  0.00  0.00    +0.000 A 
ATOM     16  C   UNL     1       0.328   8.687  -5.247  0.00  0.00    +0.000 A 
ATOM     17  C   UNL     1      -0.514   7.828  -4.566  0.00  0.00    +0.004 A 
ENDBRANCH   4  12
BRANCH   6  18
ATOM     18  N   UNL     1       0.203   2.298  -3.372  0.00  0.00    -0.344 N 
ATOM     19  H   UNL     1       0.721   1.649  -2.872  0.00  0.00    +0.144 HD
ATOM     20  H   UNL     1      -0.189   2.053  -4.225  0.00  0.00    +0.144 HD
ENDBRANCH   6  18
BRANCH   1  21
ATOM     21  N   UNL     1       1.637   3.154  -1.144  0.00  0.00    -0.257 N 
ATOM     22  H   UNL     1       2.543   3.499  -1.175  0.00  0.00    +0.171 HD
BRANCH  21  24
ATOM     23  C   UNL     1       2.485   1.044  -0.144  0.00  0.00    +0.114 A 
ATOM     24  C   UNL     1       1.389   1.914  -0.586  0.00  0.00    +0.078 A 
ATOM     25  C   UNL     1       0.095   1.444  -0.423  0.00  0.00    +0.098 A 
ATOM     26  C   UNL     1      -0.069   0.173   0.152  0.00  0.00    +0.267 A 
ATOM     27  O   UNL     1      -1.191  -0.280   0.314  0.00  0.00    -0.266 OA
ATOM     28  N   UNL     1       1.004  -0.545   0.524  0.00  0.00    -0.243 N 
ATOM     29  H   UNL     1       0.862  -1.420   0.918  0.00  0.00    +0.192 HD
ATOM     30  N   UNL     1       2.206  -0.126   0.380  0.00  0.00    -0.169 NA
BRANCH  23  34
ATOM     31  C   UNL     1       6.525   2.301  -0.560  0.00  0.00    +0.000 A 
ATOM     32  C   UNL     1       6.140   1.578   0.554  0.00  0.00    +0.001 A 
ATOM     33  C   UNL     1       4.830   1.167   0.694  0.00  0.00    +0.010 A 
ATOM     34  C   UNL     1       3.894   1.482  -0.290  0.00  0.00    +0.004 A 
ATOM     35  C   UNL     1       4.289   2.207  -1.413  0.00  0.00    +0.010 A 
ATOM     36  C   UNL     1       5.600   2.618  -1.540  0.00  0.00    +0.001 A 
ENDBRANCH  23  34
ENDBRANCH  21  24
ENDBRANCH   1  21
BRANCH   5  37
ATOM     37  C   UNL     1      -1.287   4.089  -4.826  0.00  0.00    +0.099 C 
ATOM     38  N   UNL     1      -1.749   3.787  -5.819  0.00  0.00    -0.191 NA
ENDBRANCH   5  37
TORSDOF 6
