REMARK  Name = ZINC20819799
REMARK  12 active torsions:
REMARK  status: ('A' for Active; 'I' for Inactive)
REMARK    1  A    between atoms: C_1  and  C_2
REMARK    2  A    between atoms: C_2  and  C_3
REMARK    3  A    between atoms: C_2  and  C_4
REMARK    4  A    between atoms: C_4  and  C_5
REMARK    5  A    between atoms: C_5  and  C_7
REMARK    6  A    between atoms: C_5  and  N_23
REMARK    7  A    between atoms: C_7  and  O_9
REMARK    8  A    between atoms: O_9  and  C_10
REMARK    9  A    between atoms: C_10  and  C_11
REMARK   10  A    between atoms: N_13  and  C_14
REMARK   11  A    between atoms: C_19  and  N_20
REMARK   12  A    between atoms: C_24  and  C_26
REMARK                            x       y       z     vdW  Elec       q    Type
REMARK                         _______ _______ _______ _____ _____    ______ ____
ROOT
ATOM      1  C   UNL     1      -7.219  -0.747   0.683  0.00  0.00    +0.328 C 
ATOM      2  O   UNL     1      -7.459   0.426   0.520  0.00  0.00    -0.249 OA
ENDROOT
BRANCH   1   3
ATOM      3  C   UNL     1      -8.344  -1.720   0.924  0.00  0.00    +0.182 C 
BRANCH   3   4
ATOM      4  N   UNL     1      -9.621  -1.003   0.914  0.00  0.00    -0.298 N 
ATOM      5  C   UNL     1     -10.682  -1.505   1.577  0.00  0.00    +0.245 C 
ATOM      6  O   UNL     1     -10.578  -2.554   2.183  0.00  0.00    -0.270 OA
ATOM      7  H   UNL     1      -9.715  -0.054   0.365  0.00  0.00    +0.150 HD
BRANCH   5   8
ATOM      8  C   UNL     1     -11.970  -0.781   1.567  0.00  0.00    +0.037 A 
ATOM      9  C   UNL     1     -12.090   0.426   0.876  0.00  0.00    +0.014 A 
ATOM     10  C   UNL     1     -13.297   1.094   0.865  0.00  0.00    +0.021 A 
ATOM     11  C   UNL     1     -14.385   0.575   1.547  0.00  0.00    +0.041 A 
ATOM     12  C   UNL     1     -14.270  -0.619   2.239  0.00  0.00    +0.021 A 
ATOM     13  C   UNL     1     -13.070  -1.299   2.252  0.00  0.00    +0.014 A 
ATOM     14 CL   UNL     1     -15.898   1.425   1.535  0.00  0.00    -0.084 Cl
ENDBRANCH   5   8
ENDBRANCH   3   4
BRANCH   3  15
ATOM     15  C   UNL     1      -8.346  -2.780  -0.180  0.00  0.00    +0.036 C 
BRANCH  15  17
ATOM     16  C   UNL     1      -9.495  -4.828  -1.032  0.00  0.00    +0.007 C 
ATOM     17  C   UNL     1      -9.407  -3.838   0.131  0.00  0.00    -0.015 C 
ATOM     18  C   UNL     1      -9.023  -4.585   1.409  0.00  0.00    +0.007 C 
ENDBRANCH  15  17
ENDBRANCH   3  15
ENDBRANCH   1   3
BRANCH   1  19
ATOM     19  O   UNL     1      -5.950  -1.183   0.650  0.00  0.00    -0.454 OA
BRANCH  19  20
ATOM     20  C   UNL     1      -4.918  -0.189   0.414  0.00  0.00    +0.328 C 
BRANCH  20  21
ATOM     21  C   UNL     1      -3.567  -0.859   0.411  0.00  0.00    +0.255 C 
ATOM     22  O   UNL     1      -3.483  -2.055   0.590  0.00  0.00    -0.272 OA
ATOM     23  N   UNL     1      -2.453  -0.128   0.209  0.00  0.00    -0.281 N 
ATOM     24  H   UNL     1      -2.520   0.968   0.133  0.00  0.00    +0.155 HD
BRANCH  23  25
ATOM     25  C   UNL     1      -1.211  -0.762   0.096  0.00  0.00    +0.064 A 
ATOM     26  C   UNL     1      -1.118  -2.005  -0.517  0.00  0.00    +0.025 A 
ATOM     27  C   UNL     1       0.109  -2.628  -0.628  0.00  0.00    +0.002 A 
ATOM     28  C   UNL     1       1.245  -2.016  -0.129  0.00  0.00    +0.002 A 
ATOM     29  C   UNL     1       1.156  -0.776   0.477  0.00  0.00    +0.034 A 
ATOM     30  C   UNL     1      -0.069  -0.150   0.596  0.00  0.00    +0.147 A 
BRANCH  30  31
ATOM     31  N   UNL     1      -0.165   1.174   1.250  0.00  0.00    +0.058 N 
ATOM     32  O   UNL     1       0.820   1.670   1.767  0.00  0.00    -0.126 OA
ATOM     33  O   UNL     1      -1.226   1.770   1.266  0.00  0.00    -0.126 OA
ENDBRANCH  30  31
ENDBRANCH  23  25
ENDBRANCH  20  21
ENDBRANCH  19  20
ENDBRANCH   1  19
TORSDOF 10
