REMARK  Name = ZINC24217869
REMARK  8 active torsions:
REMARK  status: ('A' for Active; 'I' for Inactive)
REMARK    1  A    between atoms: C_1  and  N_2
REMARK    2  A    between atoms: C_3  and  C_21
REMARK    3  A    between atoms: C_6  and  S_7
REMARK    4  A    between atoms: S_7  and  C_8
REMARK    5  A    between atoms: C_8  and  C_9
REMARK    6  A    between atoms: N_11  and  C_12
REMARK    7  A    between atoms: C_21  and  O_22
REMARK    8  A    between atoms: O_22  and  C_23
REMARK                            x       y       z     vdW  Elec       q    Type
REMARK                         _______ _______ _______ _____ _____    ______ ____
ROOT
ATOM      1  C   UNL     1      -0.008   1.110   0.000  0.00  0.00    +0.153 C 
ATOM      2  N   UNL     1      -0.693   1.587   1.204  0.00  0.00    -0.306 N 
ATOM      3  C   UNL     1      -2.026   1.857   1.343  0.00  0.00    +0.172 A 
ATOM      4  N   UNL     1      -2.216   2.252   2.570  0.00  0.00    -0.130 NA
ATOM      5  N   UNL     1      -1.101   2.258   3.209  0.00  0.00    -0.122 NA
ATOM      6  C   UNL     1      -0.132   1.859   2.419  0.00  0.00    +0.192 A 
ENDROOT
BRANCH   6   7
ATOM      7  S   UNL     1       1.571   1.703   2.845  0.00  0.00    -0.077 S 
BRANCH   7   8
ATOM      8  C   UNL     1       1.511   2.233   4.575  0.00  0.00    +0.173 C 
BRANCH   8   9
ATOM      9  C   UNL     1       2.897   2.179   5.164  0.00  0.00    +0.228 C 
ATOM     10  O   UNL     1       3.833   1.819   4.482  0.00  0.00    -0.275 OA
ATOM     11  N   UNL     1       3.097   2.533   6.450  0.00  0.00    -0.283 N 
ATOM     12  H   UNL     1       2.263   2.930   7.047  0.00  0.00    +0.155 HD
BRANCH  11  13
ATOM     13  C   UNL     1       4.362   2.393   7.024  0.00  0.00    +0.062 A 
ATOM     14  C   UNL     1       5.478   2.602   6.273  0.00  0.00    +0.025 A 
ATOM     15  C   UNL     1       6.755   2.471   6.815  0.00  0.00    +0.004 A 
ATOM     16  C   UNL     1       6.944   2.130   8.113  0.00  0.00    +0.031 A 
ATOM     17  C   UNL     1       5.827   1.897   8.959  0.00  0.00    +0.102 A 
ATOM     18  C   UNL     1       4.487   2.038   8.398  0.00  0.00    +0.121 A 
ATOM     19  N   UNL     1       3.539   1.796   9.299  0.00  0.00    -0.189 NA
ATOM     20  S   UNL     1       4.282   1.455  10.636  0.00  0.00    +0.117 S 
ATOM     21  N   UNL     1       5.797   1.557  10.246  0.00  0.00    -0.191 NA
ENDBRANCH  11  13
ENDBRANCH   8   9
ENDBRANCH   7   8
ENDBRANCH   6   7
BRANCH   3  22
ATOM     22  C   UNL     1      -3.081   1.721   0.275  0.00  0.00    +0.305 C 
BRANCH  22  23
ATOM     23  O   UNL     1      -3.634   0.404   0.317  0.00  0.00    -0.483 OA
BRANCH  23  24
ATOM     24  C   UNL     1      -4.606   0.114  -0.588  0.00  0.00    +0.139 A 
ATOM     25  C   UNL     1      -5.023   1.079  -1.493  0.00  0.00    +0.047 A 
ATOM     26  C   UNL     1      -6.007   0.780  -2.415  0.00  0.00    +0.004 A 
ATOM     27  C   UNL     1      -6.584  -0.477  -2.430  0.00  0.00    +0.002 A 
ATOM     28  C   UNL     1      -6.175  -1.439  -1.526  0.00  0.00    +0.023 A 
ATOM     29  C   UNL     1      -5.186  -1.147  -0.605  0.00  0.00    +0.083 A 
ATOM     30 CL   UNL     1      -4.672  -2.355   0.531  0.00  0.00    -0.080 Cl
ENDBRANCH  23  24
ENDBRANCH  22  23
ENDBRANCH   3  22
TORSDOF 7
