REMARK  Name = ZINC43213933
REMARK  15 active torsions:
REMARK  status: ('A' for Active; 'I' for Inactive)
REMARK    1  A    between atoms: C_1  and  C_2
REMARK    2  A    between atoms: C_2  and  C_3
REMARK    3  A    between atoms: C_3  and  C_5
REMARK    4  A    between atoms: C_3  and  C_6
REMARK    5  A    between atoms: C_6  and  C_8
REMARK    6  A    between atoms: C_6  and  N_39
REMARK    7  A    between atoms: C_10  and  C_13
REMARK    8  A    between atoms: N_15  and  C_16
REMARK    9  A    between atoms: C_16  and  C_18
REMARK   10  A    between atoms: C_16  and  C_27
REMARK   11  A    between atoms: C_18  and  S_19
REMARK   12  A    between atoms: S_19  and  C_20
REMARK   13  A    between atoms: C_20  and  C_21
REMARK   14  A    between atoms: N_29  and  C_30
REMARK   15  A    between atoms: C_33  and  N_36
REMARK                            x       y       z     vdW  Elec       q    Type
REMARK                         _______ _______ _______ _____ _____    ______ ____
ROOT
ATOM      1  C   UNL     1      -6.569  -4.664   3.868  0.00  0.00    +0.169 C 
ENDROOT
BRANCH   1   4
ATOM      2  C   UNL     1      -5.762  -3.945   1.684  0.00  0.00    +0.266 C 
ATOM      3  O   UNL     1      -6.845  -4.243   1.218  0.00  0.00    -0.268 OA
ATOM      4  N   UNL     1      -5.524  -4.117   2.999  0.00  0.00    -0.298 N 
ATOM      5  H   UNL     1      -4.660  -3.879   3.371  0.00  0.00    +0.150 HD
BRANCH   2   8
ATOM      6  C   UNL     1      -2.824  -2.584   0.142  0.00  0.00    +0.182 A 
ATOM      7  N   UNL     1      -3.459  -3.018   1.189  0.00  0.00    -0.210 NA
ATOM      8  C   UNL     1      -4.710  -3.394   0.810  0.00  0.00    +0.163 A 
ATOM      9  C   UNL     1      -4.808  -3.167  -0.528  0.00  0.00    +0.230 A 
ATOM     10  O   UNL     1      -3.630  -2.660  -0.926  0.00  0.00    -0.449 OA
BRANCH   6  11
ATOM     11  C   UNL     1      -1.407  -2.071   0.131  0.00  0.00    +0.016 C 
BRANCH  11  12
ATOM     12  N   UNL     1      -0.689  -2.641  -1.016  0.00  0.00    +0.386 N 
ATOM     13  H   UNL     1      -0.681  -3.647  -0.943  0.00  0.00    -0.089 HD
ATOM     14  H   UNL     1      -1.151  -2.370  -1.871  0.00  0.00    -0.089 HD
ATOM     15  H   UNL     1       0.260  -2.298  -1.024  0.00  0.00    -0.089 HD
ENDBRANCH  11  12
BRANCH  11  16
ATOM     16  C   UNL     1      -1.418  -0.545   0.019  0.00  0.00    -0.020 C 
ATOM     17  C   UNL     1      -2.119  -0.134  -1.276  0.00  0.00    +0.006 C 
BRANCH  16  19
ATOM     18  C   UNL     1       0.009   1.505   0.023  0.00  0.00    +0.004 C 
ATOM     19  C   UNL     1       0.021  -0.025   0.009  0.00  0.00    -0.001 C 
ENDBRANCH  16  19
ENDBRANCH  11  16
ENDBRANCH   6  11
ENDBRANCH   2   8
ENDBRANCH   1   4
BRANCH   1  20
ATOM     20  C   UNL     1      -6.334  -4.208   5.285  0.00  0.00    +0.238 C 
ATOM     21  O   UNL     1      -5.386  -3.497   5.544  0.00  0.00    -0.273 OA
ATOM     22  N   UNL     1      -7.176  -4.592   6.264  0.00  0.00    -0.284 N 
ATOM     23  H   UNL     1      -7.971  -5.104   6.048  0.00  0.00    +0.155 HD
BRANCH  22  24
ATOM     24  C   UNL     1      -6.905  -4.250   7.594  0.00  0.00    +0.034 A 
ATOM     25  C   UNL     1      -7.228  -5.130   8.618  0.00  0.00    +0.025 A 
ATOM     26  C   UNL     1      -6.959  -4.790   9.929  0.00  0.00    +0.034 A 
ATOM     27  C   UNL     1      -6.369  -3.575  10.223  0.00  0.00    +0.126 A 
ATOM     28  C   UNL     1      -6.047  -2.696   9.205  0.00  0.00    +0.034 A 
ATOM     29  C   UNL     1      -6.308  -3.033   7.891  0.00  0.00    +0.025 A 
BRANCH  27  30
ATOM     30  N   UNL     1      -6.082  -3.213  11.629  0.00  0.00    +0.056 N 
ATOM     31  O   UNL     1      -6.364  -3.981  12.520  0.00  0.00    -0.126 OA
ATOM     32  O   UNL     1      -5.566  -2.151  11.887  0.00  0.00    -0.126 OA
ENDBRANCH  27  30
ENDBRANCH  22  24
ENDBRANCH   1  20
BRANCH   1  33
ATOM     33  C   UNL     1      -6.532  -6.192   3.810  0.00  0.00    +0.101 C 
BRANCH  33  34
ATOM     34  S   UNL     1      -6.815  -6.741   2.104  0.00  0.00    -0.154 S 
BRANCH  34  35
ATOM     35  C   UNL     1      -6.740  -8.550   2.207  0.00  0.00    +0.104 C 
BRANCH  35  36
ATOM     36  C   UNL     1      -6.963  -9.140   0.838  0.00  0.00    -0.038 A 
ATOM     37  C   UNL     1      -8.244  -9.443   0.416  0.00  0.00    +0.004 A 
ATOM     38  C   UNL     1      -8.448  -9.984  -0.840  0.00  0.00    +0.000 A 
ATOM     39  C   UNL     1      -7.371 -10.223  -1.673  0.00  0.00    +0.000 A 
ATOM     40  C   UNL     1      -6.090  -9.920  -1.250  0.00  0.00    +0.000 A 
ATOM     41  C   UNL     1      -5.886  -9.375   0.003  0.00  0.00    +0.004 A 
ENDBRANCH  35  36
ENDBRANCH  34  35
ENDBRANCH  33  34
ENDBRANCH   1  33
TORSDOF 13
