REMARK  Name = ZINC11902996
REMARK  4 active torsions:
REMARK  status: ('A' for Active; 'I' for Inactive)
REMARK    1  A    between atoms: C_3  and  N_20
REMARK    2  A    between atoms: C_6  and  C_7
REMARK    3  A    between atoms: C_7  and  S_8
REMARK    4  A    between atoms: S_8  and  C_9
REMARK                            x       y       z     vdW  Elec       q    Type
REMARK                         _______ _______ _______ _____ _____    ______ ____
ROOT
ATOM      1  S   UNL     1      -1.828  -1.075  -1.697  0.00  0.00    -0.083 S 
ENDROOT
BRANCH   1   2
ATOM      2  C   UNL     1      -3.334  -1.974  -1.519  0.00  0.00    +0.169 A 
ATOM      3  N   UNL     1      -4.011  -2.372  -2.632  0.00  0.00    -0.302 N 
ATOM      4  H   UNL     1      -3.666  -2.161  -3.514  0.00  0.00    +0.171 HD
ATOM      5  C   UNL     1      -5.164  -3.060  -2.500  0.00  0.00    +0.255 A 
ATOM      6  O   UNL     1      -5.785  -3.425  -3.485  0.00  0.00    -0.267 OA
ATOM      7  C   UNL     1      -5.638  -3.350  -1.208  0.00  0.00    +0.038 A 
ATOM      8  C   UNL     1      -4.919  -2.928  -0.128  0.00  0.00    +0.052 A 
ATOM      9  N   UNL     1      -3.782  -2.254  -0.312  0.00  0.00    -0.228 NA
ATOM     10  C   UNL     1      -5.612  -3.349   1.150  0.00  0.00    +0.056 C 
ATOM     11  C   UNL     1      -7.056  -3.699   0.729  0.00  0.00    +0.011 C 
ATOM     12  C   UNL     1      -6.875  -4.090  -0.753  0.00  0.00    +0.043 C 
ENDBRANCH   1   2
BRANCH   1  13
ATOM     13  C   UNL     1      -1.293  -0.775   0.010  0.00  0.00    +0.112 C 
BRANCH  13  19
ATOM     14  C   UNL     1      -0.017   1.378   0.010  0.00  0.00    +0.007 A 
ATOM     15  C   UNL     1       1.171   2.086   0.002  0.00  0.00    +0.033 A 
ATOM     16  C   UNL     1       2.377   1.411  -0.013  0.00  0.00    +0.126 A 
ATOM     17  C   UNL     1       2.396   0.029  -0.020  0.00  0.00    +0.033 A 
ATOM     18  C   UNL     1       1.208  -0.679  -0.012  0.00  0.00    +0.007 A 
ATOM     19  C   UNL     1       0.002  -0.004   0.002  0.00  0.00    -0.037 A 
BRANCH  16  20
ATOM     20  N   UNL     1       3.649   2.168  -0.022  0.00  0.00    +0.056 N 
ATOM     21  O   UNL     1       3.633   3.377  -0.016  0.00  0.00    -0.126 OA
ATOM     22  O   UNL     1       4.704   1.578  -0.035  0.00  0.00    -0.126 OA
ENDBRANCH  16  20
ENDBRANCH  13  19
ENDBRANCH   1  13
TORSDOF 4
