REMARK  Name = ZINC10251379
REMARK  8 active torsions:
REMARK  status: ('A' for Active; 'I' for Inactive)
REMARK    1  A    between atoms: C_1  and  C_2
REMARK    2  A    between atoms: C_2  and  C_3
REMARK    3  A    between atoms: C_3  and  C_4
REMARK    4  A    between atoms: C_4  and  C_5
REMARK    5  A    between atoms: C_8  and  C_11
REMARK    6  A    between atoms: N_13  and  N_14
REMARK    7  A    between atoms: N_23  and  C_24
REMARK    8  A    between atoms: C_27  and  C_30
REMARK                            x       y       z     vdW  Elec       q    Type
REMARK                         _______ _______ _______ _____ _____    ______ ____
ROOT
ATOM      1  N   UNL     1       3.559   1.773   0.989  0.00  0.00    -0.212 N 
ATOM      2  C   UNL     1       4.475   1.227   0.149  0.00  0.00    +0.224 A 
ATOM      3  N   UNL     1       5.709   1.632   0.084  0.00  0.00    -0.216 NA
ATOM      4  C   UNL     1       6.171   2.623   0.862  0.00  0.00    +0.170 A 
ATOM      5  C   UNL     1       5.298   3.246   1.768  0.00  0.00    +0.105 A 
ATOM      6  C   UNL     1       3.912   2.780   1.821  0.00  0.00    +0.282 A 
ATOM      7  O   UNL     1       3.106   3.281   2.585  0.00  0.00    -0.265 OA
ATOM      8  C   UNL     1       6.035   4.235   2.446  0.00  0.00    +0.150 A 
ATOM      9  N   UNL     1       7.258   4.220   1.993  0.00  0.00    -0.172 NA
ATOM     10  N   UNL     1       7.380   3.231   1.008  0.00  0.00    -0.214 N 
ENDROOT
BRANCH  10  11
ATOM     11  C   UNL     1       8.546   2.921   0.296  0.00  0.00    +0.068 A 
ATOM     12  C   UNL     1       8.814   1.606  -0.061  0.00  0.00    +0.028 A 
ATOM     13  C   UNL     1       9.961   1.304  -0.768  0.00  0.00    +0.005 A 
ATOM     14  C   UNL     1      10.848   2.309  -1.111  0.00  0.00    -0.050 A 
ATOM     15  C   UNL     1      10.587   3.618  -0.751  0.00  0.00    +0.005 A 
ATOM     16  C   UNL     1       9.439   3.927  -0.049  0.00  0.00    +0.028 A 
ATOM     17  C   UNL     1      12.102   1.975  -1.877  0.00  0.00    +0.044 C 
ENDBRANCH  10  11
BRANCH   1  20
ATOM     18  C   UNL     1       1.401   1.607  -0.003  0.00  0.00    +0.234 C 
ATOM     19  O   UNL     1       1.780   2.315  -0.912  0.00  0.00    -0.274 OA
ATOM     20  N   UNL     1       2.245   1.288   0.998  0.00  0.00    -0.219 N 
ATOM     21  H   UNL     1       1.942   0.722   1.726  0.00  0.00    +0.176 HD
BRANCH  18  25
ATOM     22  C   UNL     1      -2.904   1.556   0.038  0.00  0.00    -0.011 C 
ATOM     23  C   UNL     1      -2.188   1.063  -1.221  0.00  0.00    +0.004 C 
ATOM     24  C   UNL     1      -0.753   1.593  -1.232  0.00  0.00    +0.013 C 
ATOM     25  C   UNL     1      -0.013   1.086   0.008  0.00  0.00    +0.077 C 
ATOM     26  C   UNL     1      -0.729   1.579   1.267  0.00  0.00    +0.013 C 
ATOM     27  C   UNL     1      -2.164   1.050   1.278  0.00  0.00    +0.004 C 
BRANCH  22  28
ATOM     28  C   UNL     1      -4.340   1.027   0.049  0.00  0.00    +0.003 C 
BRANCH  28  29
ATOM     29  C   UNL     1      -5.093   1.620   1.241  0.00  0.00    +0.000 C 
BRANCH  29  31
ATOM     30  C   UNL     1      -7.282   1.684   2.444  0.00  0.00    +0.004 C 
ATOM     31  C   UNL     1      -6.529   1.091   1.252  0.00  0.00    -0.003 C 
ENDBRANCH  29  31
ENDBRANCH  28  29
ENDBRANCH  22  28
ENDBRANCH  18  25
ENDBRANCH   1  20
TORSDOF 6
