REMARK  Name = ZINC40411630
REMARK  8 active torsions:
REMARK  status: ('A' for Active; 'I' for Inactive)
REMARK    1  A    between atoms: C_1  and  C_2
REMARK    2  A    between atoms: C_4  and  C_24
REMARK    3  A    between atoms: C_6  and  N_8
REMARK    4  A    between atoms: C_12  and  C_16
REMARK    5  A    between atoms: N_19  and  C_20
REMARK    6  A    between atoms: C_20  and  C_21
REMARK    7  A    between atoms: C_20  and  C_22
REMARK    8  A    between atoms: C_20  and  C_23
REMARK                            x       y       z     vdW  Elec       q    Type
REMARK                         _______ _______ _______ _____ _____    ______ ____
ROOT
ATOM      1  N   UNL     1       0.051  -2.797   2.393  0.00  0.00    -0.268 N 
ATOM      2  C   UNL     1       0.152  -2.030   3.627  0.00  0.00    +0.132 C 
ATOM      3  C   UNL     1      -0.374  -2.840   4.814  0.00  0.00    +0.129 C 
ATOM      4  N   UNL     1       0.205  -4.192   4.740  0.00  0.00    -0.273 N 
ATOM      5  C   UNL     1      -0.117  -5.000   3.554  0.00  0.00    +0.161 C 
ATOM      6  C   UNL     1      -0.034  -4.127   2.333  0.00  0.00    +0.240 C 
ATOM      7  O   UNL     1      -0.039  -4.657   1.242  0.00  0.00    -0.273 OA
ATOM      8  C   UNL     1      -1.534  -5.561   3.685  0.00  0.00    +0.038 C 
ATOM      9  C   UNL     1       0.998  -4.670   5.720  0.00  0.00    +0.303 C 
ATOM     10  O   UNL     1       1.175  -4.018   6.731  0.00  0.00    -0.253 OA
ATOM     11  N   UNL     1       1.593  -5.871   5.580  0.00  0.00    -0.294 N 
ATOM     12  H   UNL     1       1.511  -6.359   4.745  0.00  0.00    +0.151 HD
ENDROOT
BRANCH   1  18
ATOM     13  C   UNL     1       2.505  -0.699  -1.315  0.00  0.00    +0.044 C 
ATOM     14  C   UNL     1       1.210  -1.058  -0.632  0.00  0.00    -0.048 A 
ATOM     15  C   UNL     1       0.005  -0.686  -1.198  0.00  0.00    +0.006 A 
ATOM     16  C   UNL     1      -1.186  -1.014  -0.575  0.00  0.00    -0.048 A 
ATOM     17  C   UNL     1      -1.174  -1.714   0.615  0.00  0.00    +0.027 A 
ATOM     18  C   UNL     1       0.035  -2.088   1.187  0.00  0.00    +0.037 A 
ATOM     19  C   UNL     1       1.229  -1.762   0.556  0.00  0.00    +0.027 A 
ATOM     20  C   UNL     1      -2.497  -0.606  -1.196  0.00  0.00    +0.044 C 
ENDBRANCH   1  18
BRANCH  11  21
ATOM     21  C   UNL     1       2.365  -6.440   6.687  0.00  0.00    +0.028 C 
ATOM     22  C   UNL     1       1.455  -6.619   7.904  0.00  0.00    +0.031 C 
ATOM     23  C   UNL     1       2.931  -7.799   6.269  0.00  0.00    +0.031 C 
ATOM     24  C   UNL     1       3.515  -5.497   7.045  0.00  0.00    +0.031 C 
ENDBRANCH  11  21
TORSDOF 2
