REMARK  Name = ZINC55054512
REMARK  9 active torsions:
REMARK  status: ('A' for Active; 'I' for Inactive)
REMARK    1  A    between atoms: C_1  and  C_2
REMARK    2  A    between atoms: C_3  and  C_15
REMARK    3  A    between atoms: N_10  and  C_11
REMARK    4  A    between atoms: C_11  and  C_12
REMARK    5  A    between atoms: C_15  and  N_16
REMARK    6  A    between atoms: N_16  and  C_17
REMARK    7  A    between atoms: C_17  and  C_18
REMARK    8  A    between atoms: C_23  and  C_24
REMARK    9  A    between atoms: C_24  and  N_25
REMARK                            x       y       z     vdW  Elec       q    Type
REMARK                         _______ _______ _______ _____ _____    ______ ____
ROOT
ATOM      1  C   UNL     1      -0.464  -0.129  -3.231  0.00  0.00    -0.044 C 
ENDROOT
BRANCH   1   4
ATOM      2  C   UNL     1      -1.022   1.889  -0.940  0.00  0.00    +0.064 C 
ATOM      3  C   UNL     1      -0.990   0.390  -0.795  0.00  0.00    +0.019 A 
ATOM      4  C   UNL     1      -0.747  -0.476  -1.792  0.00  0.00    -0.036 A 
ATOM      5  C   UNL     1      -0.810  -1.821  -1.215  0.00  0.00    +0.001 A 
ATOM      6  C   UNL     1      -0.649  -3.108  -1.734  0.00  0.00    +0.010 A 
ATOM      7  C   UNL     1      -0.774  -4.191  -0.911  0.00  0.00    +0.001 A 
ATOM      8  C   UNL     1      -1.060  -4.024   0.437  0.00  0.00    +0.002 A 
ATOM      9  C   UNL     1      -1.224  -2.764   0.969  0.00  0.00    +0.026 A 
ATOM     10  C   UNL     1      -1.101  -1.646   0.150  0.00  0.00    +0.050 A 
ATOM     11  N   UNL     1      -1.198  -0.291   0.374  0.00  0.00    -0.335 N 
BRANCH  11  12
ATOM     12  C   UNL     1      -1.486   0.329   1.669  0.00  0.00    +0.217 C 
BRANCH  12  13
ATOM     13  C   UNL     1      -2.976   0.485   1.833  0.00  0.00    +0.230 C 
ATOM     14  O   UNL     1      -3.724   0.114   0.953  0.00  0.00    -0.274 OA
ATOM     15  N   UNL     1      -3.477   1.036   2.956  0.00  0.00    -0.328 N 
ATOM     16  H   UNL     1      -2.878   1.333   3.659  0.00  0.00    +0.145 HD
ATOM     17  H   UNL     1      -4.436   1.136   3.061  0.00  0.00    +0.145 HD
ENDBRANCH  12  13
ENDBRANCH  11  12
ENDBRANCH   1   4
BRANCH   1  18
ATOM     18  N   UNL     1       0.983   0.040  -3.417  0.00  0.00    +0.384 N 
ATOM     19  H   UNL     1       1.315   0.783  -2.821  0.00  0.00    -0.085 HD
ATOM     20  H   UNL     1       1.456  -0.819  -3.179  0.00  0.00    -0.085 HD
BRANCH  18  21
ATOM     21  C   UNL     1       1.260   0.378  -4.820  0.00  0.00    -0.046 C 
BRANCH  21  22
ATOM     22  C   UNL     1       2.744   0.551  -5.012  0.00  0.00    -0.060 A 
ATOM     23  C   UNL     1       3.290   1.821  -5.070  0.00  0.00    +0.002 A 
ATOM     24  C   UNL     1       4.652   1.980  -5.246  0.00  0.00    +0.000 A 
ATOM     25  C   UNL     1       5.468   0.870  -5.363  0.00  0.00    +0.000 A 
ATOM     26  C   UNL     1       4.923  -0.398  -5.303  0.00  0.00    +0.005 A 
ATOM     27  C   UNL     1       3.561  -0.558  -5.123  0.00  0.00    -0.029 A 
BRANCH  27  28
ATOM     28  C   UNL     1       2.967  -1.941  -5.053  0.00  0.00    +0.143 C 
BRANCH  28  29
ATOM     29  N   UNL     1       4.007  -2.934  -5.337  0.00  0.00    -0.297 N 
ATOM     30  C   UNL     1       4.361  -3.400  -6.682  0.00  0.00    +0.108 C 
ATOM     31  C   UNL     1       5.745  -4.072  -6.535  0.00  0.00    +0.028 C 
ATOM     32  C   UNL     1       5.734  -4.492  -5.047  0.00  0.00    +0.097 C 
ATOM     33  C   UNL     1       4.763  -3.530  -4.399  0.00  0.00    +0.216 C 
ATOM     34  O   UNL     1       4.676  -3.329  -3.206  0.00  0.00    -0.276 OA
ENDBRANCH  28  29
ENDBRANCH  27  28
ENDBRANCH  21  22
ENDBRANCH  18  21
ENDBRANCH   1  18
TORSDOF 8
