REMARK  Name = ZINC59794563
REMARK  6 active torsions:
REMARK  status: ('A' for Active; 'I' for Inactive)
REMARK    1  A    between atoms: C_4  and  N_7
REMARK    2  A    between atoms: C_8  and  C_23
REMARK    3  A    between atoms: C_11  and  S_12
REMARK    4  A    between atoms: S_12  and  C_13
REMARK    5  A    between atoms: C_13  and  C_14
REMARK    6  A    between atoms: N_16  and  C_17
REMARK                            x       y       z     vdW  Elec       q    Type
REMARK                         _______ _______ _______ _____ _____    ______ ____
ROOT
ATOM      1  N   UNL     1       3.643  -0.619  -0.059  0.00  0.00    -0.270 N 
ATOM      2  C   UNL     1       4.077  -1.528  -0.999  0.00  0.00    +0.169 A 
ATOM      3  N   UNL     1       5.248  -1.965  -0.599  0.00  0.00    -0.128 NA
ATOM      4  N   UNL     1       5.573  -1.403   0.509  0.00  0.00    -0.122 NA
ATOM      5  C   UNL     1       4.632  -0.566   0.885  0.00  0.00    +0.197 A 
ENDROOT
BRANCH   2   6
ATOM      6  C   UNL     1       3.359  -1.933  -2.226  0.00  0.00    +0.021 A 
ATOM      7  C   UNL     1       2.323  -1.142  -2.726  0.00  0.00    +0.012 A 
ATOM      8  C   UNL     1       1.657  -1.526  -3.872  0.00  0.00    +0.002 A 
ATOM      9  C   UNL     1       2.013  -2.693  -4.524  0.00  0.00    +0.020 A 
ATOM     10  C   UNL     1       3.038  -3.483  -4.034  0.00  0.00    +0.042 A 
ATOM     11  C   UNL     1       3.717  -3.106  -2.892  0.00  0.00    +0.031 A 
ATOM     12 CL   UNL     1       3.477  -4.945  -4.860  0.00  0.00    -0.084 Cl
ENDBRANCH   2   6
BRANCH   1  16
ATOM     13  C   UNL     1       0.071   1.530  -0.092  0.00  0.00    +0.000 A 
ATOM     14  C   UNL     1       1.274   2.189  -0.267  0.00  0.00    +0.002 A 
ATOM     15  C   UNL     1       2.459   1.479  -0.256  0.00  0.00    +0.026 A 
ATOM     16  C   UNL     1       2.441   0.103  -0.069  0.00  0.00    +0.051 A 
ATOM     17  C   UNL     1       1.232  -0.555   0.106  0.00  0.00    +0.026 A 
ATOM     18  C   UNL     1       0.050   0.160   0.094  0.00  0.00    +0.002 A 
ENDBRANCH   1  16
BRANCH   5  19
ATOM     19  S   UNL     1       4.640   0.435   2.335  0.00  0.00    -0.076 S 
BRANCH  19  20
ATOM     20  C   UNL     1       6.217   0.033   3.136  0.00  0.00    +0.178 C 
BRANCH  20  21
ATOM     21  C   UNL     1       6.353   0.832   4.407  0.00  0.00    +0.260 C 
ATOM     22  O   UNL     1       7.452   0.696   5.174  0.00  0.00    -0.270 OA
ATOM     23  N   UNL     1       5.408   1.654   4.763  0.00  0.00    -0.175 NA
BRANCH  23  24
ATOM     24  C   UNL     1       5.531   2.377   5.913  0.00  0.00    +0.249 A 
ATOM     25  N   UNL     1       6.551   2.340   6.751  0.00  0.00    -0.198 NA
ATOM     26  H   UNL     1       3.783   3.512   5.998  0.00  0.00    +0.192 HD
ATOM     27  C   UNL     1       6.330   3.176   7.763  0.00  0.00    +0.247 A 
ATOM     28  N   UNL     1       5.174   3.761   7.595  0.00  0.00    -0.159 NA
ATOM     29  N   UNL     1       4.633   3.267   6.397  0.00  0.00    -0.243 N 
ENDBRANCH  23  24
ENDBRANCH  20  21
ENDBRANCH  19  20
ENDBRANCH   5  19
TORSDOF 6
