REMARK  Name = ZINC13396095
REMARK  10 active torsions:
REMARK  status: ('A' for Active; 'I' for Inactive)
REMARK    1  A    between atoms: C_1  and  C_2
REMARK    2  A    between atoms: C_2  and  C_3
REMARK    3  A    between atoms: C_2  and  C_4
REMARK    4  A    between atoms: C_9  and  O_10
REMARK    5  A    between atoms: O_10  and  C_11
REMARK    6  A    between atoms: C_11  and  C_12
REMARK    7  A    between atoms: N_14  and  C_15
REMARK    8  A    between atoms: C_18  and  S_21
REMARK    9  A    between atoms: S_21  and  N_24
REMARK   10  A    between atoms: C_28  and  C_31
REMARK                            x       y       z     vdW  Elec       q    Type
REMARK                         _______ _______ _______ _____ _____    ______ ____
ROOT
ATOM      1  C   UNL     1      -5.396  -0.851  -1.252  0.00  0.00    +0.034 A 
ATOM      2  C   UNL     1      -5.215   0.370  -1.888  0.00  0.00    +0.025 A 
ATOM      3  C   UNL     1      -3.943   0.793  -2.220  0.00  0.00    +0.030 A 
ATOM      4  C   UNL     1      -2.849   0.002  -1.919  0.00  0.00    +0.106 A 
ATOM      5  C   UNL     1      -3.026  -1.217  -1.290  0.00  0.00    +0.030 A 
ATOM      6  C   UNL     1      -4.296  -1.643  -0.951  0.00  0.00    +0.025 A 
ENDROOT
BRANCH   1   9
ATOM      7  C   UNL     1      -7.730  -0.961  -1.700  0.00  0.00    +0.255 C 
ATOM      8  O   UNL     1      -7.544  -0.381  -2.749  0.00  0.00    -0.272 OA
ATOM      9  N   UNL     1      -6.683  -1.282  -0.913  0.00  0.00    -0.283 N 
ATOM     10  H   UNL     1      -6.823  -1.812  -0.113  0.00  0.00    +0.155 HD
BRANCH   7  11
ATOM     11  C   UNL     1      -9.130  -1.322  -1.276  0.00  0.00    +0.324 C 
BRANCH  11  12
ATOM     12  O   UNL     1     -10.058  -0.879  -2.268  0.00  0.00    -0.482 OA
BRANCH  12  18
ATOM     13  C   UNL     1     -12.329  -0.725  -2.960  0.00  0.00    -0.003 A 
ATOM     14  C   UNL     1     -13.666  -0.980  -2.723  0.00  0.00    +0.007 A 
ATOM     15  C   UNL     1     -14.052  -1.635  -1.569  0.00  0.00    +0.001 A 
ATOM     16  C   UNL     1     -13.102  -2.037  -0.648  0.00  0.00    +0.004 A 
ATOM     17  C   UNL     1     -11.764  -1.790  -0.883  0.00  0.00    +0.046 A 
ATOM     18  C   UNL     1     -11.373  -1.128  -2.038  0.00  0.00    +0.125 A 
BRANCH  13  20
ATOM     19  C   UNL     1     -12.351  -0.823  -5.438  0.00  0.00    +0.012 C 
ATOM     20  C   UNL     1     -11.908  -0.012  -4.219  0.00  0.00    +0.016 C 
ATOM     21  C   UNL     1     -12.560   1.372  -4.263  0.00  0.00    +0.012 C 
ENDBRANCH  13  20
ENDBRANCH  12  18
ENDBRANCH  11  12
ENDBRANCH   7  11
ENDBRANCH   1   9
BRANCH   4  22
ATOM     22  S   UNL     1      -1.228   0.544  -2.344  0.00  0.00    +0.061 S 
ATOM     23  O   UNL     1      -1.376   1.464  -3.417  0.00  0.00    -0.153 OA
ATOM     24  O   UNL     1      -0.423  -0.622  -2.446  0.00  0.00    -0.153 OA
BRANCH  22  25
ATOM     25  N   UNL     1      -0.648   1.409  -1.057  0.00  0.00    -0.176 NA
ATOM     26  C   UNL     1       0.099   0.741   0.018  0.00  0.00    +0.109 C 
ATOM     27  C   UNL     1      -0.554   1.082   1.361  0.00  0.00    +0.018 C 
ATOM     28  C   UNL     1      -0.647   2.603   1.507  0.00  0.00    +0.017 C 
ATOM     29  C   UNL     1      -1.515   3.176   0.385  0.00  0.00    +0.118 C 
ATOM     30  C   UNL     1      -0.870   2.859  -0.967  0.00  0.00    +0.124 C 
BRANCH  29  31
ATOM     31  C   UNL     1      -1.629   4.670   0.550  0.00  0.00    +0.360 C 
ATOM     32  O   UNL     1      -1.235   5.406  -0.324  0.00  0.00    -0.246 OA
ATOM     33  O   UNL     1      -2.168   5.183   1.667  0.00  0.00    -0.246 OA
ENDBRANCH  29  31
ENDBRANCH  22  25
ENDBRANCH   4  22
TORSDOF 8
