REMARK  Name = ZINC22018053
REMARK  8 active torsions:
REMARK  status: ('A' for Active; 'I' for Inactive)
REMARK    1  A    between atoms: C_4  and  C_7
REMARK    2  A    between atoms: C_7  and  C_21
REMARK    3  A    between atoms: N_8  and  N_9
REMARK    4  A    between atoms: C_10  and  C_12
REMARK    5  A    between atoms: C_15  and  N_18
REMARK    6  A    between atoms: C_21  and  C_22
REMARK    7  A    between atoms: C_22  and  C_24
REMARK    8  A    between atoms: C_22  and  C_35
REMARK                            x       y       z     vdW  Elec       q    Type
REMARK                         _______ _______ _______ _____ _____    ______ ____
ROOT
ATOM      1  C   UNL     1      -3.043   5.970  -0.911  0.00  0.00    +0.067 C 
ATOM      2  N   UNL     1      -3.577   6.674   0.040  0.00  0.00    -0.184 NA
ENDROOT
BRANCH   1   6
ATOM      3  C   UNL     1      -2.714   7.587  -4.821  0.00  0.00    +0.000 A 
ATOM      4  C   UNL     1      -2.547   8.409  -3.720  0.00  0.00    +0.001 A 
ATOM      5  C   UNL     1      -2.653   7.890  -2.446  0.00  0.00    +0.010 A 
ATOM      6  C   UNL     1      -2.929   6.532  -2.270  0.00  0.00    -0.002 A 
ATOM      7  C   UNL     1      -3.091   5.708  -3.386  0.00  0.00    +0.010 A 
ATOM      8  C   UNL     1      -2.987   6.241  -4.654  0.00  0.00    +0.001 A 
ENDBRANCH   1   6
BRANCH   2   9
ATOM      9  N   UNL     1      -4.206   7.890  -0.258  0.00  0.00    -0.203 N 
ATOM     10  C   UNL     1      -4.667   8.672   0.739  0.00  0.00    +0.263 C 
ATOM     11  O   UNL     1      -4.536   8.322   1.896  0.00  0.00    -0.268 OA
ATOM     12  H   UNL     1      -4.324   8.207  -1.304  0.00  0.00    +0.178 HD
BRANCH  10  13
ATOM     13  C   UNL     1      -5.331   9.954   0.425  0.00  0.00    +0.038 A 
ATOM     14  C   UNL     1      -5.477  10.362  -0.902  0.00  0.00    +0.015 A 
ATOM     15  C   UNL     1      -6.102  11.558  -1.188  0.00  0.00    +0.033 A 
ATOM     16  C   UNL     1      -6.574  12.358  -0.163  0.00  0.00    +0.126 A 
ATOM     17  C   UNL     1      -6.427  11.963   1.155  0.00  0.00    +0.033 A 
ATOM     18  C   UNL     1      -5.809  10.767   1.455  0.00  0.00    +0.015 A 
BRANCH  16  19
ATOM     19  N   UNL     1      -7.238  13.643  -0.477  0.00  0.00    +0.056 N 
ATOM     20  O   UNL     1      -7.654  14.350   0.424  0.00  0.00    -0.126 OA
ATOM     21  O   UNL     1      -7.368  13.994  -1.636  0.00  0.00    -0.126 OA
ENDBRANCH  16  19
ENDBRANCH  10  13
ENDBRANCH   2   9
BRANCH   1  22
ATOM     22  C   UNL     1      -2.541   4.578  -0.627  0.00  0.00    +0.073 C 
BRANCH  22  23
ATOM     23  C   UNL     1      -1.067   4.641  -0.223  0.00  0.00    +0.117 C 
BRANCH  23  24
ATOM     24  C   UNL     1      -0.510   3.243  -0.134  0.00  0.00    +0.053 C 
ATOM     25  C   UNL     1       0.460   2.709  -0.886  0.00  0.00    +0.083 C 
ATOM     26  N   UNL     1       0.720   1.367  -0.536  0.00  0.00    -0.288 NA
ATOM     27  C   UNL     1      -0.556   0.900  -0.003  0.00  0.00    +0.135 C 
ATOM     28  C   UNL     1      -0.925   2.171   0.821  0.00  0.00    +0.049 C 
ATOM     29  C   UNL     1      -2.358   2.019   1.196  0.00  0.00    -0.020 C 
ATOM     30  C   UNL     1      -2.691   0.798   1.665  0.00  0.00    -0.004 C 
ATOM     31  C   UNL     1      -1.656  -0.248   1.786  0.00  0.00    -0.002 C 
ATOM     32  C   UNL     1      -0.586  -0.233   0.964  0.00  0.00    -0.000 C 
ENDBRANCH  23  24
BRANCH  23  33
ATOM     33  C   UNL     1      -0.942   5.317   1.119  0.00  0.00    +0.360 C 
ATOM     34  O   UNL     1      -0.768   4.655   2.115  0.00  0.00    -0.246 OA
ATOM     35  O   UNL     1      -1.024   6.654   1.206  0.00  0.00    -0.246 OA
ENDBRANCH  23  33
ENDBRANCH  22  23
ENDBRANCH   1  22
TORSDOF 8
