REMARK  Name = ZINC24991789
REMARK  11 active torsions:
REMARK  status: ('A' for Active; 'I' for Inactive)
REMARK    1  A    between atoms: C_1  and  C_2
REMARK    2  A    between atoms: C_2  and  N_3
REMARK    3  A    between atoms: N_3  and  C_4
REMARK    4  A    between atoms: C_4  and  C_5
REMARK    5  A    between atoms: C_6  and  C_8
REMARK    6  A    between atoms: C_8  and  S_9
REMARK    7  A    between atoms: S_9  and  C_10
REMARK    8  A    between atoms: C_13  and  S_15
REMARK    9  A    between atoms: S_15  and  C_16
REMARK   10  A    between atoms: C_16  and  C_17
REMARK   11  A    between atoms: N_22  and  C_23
REMARK                            x       y       z     vdW  Elec       q    Type
REMARK                         _______ _______ _______ _____ _____    ______ ____
ROOT
ATOM      1  C   UNL     1      -7.192   1.201   2.099  0.00  0.00    +0.231 C 
ATOM      2  O   UNL     1      -6.796   1.898   3.008  0.00  0.00    -0.274 OA
ATOM      3  N   UNL     1      -6.368   0.892   1.079  0.00  0.00    -0.239 N 
ATOM      4  C   UNL     1      -5.103   1.358   1.069  0.00  0.00    +0.306 C 
ATOM      5  O   UNL     1      -4.707   2.057   1.980  0.00  0.00    -0.252 OA
ATOM      6  N   UNL     1      -4.279   1.049   0.049  0.00  0.00    -0.294 N 
ATOM      7  H   UNL     1      -6.727   0.259   0.254  0.00  0.00    +0.159 HD
ATOM      8  H   UNL     1      -4.638   0.417  -0.776  0.00  0.00    +0.151 HD
ENDROOT
BRANCH   6   9
ATOM      9  C   UNL     1      -2.904   1.556   0.038  0.00  0.00    +0.037 C 
ATOM     10  C   UNL     1      -2.188   1.063  -1.221  0.00  0.00    +0.029 C 
ATOM     11  C   UNL     1      -0.753   1.593  -1.232  0.00  0.00    -0.008 C 
ATOM     12  C   UNL     1      -0.013   1.086   0.008  0.00  0.00    +0.007 C 
ATOM     13  C   UNL     1      -0.729   1.579   1.267  0.00  0.00    -0.008 C 
ATOM     14  C   UNL     1      -2.164   1.050   1.278  0.00  0.00    +0.029 C 
ATOM     15  C   UNL     1      -0.750   3.109   1.275  0.00  0.00    +0.007 C 
ATOM     16  C   UNL     1      -1.490   3.616   0.036  0.00  0.00    -0.008 C 
ATOM     17  C   UNL     1      -0.773   3.123  -1.223  0.00  0.00    +0.007 C 
ATOM     18  C   UNL     1      -2.925   3.086   0.047  0.00  0.00    +0.029 C 
ENDBRANCH   6   9
BRANCH   1  19
ATOM     19  C   UNL     1      -8.606   0.679   2.110  0.00  0.00    +0.172 C 
BRANCH  19  20
ATOM     20  S   UNL     1      -9.455   1.264   3.602  0.00  0.00    -0.088 S 
BRANCH  20  24
ATOM     21  C   UNL     1     -13.620  -0.263   3.651  0.00  0.00    +0.160 A 
ATOM     22  N   UNL     1     -12.885  -0.615   2.614  0.00  0.00    -0.134 NA
ATOM     23  N   UNL     1     -11.582  -0.185   2.521  0.00  0.00    -0.134 NA
ATOM     24  C   UNL     1     -11.073   0.579   3.468  0.00  0.00    +0.160 A 
ATOM     25  S   UNL     1     -12.460   0.726   4.584  0.00  0.00    -0.033 S 
BRANCH  21  26
ATOM     26  S   UNL     1     -15.294  -0.665   4.022  0.00  0.00    -0.088 S 
BRANCH  26  27
ATOM     27  C   UNL     1     -15.815  -1.703   2.628  0.00  0.00    +0.172 C 
BRANCH  27  29
ATOM     28  N   UNL     1     -17.853  -2.903   1.905  0.00  0.00    -0.301 N 
ATOM     29  C   UNL     1     -17.249  -2.122   2.822  0.00  0.00    +0.226 C 
ATOM     30  O   UNL     1     -17.860  -1.757   3.804  0.00  0.00    -0.275 OA
BRANCH  28  32
ATOM     31  C   UNL     1     -20.173  -2.277   1.448  0.00  0.00    +0.024 C 
ATOM     32  C   UNL     1     -19.248  -3.310   2.093  0.00  0.00    +0.104 C 
ENDBRANCH  28  32
BRANCH  28  33
ATOM     33  C   UNL     1     -17.115  -3.344   0.718  0.00  0.00    +0.104 C 
ATOM     34  C   UNL     1     -16.419  -4.673   1.016  0.00  0.00    +0.024 C 
ENDBRANCH  28  33
ENDBRANCH  27  29
ENDBRANCH  26  27
ENDBRANCH  21  26
ENDBRANCH  20  24
ENDBRANCH  19  20
ENDBRANCH   1  19
TORSDOF 9
