REMARK  Name = ZINC09265133
REMARK  13 active torsions:
REMARK  status: ('A' for Active; 'I' for Inactive)
REMARK    1  A    between atoms: C_1  and  C_2
REMARK    2  A    between atoms: C_2  and  C_4
REMARK    3  A    between atoms: C_2  and  O_29
REMARK    4  A    between atoms: N_6  and  C_7
REMARK    5  A    between atoms: C_15  and  C_16
REMARK    6  A    between atoms: N_18  and  C_19
REMARK    7  A    between atoms: N_18  and  C_23
REMARK    8  A    between atoms: C_19  and  C_20
REMARK    9  A    between atoms: C_20  and  N_64
REMARK   10  A    between atoms: C_21  and  N_64
REMARK   11  A    between atoms: C_22  and  N_64
REMARK   12  A    between atoms: C_23  and  C_24
REMARK   13  A    between atoms: O_29  and  C_30
REMARK                            x       y       z     vdW  Elec       q    Type
REMARK                         _______ _______ _______ _____ _____    ______ ____
ROOT
ATOM      1  C   UNL     1       3.821   3.652   0.916  0.00  0.00    +0.092 A 
ATOM      2  C   UNL     1       3.934   5.019   1.439  0.00  0.00    +0.042 A 
ATOM      3  C   UNL     1       3.010   6.009   1.775  0.00  0.00    +0.013 A 
ATOM      4  C   UNL     1       3.449   7.210   2.259  0.00  0.00    +0.001 A 
ATOM      5  C   UNL     1       4.806   7.447   2.423  0.00  0.00    +0.004 A 
ATOM      6  C   UNL     1       5.734   6.480   2.102  0.00  0.00    +0.047 A 
ATOM      7  C   UNL     1       5.310   5.251   1.608  0.00  0.00    +0.138 A 
ATOM      8  O   UNL     1       5.967   4.141   1.217  0.00  0.00    -0.448 OA
ATOM      9  C   UNL     1       5.102   3.186   0.806  0.00  0.00    +0.212 A 
ENDROOT
BRANCH   1  12
ATOM     10  C   UNL     1       1.554   3.118   1.362  0.00  0.00    +0.258 C 
ATOM     11  O   UNL     1       1.555   3.914   2.276  0.00  0.00    -0.271 OA
ATOM     12  N   UNL     1       2.652   2.972   0.594  0.00  0.00    -0.279 N 
ATOM     13  H   UNL     1       2.627   2.393  -0.184  0.00  0.00    +0.155 HD
BRANCH  10  15
ATOM     14  C   UNL     1      -0.174   2.578  -0.333  0.00  0.00    +0.062 C 
ATOM     15  C   UNL     1       0.326   2.290   1.085  0.00  0.00    +0.256 C 
BRANCH  15  16
ATOM     16  O   UNL     1      -0.696   2.624   2.027  0.00  0.00    -0.480 OA
BRANCH  16  17
ATOM     17  C   UNL     1      -1.636   1.676   2.278  0.00  0.00    +0.122 A 
ATOM     18  C   UNL     1      -2.584   1.883   3.270  0.00  0.00    +0.045 A 
ATOM     19  C   UNL     1      -3.542   0.920   3.520  0.00  0.00    +0.004 A 
ATOM     20  C   UNL     1      -3.551  -0.254   2.790  0.00  0.00    +0.000 A 
ATOM     21  C   UNL     1      -2.604  -0.466   1.806  0.00  0.00    +0.004 A 
ATOM     22  C   UNL     1      -1.647   0.496   1.548  0.00  0.00    +0.045 A 
ENDBRANCH  16  17
ENDBRANCH  15  16
ENDBRANCH  10  15
ENDBRANCH   1  12
BRANCH   9  23
ATOM     23  C   UNL     1       5.479   1.861   0.317  0.00  0.00    +0.284 C 
ATOM     24  O   UNL     1       4.617   1.058   0.010  0.00  0.00    -0.267 OA
ATOM     25  N   UNL     1       6.780   1.528   0.207  0.00  0.00    -0.289 N 
BRANCH  25  26
ATOM     26  C   UNL     1       7.817   2.472   0.633  0.00  0.00    +0.090 C 
BRANCH  26  27
ATOM     27  C   UNL     1       8.024   2.353   2.145  0.00  0.00    -0.060 C 
BRANCH  27  30
ATOM     28  C   UNL     1       8.618   4.688   2.389  0.00  0.00    -0.097 C 
ATOM     29  C   UNL     1       9.459   3.053   3.965  0.00  0.00    -0.097 C 
ATOM     30  N   UNL     1       9.086   3.296   2.555  0.00  0.00    +0.377 N 
ATOM     31  H   UNL     1       9.911   3.147   1.962  0.00  0.00    -0.083 HD
ENDBRANCH  27  30
ENDBRANCH  26  27
ENDBRANCH  25  26
BRANCH  25  32
ATOM     32  C   UNL     1       7.159   0.223  -0.339  0.00  0.00    +0.182 C 
BRANCH  32  33
ATOM     33  C   UNL     1       7.320   0.331  -1.833  0.00  0.00    +0.122 A 
ATOM     34  C   UNL     1       8.458   0.637  -2.482  0.00  0.00    +0.046 A 
ATOM     35  C   UNL     1       8.158   0.628  -3.863  0.00  0.00    +0.041 A 
ATOM     36  C   UNL     1       6.854   0.316  -3.977  0.00  0.00    +0.195 A 
ATOM     37  O   UNL     1       6.354   0.132  -2.744  0.00  0.00    -0.466 OA
ENDBRANCH  32  33
ENDBRANCH  25  32
ENDBRANCH   9  23
TORSDOF 10
