REMARK  Name = ZINC39688675
REMARK  9 active torsions:
REMARK  status: ('A' for Active; 'I' for Inactive)
REMARK    1  A    between atoms: C_1  and  C_2
REMARK    2  A    between atoms: C_5  and  O_8
REMARK    3  A    between atoms: O_8  and  C_9
REMARK    4  A    between atoms: C_10  and  C_15
REMARK    5  A    between atoms: C_19  and  C_28
REMARK    6  A    between atoms: N_30  and  C_31
REMARK    7  A    between atoms: C_31  and  C_33
REMARK    8  A    between atoms: C_31  and  C_34
REMARK    9  A    between atoms: C_34  and  C_35
REMARK                            x       y       z     vdW  Elec       q    Type
REMARK                         _______ _______ _______ _____ _____    ______ ____
ROOT
ATOM      1  C   UNL     1       0.053  -6.588   0.097  0.00  0.00    +0.252 C 
ATOM      2  O   UNL     1       0.078  -6.063  -0.999  0.00  0.00    -0.270 OA
ATOM      3  N   UNL     1       0.226  -7.920   0.210  0.00  0.00    -0.296 N 
ATOM      4  C   UNL     1       0.340  -8.719   1.453  0.00  0.00    +0.121 C 
ATOM      5  C   UNL     1      -0.450 -10.014   1.159  0.00  0.00    +0.100 C 
ATOM      6  C   UNL     1      -0.442 -10.139  -0.373  0.00  0.00    -0.004 C 
ATOM      7  C   UNL     1       0.339  -8.918  -0.881  0.00  0.00    +0.115 C 
ATOM      8  C   UNL     1       0.259 -11.427  -0.795  0.00  0.00    -0.010 C 
ATOM      9  C   UNL     1       0.203 -11.558  -2.319  0.00  0.00    -0.082 C 
ATOM     10  N   UNL     1      -1.197 -11.572  -2.760  0.00  0.00    +0.379 N 
ATOM     11  C   UNL     1      -1.837 -10.292  -2.434  0.00  0.00    -0.082 C 
ATOM     12  C   UNL     1      -1.868 -10.108  -0.914  0.00  0.00    -0.010 C 
ATOM     13  H   UNL     1      -1.232 -11.719  -3.758  0.00  0.00    -0.086 HD
ATOM     14  H   UNL     1      -1.687 -12.321  -2.295  0.00  0.00    -0.086 HD
ENDROOT
BRANCH   1  16
ATOM     15  C   UNL     1      -0.881  -4.562   1.227  0.00  0.00    +0.233 A 
ATOM     16  C   UNL     1      -0.168  -5.768   1.304  0.00  0.00    +0.099 A 
ATOM     17  C   UNL     1       0.330  -6.179   2.545  0.00  0.00    +0.020 A 
ATOM     18  C   UNL     1       0.095  -5.375   3.646  0.00  0.00    +0.021 A 
ATOM     19  C   UNL     1      -0.617  -4.199   3.490  0.00  0.00    +0.114 A 
ATOM     20  N   UNL     1      -1.073  -3.828   2.310  0.00  0.00    -0.220 NA
BRANCH  15  21
ATOM     21  O   UNL     1      -1.372  -4.145   0.035  0.00  0.00    -0.437 OA
BRANCH  21  26
ATOM     22  C   UNL     1      -3.815   0.925  -0.191  0.00  0.00    +0.044 C 
ATOM     23  C   UNL     1      -3.161  -0.431  -0.130  0.00  0.00    -0.050 A 
ATOM     24  C   UNL     1      -1.804  -0.533   0.116  0.00  0.00    +0.007 A 
ATOM     25  C   UNL     1      -1.203  -1.776   0.172  0.00  0.00    +0.046 A 
ATOM     26  C   UNL     1      -1.961  -2.922  -0.019  0.00  0.00    +0.130 A 
ATOM     27  C   UNL     1      -3.322  -2.817  -0.266  0.00  0.00    +0.046 A 
ATOM     28  C   UNL     1      -3.920  -1.572  -0.315  0.00  0.00    +0.007 A 
ENDBRANCH  21  26
ENDBRANCH  15  21
ENDBRANCH   1  16
BRANCH   5  29
ATOM     29  C   UNL     1      -1.863  -9.894   1.671  0.00  0.00    +0.218 C 
ATOM     30  O   UNL     1      -2.429  -8.822   1.642  0.00  0.00    -0.275 OA
ATOM     31  N   UNL     1      -2.496 -10.978   2.160  0.00  0.00    -0.312 N 
ATOM     32  H   UNL     1      -2.020 -11.818   2.251  0.00  0.00    +0.149 HD
BRANCH  31  33
ATOM     33  C   UNL     1      -3.904 -10.887   2.555  0.00  0.00    +0.074 C 
ATOM     34  C   UNL     1      -4.793 -11.205   1.351  0.00  0.00    +0.028 C 
BRANCH  33  35
ATOM     35  C   UNL     1      -4.186 -11.890   3.675  0.00  0.00    +0.057 C 
BRANCH  35  36
ATOM     36  C   UNL     1      -3.356 -11.540   4.883  0.00  0.00    -0.045 A 
ATOM     37  C   UNL     1      -2.056 -11.999   4.986  0.00  0.00    +0.006 A 
ATOM     38  C   UNL     1      -1.294 -11.678   6.093  0.00  0.00    +0.038 A 
ATOM     39  C   UNL     1      -1.833 -10.895   7.100  0.00  0.00    +0.123 A 
ATOM     40  C   UNL     1      -3.135 -10.436   6.997  0.00  0.00    +0.038 A 
ATOM     41  C   UNL     1      -3.893 -10.754   5.886  0.00  0.00    +0.006 A 
ATOM     42  F   UNL     1      -1.089 -10.581   8.183  0.00  0.00    -0.205 F 
ENDBRANCH  35  36
ENDBRANCH  33  35
ENDBRANCH  31  33
ENDBRANCH   5  29
TORSDOF 7
