REMARK  Name = ZINC10188451
REMARK  9 active torsions:
REMARK  status: ('A' for Active; 'I' for Inactive)
REMARK    1  A    between atoms: C_1  and  N_2
REMARK    2  A    between atoms: N_2  and  C_3
REMARK    3  A    between atoms: N_2  and  C_4
REMARK    4  A    between atoms: C_7  and  C_10
REMARK    5  A    between atoms: C_10  and  C_12
REMARK    6  A    between atoms: C_10  and  N_66
REMARK    7  A    between atoms: C_12  and  N_13
REMARK    8  A    between atoms: C_14  and  C_16
REMARK    9  A    between atoms: N_18  and  C_19
REMARK                            x       y       z     vdW  Elec       q    Type
REMARK                         _______ _______ _______ _____ _____    ______ ____
ROOT
ATOM      1  C   UNL     1       4.894   1.150   0.114  0.00  0.00    -0.020 C 
ENDROOT
BRANCH   1  11
ATOM      2  C   UNL     1       4.092  -1.034   0.792  0.00  0.00    -0.073 C 
ATOM      3  C   UNL     1       4.205  -2.046   1.932  0.00  0.00    +0.017 C 
ATOM      4  C   UNL     1       3.643  -1.456   3.200  0.00  0.00    -0.048 A 
ATOM      5  C   UNL     1       3.329  -2.313   4.245  0.00  0.00    +0.004 A 
ATOM      6  C   UNL     1       2.820  -1.813   5.427  0.00  0.00    +0.000 A 
ATOM      7  C   UNL     1       2.623  -0.453   5.570  0.00  0.00    +0.000 A 
ATOM      8  C   UNL     1       2.933   0.400   4.530  0.00  0.00    +0.002 A 
ATOM      9  C   UNL     1       3.444  -0.100   3.341  0.00  0.00    -0.061 A 
ATOM     10  C   UNL     1       3.763   0.870   2.234  0.00  0.00    -0.042 C 
ATOM     11  N   UNL     1       4.672   0.241   1.261  0.00  0.00    +0.388 N 
ATOM     12  H   UNL     1       5.573   0.052   1.716  0.00  0.00    -0.080 HD
ENDBRANCH   1  11
BRANCH   1  16
ATOM     13  C   UNL     1       8.392   3.487   0.871  0.00  0.00    +0.029 A 
ATOM     14  C   UNL     1       8.205   2.897  -0.372  0.00  0.00    +0.023 A 
ATOM     15  C   UNL     1       7.073   2.142  -0.614  0.00  0.00    +0.004 A 
ATOM     16  C   UNL     1       6.127   1.974   0.381  0.00  0.00    -0.059 A 
ATOM     17  C   UNL     1       6.307   2.565   1.618  0.00  0.00    +0.004 A 
ATOM     18  C   UNL     1       7.439   3.317   1.868  0.00  0.00    +0.023 A 
BRANCH  13  20
ATOM     19  C   UNL     1      10.478   4.531   0.034  0.00  0.00    +0.129 C 
ATOM     20  N   UNL     1       9.534   4.251   1.119  0.00  0.00    -0.336 N 
ATOM     21  C   UNL     1       9.789   4.774   2.464  0.00  0.00    +0.129 C 
ENDBRANCH  13  20
ENDBRANCH   1  16
BRANCH   1  22
ATOM     22  C   UNL     1       3.690   2.078  -0.065  0.00  0.00    +0.094 C 
BRANCH  22  23
ATOM     23  N   UNL     1       2.496   1.278  -0.349  0.00  0.00    -0.309 N 
ATOM     24  C   UNL     1       1.289   1.873  -0.427  0.00  0.00    +0.299 C 
ATOM     25  O   UNL     1       1.192   3.071  -0.261  0.00  0.00    -0.265 OA
ATOM     26  H   UNL     1       2.574   0.320  -0.482  0.00  0.00    +0.149 HD
BRANCH  24  27
ATOM     27  C   UNL     1       0.071   1.057  -0.717  0.00  0.00    +0.299 C 
ATOM     28  O   UNL     1       0.169  -0.141  -0.882  0.00  0.00    -0.265 OA
ATOM     29  N   UNL     1      -1.135   1.653  -0.799  0.00  0.00    -0.305 N 
ATOM     30  H   UNL     1      -1.213   2.611  -0.667  0.00  0.00    +0.149 HD
BRANCH  29  31
ATOM     31  C   UNL     1      -2.328   0.854  -1.089  0.00  0.00    +0.073 C 
ATOM     32  C   UNL     1      -2.526   0.734  -2.615  0.00  0.00    +0.022 C 
ATOM     33  C   UNL     1      -4.061   0.795  -2.805  0.00  0.00    +0.002 C 
ATOM     34  C   UNL     1      -4.495   1.841  -1.748  0.00  0.00    +0.002 C 
ATOM     35  C   UNL     1      -3.581   1.558  -0.538  0.00  0.00    +0.022 C 
ENDBRANCH  29  31
ENDBRANCH  24  27
ENDBRANCH  22  23
ENDBRANCH   1  22
TORSDOF 7
