REMARK  Name = ZINC39227411
REMARK  4 active torsions:
REMARK  status: ('A' for Active; 'I' for Inactive)
REMARK    1  A    between atoms: C_1  and  N_2
REMARK    2  A    between atoms: C_9  and  O_32
REMARK    3  A    between atoms: C_13  and  C_18
REMARK    4  A    between atoms: C_22  and  C_24
REMARK                            x       y       z     vdW  Elec       q    Type
REMARK                         _______ _______ _______ _____ _____    ______ ____
ROOT
ATOM      1  C   UNL     1      -1.407   0.798  -0.274  0.00  0.00    -0.096 C 
ATOM      2  N   UNL     1      -1.153  -0.647  -0.208  0.00  0.00    +0.378 N 
ATOM      3  C   UNL     1      -2.432  -1.363  -0.111  0.00  0.00    -0.075 C 
ATOM      4  C   UNL     1      -2.177  -2.872  -0.126  0.00  0.00    +0.029 C 
ATOM      5  C   UNL     1      -1.285  -3.247   1.059  0.00  0.00    +0.110 C 
ATOM      6  C   UNL     1       0.011  -2.437   0.994  0.00  0.00    +0.029 C 
ATOM      7  C   UNL     1      -0.326  -0.945   0.967  0.00  0.00    -0.075 C 
ATOM      8  C   UNL     1      -0.960  -4.743   0.998  0.00  0.00    +0.084 C 
ATOM      9  C   UNL     1       0.014  -5.072   2.132  0.00  0.00    +0.152 C 
ATOM     10  C   UNL     1      -0.491  -4.480   3.423  0.00  0.00    +0.023 A 
ATOM     11  C   UNL     1       0.009  -4.967   4.617  0.00  0.00    +0.018 A 
ATOM     12  C   UNL     1      -0.430  -4.440   5.828  0.00  0.00    -0.017 A 
ATOM     13  C   UNL     1      -1.378  -3.418   5.834  0.00  0.00    +0.012 A 
ATOM     14  C   UNL     1      -1.875  -2.937   4.643  0.00  0.00    +0.046 A 
ATOM     15  C   UNL     1      -1.437  -3.468   3.432  0.00  0.00    +0.127 A 
ATOM     16  O   UNL     1      -1.967  -2.975   2.282  0.00  0.00    -0.485 OA
ATOM     17  H   UNL     1      -0.669  -0.941  -1.043  0.00  0.00    -0.082 HD
ENDROOT
BRANCH  12  18
ATOM     18  C   UNL     1       0.106  -4.965   7.107  0.00  0.00    -0.017 A 
ATOM     19  C   UNL     1       1.058  -5.985   7.099  0.00  0.00    +0.008 A 
ATOM     20  C   UNL     1       1.560  -6.475   8.289  0.00  0.00    +0.001 A 
ATOM     21  C   UNL     1       1.123  -5.961   9.493  0.00  0.00    +0.013 A 
ATOM     22  C   UNL     1       0.171  -4.940   9.515  0.00  0.00    +0.037 A 
ATOM     23  C   UNL     1      -0.334  -4.438   8.316  0.00  0.00    +0.021 A 
BRANCH  22  24
ATOM     24  C   UNL     1      -0.296  -4.389  10.805  0.00  0.00    +0.247 C 
ATOM     25  O   UNL     1      -0.407  -3.187  10.948  0.00  0.00    -0.270 OA
ATOM     26  N   UNL     1      -0.599  -5.219  11.822  0.00  0.00    -0.293 N 
ATOM     27  C   UNL     1      -1.149  -4.710  13.091  0.00  0.00    +0.112 C 
ATOM     28  C   UNL     1      -2.539  -5.323  13.280  0.00  0.00    +0.046 C 
ATOM     29  C   UNL     1      -2.508  -6.792  12.980  0.00  0.00    -0.028 C 
ATOM     30  C   UNL     1      -1.583  -7.383  12.294  0.00  0.00    -0.012 C 
ATOM     31  C   UNL     1      -0.399  -6.672  11.710  0.00  0.00    +0.135 C 
ENDBRANCH  22  24
ENDBRANCH  12  18
BRANCH   9  32
ATOM     32  O   UNL     1       0.121  -6.490   2.271  0.00  0.00    -0.387 OA
ATOM     33  H   UNL     1       0.724  -6.773   2.973  0.00  0.00    +0.210 HD
ENDBRANCH   9  32
TORSDOF 3
