REMARK  Name = ZINC38819117
REMARK  10 active torsions:
REMARK  status: ('A' for Active; 'I' for Inactive)
REMARK    1  A    between atoms: C_1  and  C_2
REMARK    2  A    between atoms: C_2  and  C_3
REMARK    3  A    between atoms: C_3  and  C_4
REMARK    4  A    between atoms: C_4  and  O_5
REMARK    5  A    between atoms: O_5  and  C_6
REMARK    6  A    between atoms: C_6  and  C_8
REMARK    7  A    between atoms: C_11  and  N_14
REMARK    8  A    between atoms: C_18  and  C_21
REMARK    9  A    between atoms: C_19  and  N_20
REMARK   10  A    between atoms: C_27  and  C_31
REMARK                            x       y       z     vdW  Elec       q    Type
REMARK                         _______ _______ _______ _____ _____    ______ ____
ROOT
ATOM      1  N   UNL     1      -8.092  -6.122   0.046  0.00  0.00    -0.281 N 
ATOM      2  C   UNL     1      -9.357  -5.379   0.155  0.00  0.00    +0.191 C 
ATOM      3  C   UNL     1     -10.431  -6.446   0.119  0.00  0.00    +0.183 C 
ATOM      4  O   UNL     1     -11.634  -6.277   0.181  0.00  0.00    -0.290 OA
ATOM      5  C   UNL     1      -9.760  -7.658  -0.001  0.00  0.00    +0.074 C 
ATOM      6  C   UNL     1      -8.402  -7.450  -0.046  0.00  0.00    +0.099 C 
ENDROOT
BRANCH   5   7
ATOM      7  C   UNL     1     -10.427  -9.007  -0.075  0.00  0.00    +0.212 C 
ATOM      8  N   UNL     1     -11.357  -9.048  -1.211  0.00  0.00    -0.359 N 
ATOM      9  C   UNL     1     -12.547  -9.272  -0.734  0.00  0.00    +0.060 A 
ATOM     10  C   UNL     1     -13.866  -9.416  -1.366  0.00  0.00    +0.027 A 
ATOM     11  C   UNL     1     -14.949  -9.649  -0.599  0.00  0.00    +0.005 A 
ATOM     12  C   UNL     1     -14.877  -9.761   0.801  0.00  0.00    -0.048 A 
ATOM     13  C   UNL     1     -13.718  -9.645   1.481  0.00  0.00    +0.030 A 
ATOM     14  C   UNL     1     -12.470  -9.391   0.748  0.00  0.00    +0.061 A 
ATOM     15  N   UNL     1     -11.234  -9.238   1.130  0.00  0.00    -0.359 N 
ATOM     16  C   UNL     1     -16.145 -10.022   1.573  0.00  0.00    +0.044 C 
ATOM     17  H   UNL     1     -11.126  -8.930  -2.146  0.00  0.00    +0.162 HD
ATOM     18  H   UNL     1     -10.907  -9.270   2.042  0.00  0.00    +0.162 HD
ENDBRANCH   5   7
BRANCH   1  22
ATOM     19  C   UNL     1      -4.267  -4.477   0.011  0.00  0.00    +0.059 A 
ATOM     20  C   UNL     1      -5.146  -4.229  -1.047  0.00  0.00    +0.017 A 
ATOM     21  C   UNL     1      -6.410  -4.774  -1.032  0.00  0.00    +0.024 A 
ATOM     22  C   UNL     1      -6.812  -5.572   0.035  0.00  0.00    +0.035 A 
ATOM     23  C   UNL     1      -5.940  -5.821   1.090  0.00  0.00    +0.024 A 
ATOM     24  C   UNL     1      -4.673  -5.284   1.079  0.00  0.00    +0.017 A 
BRANCH  19  25
ATOM     25  C   UNL     1      -2.913  -3.894  -0.001  0.00  0.00    +0.339 C 
ATOM     26  O   UNL     1      -2.148  -4.114   0.917  0.00  0.00    -0.245 OA
BRANCH  25  27
ATOM     27  O   UNL     1      -2.523  -3.116  -1.030  0.00  0.00    -0.461 OA
BRANCH  27  28
ATOM     28  C   UNL     1      -1.198  -2.585  -0.977  0.00  0.00    +0.232 C 
BRANCH  28  29
ATOM     29  C   UNL     1      -0.939  -1.734  -2.222  0.00  0.00    +0.041 C 
BRANCH  29  31
ATOM     30  C   UNL     1       0.740  -0.315  -3.409  0.00  0.00    +0.004 C 
ATOM     31  C   UNL     1       0.480  -1.165  -2.164  0.00  0.00    -0.000 C 
ENDBRANCH  29  31
ENDBRANCH  28  29
ENDBRANCH  27  28
ENDBRANCH  25  27
ENDBRANCH  19  25
ENDBRANCH   1  22
BRANCH   6  32
ATOM     32  N   UNL     1      -7.475  -8.449  -0.167  0.00  0.00    -0.346 N 
ATOM     33  H   UNL     1      -6.529  -8.241  -0.116  0.00  0.00    +0.143 HD
ATOM     34  H   UNL     1      -7.763  -9.365  -0.302  0.00  0.00    +0.143 HD
ENDBRANCH   6  32
TORSDOF 8
