REMARK  Name = ZINC21616038
REMARK  8 active torsions:
REMARK  status: ('A' for Active; 'I' for Inactive)
REMARK    1  A    between atoms: C_1  and  C_2
REMARK    2  A    between atoms: C_5  and  N_26
REMARK    3  A    between atoms: C_6  and  O_8
REMARK    4  A    between atoms: O_8  and  C_9
REMARK    5  A    between atoms: C_9  and  C_10
REMARK    6  A    between atoms: N_12  and  C_13
REMARK    7  A    between atoms: C_13  and  C_15
REMARK    8  A    between atoms: C_13  and  C_16
REMARK                            x       y       z     vdW  Elec       q    Type
REMARK                         _______ _______ _______ _____ _____    ______ ____
ROOT
ATOM      1  C   UNL     1      -5.660  -0.844  -1.419  0.00  0.00    +0.251 C 
ATOM      2  O   UNL     1      -5.762  -2.031  -1.195  0.00  0.00    -0.272 OA
ATOM      3  N   UNL     1      -4.657  -0.137  -0.860  0.00  0.00    -0.306 N 
ATOM      4  H   UNL     1      -4.564   0.940  -1.063  0.00  0.00    +0.149 HD
ENDROOT
BRANCH   3   5
ATOM      5  C   UNL     1      -3.692  -0.803   0.018  0.00  0.00    +0.100 C 
ATOM      6  C   UNL     1      -4.250  -0.858   1.441  0.00  0.00    +0.033 C 
BRANCH   5   7
ATOM      7  C   UNL     1      -2.397  -0.033   0.016  0.00  0.00    -0.024 A 
ATOM      8  C   UNL     1      -2.415   1.349   0.026  0.00  0.00    +0.009 A 
ATOM      9  C   UNL     1      -1.229   2.059   0.019  0.00  0.00    +0.050 A 
ATOM     10  C   UNL     1      -0.017   1.385   0.010  0.00  0.00    +0.162 A 
ATOM     11  C   UNL     1       0.002  -0.004   0.002  0.00  0.00    +0.162 A 
ATOM     12  C   UNL     1      -1.192  -0.710   0.004  0.00  0.00    +0.055 A 
ATOM     13  O   UNL     1       1.181  -0.685  -0.007  0.00  0.00    -0.485 OA
ATOM     14  C   UNL     1       2.347   0.053  -0.387  0.00  0.00    +0.270 C 
ATOM     15  C   UNL     1       2.334   1.392   0.364  0.00  0.00    +0.270 C 
ATOM     16  O   UNL     1       1.143   2.098   0.002  0.00  0.00    -0.485 OA
ENDBRANCH   5   7
ENDBRANCH   3   5
BRANCH   1  17
ATOM     17  C   UNL     1      -6.653  -0.158  -2.322  0.00  0.00    +0.324 C 
BRANCH  17  18
ATOM     18  O   UNL     1      -7.611  -1.111  -2.786  0.00  0.00    -0.480 OA
BRANCH  18  24
ATOM     19  C   UNL     1      -9.640   2.604  -5.216  0.00  0.00    +0.044 C 
ATOM     20  C   UNL     1      -9.605   1.149  -4.823  0.00  0.00    -0.047 A 
ATOM     21  C   UNL     1     -10.563   0.279  -5.310  0.00  0.00    +0.006 A 
ATOM     22  C   UNL     1     -10.534  -1.056  -4.952  0.00  0.00    +0.037 A 
ATOM     23  C   UNL     1      -9.543  -1.525  -4.111  0.00  0.00    +0.168 A 
ATOM     24  C   UNL     1      -8.584  -0.653  -3.617  0.00  0.00    +0.152 A 
ATOM     25  C   UNL     1      -8.616   0.686  -3.978  0.00  0.00    +0.051 A 
BRANCH  23  26
ATOM     26  N   UNL     1      -9.509  -2.955  -3.732  0.00  0.00    +0.060 N 
ATOM     27  O   UNL     1     -10.352  -3.720  -4.166  0.00  0.00    -0.126 OA
ATOM     28  O   UNL     1      -8.638  -3.367  -2.987  0.00  0.00    -0.126 OA
ENDBRANCH  23  26
ENDBRANCH  18  24
ENDBRANCH  17  18
ENDBRANCH   1  17
TORSDOF 6
