REMARK  Name = ZINC59417009
REMARK  8 active torsions:
REMARK  status: ('A' for Active; 'I' for Inactive)
REMARK    1  A    between atoms: C_1  and  N_2
REMARK    2  A    between atoms: N_2  and  C_3
REMARK    3  A    between atoms: N_2  and  C_4
REMARK    4  A    between atoms: C_7  and  C_10
REMARK    5  A    between atoms: C_14  and  C_17
REMARK    6  A    between atoms: C_17  and  S_18
REMARK    7  A    between atoms: S_18  and  C_19
REMARK    8  A    between atoms: C_25  and  N_29
REMARK                            x       y       z     vdW  Elec       q    Type
REMARK                         _______ _______ _______ _____ _____    ______ ____
ROOT
ATOM      1  C   UNL     1      -0.006  -2.813  -4.924  0.00  0.00    +0.218 C 
ATOM      2  N   UNL     1       0.570  -1.959  -5.986  0.00  0.00    -0.285 NA
ATOM      3  C   UNL     1      -0.250  -2.284  -7.186  0.00  0.00    +0.116 C 
ATOM      4  C   UNL     1      -1.645  -2.514  -6.552  0.00  0.00    +0.145 C 
ATOM      5  O   UNL     1      -1.352  -3.141  -5.291  0.00  0.00    -0.352 OA
ATOM      6  H   UNL     1       0.489  -0.982  -5.748  0.00  0.00    +0.125 HD
ENDROOT
BRANCH   1  10
ATOM      7  C   UNL     1      -0.000  -0.695  -1.212  0.00  0.00    +0.029 A 
ATOM      8  C   UNL     1       0.606  -1.942  -1.303  0.00  0.00    +0.023 A 
ATOM      9  C   UNL     1       0.602  -2.623  -2.504  0.00  0.00    +0.009 A 
ATOM     10  C   UNL     1      -0.005  -2.066  -3.615  0.00  0.00    -0.004 A 
ATOM     11  C   UNL     1      -0.609  -0.826  -3.528  0.00  0.00    +0.009 A 
ATOM     12  C   UNL     1      -0.613  -0.141  -2.328  0.00  0.00    +0.023 A 
BRANCH   7  14
ATOM     13  C   UNL     1      -0.643   1.308   0.098  0.00  0.00    +0.129 C 
ATOM     14  N   UNL     1       0.002  -0.003   0.002  0.00  0.00    -0.336 N 
ATOM     15  C   UNL     1       0.649  -0.589   1.178  0.00  0.00    +0.129 C 
ENDBRANCH   7  14
ENDBRANCH   1  10
BRANCH   4  16
ATOM     16  C   UNL     1      -2.489  -3.439  -7.433  0.00  0.00    +0.110 C 
BRANCH  16  17
ATOM     17  S   UNL     1      -4.161  -3.570  -6.742  0.00  0.00    -0.085 S 
BRANCH  17  18
ATOM     18  C   UNL     1      -4.997  -4.652  -7.853  0.00  0.00    +0.167 A 
ATOM     19  N   UNL     1      -6.302  -5.043  -7.737  0.00  0.00    -0.333 N 
ATOM     20  H   UNL     1      -6.921  -4.778  -7.039  0.00  0.00    +0.168 HD
ATOM     21  C   UNL     1      -6.574  -5.887  -8.801  0.00  0.00    +0.067 A 
ATOM     22  C   UNL     1      -7.701  -6.583  -9.212  0.00  0.00    +0.030 A 
ATOM     23  C   UNL     1      -7.650  -7.362 -10.349  0.00  0.00    +0.035 A 
ATOM     24  C   UNL     1      -6.478  -7.454 -11.086  0.00  0.00    +0.128 A 
ATOM     25  C   UNL     1      -5.350  -6.771 -10.692  0.00  0.00    +0.062 A 
ATOM     26  C   UNL     1      -5.385  -5.977  -9.543  0.00  0.00    +0.092 A 
ATOM     27  N   UNL     1      -4.463  -5.199  -8.917  0.00  0.00    -0.222 NA
BRANCH  24  28
ATOM     28  N   UNL     1      -6.441  -8.294 -12.303  0.00  0.00    +0.056 N 
ATOM     29  O   UNL     1      -7.429  -8.897 -12.653  0.00  0.00    -0.126 OA
ATOM     30  O   UNL     1      -5.421  -8.378 -12.949  0.00  0.00    -0.126 OA
ENDBRANCH  24  28
ENDBRANCH  17  18
ENDBRANCH  16  17
ENDBRANCH   4  16
TORSDOF 6
