REMARK  Name = ZINC09325376
REMARK  8 active torsions:
REMARK  status: ('A' for Active; 'I' for Inactive)
REMARK    1  A    between atoms: C_1  and  N_2
REMARK    2  A    between atoms: C_3  and  C_5
REMARK    3  A    between atoms: C_9  and  N_10
REMARK    4  A    between atoms: C_11  and  C_13
REMARK    5  A    between atoms: C_14  and  C_15
REMARK    6  A    between atoms: C_19  and  N_21
REMARK    7  A    between atoms: C_28  and  O_30
REMARK    8  A    between atoms: O_30  and  C_31
REMARK                            x       y       z     vdW  Elec       q    Type
REMARK                         _______ _______ _______ _____ _____    ______ ____
ROOT
ATOM      1  C   UNL     1       4.774  -7.145  -0.080  0.00  0.00    +0.069 A 
ATOM      2  C   UNL     1       4.529  -8.578  -0.086  0.00  0.00    -0.020 A 
ATOM      3  C   UNL     1       3.226  -8.936  -0.072  0.00  0.00    +0.013 A 
ATOM      4  S   UNL     1       2.334  -7.407  -0.050  0.00  0.00    -0.076 S 
ATOM      5  C   UNL     1       3.670  -6.304  -0.065  0.00  0.00    +0.085 A 
ATOM      6  C   UNL     1       2.677 -10.330  -0.068  0.00  0.00    +0.153 C 
ATOM      7  N   UNL     1       3.808 -11.244  -0.321  0.00  0.00    -0.262 N 
ATOM      8  C   UNL     1       5.076 -10.963   0.370  0.00  0.00    +0.116 C 
ATOM      9  C   UNL     1       5.636  -9.624  -0.112  0.00  0.00    +0.056 C 
ATOM     10  C   UNL     1       3.684 -12.296  -1.154  0.00  0.00    +0.403 C 
ATOM     11  O   UNL     1       4.631 -13.034  -1.346  0.00  0.00    -0.226 OA
ENDROOT
BRANCH   1  14
ATOM     12  C   UNL     1       8.118  -5.818  -1.270  0.00  0.00    +0.128 C 
ATOM     13  N   UNL     1       6.755  -6.355  -1.261  0.00  0.00    -0.314 N 
ATOM     14  C   UNL     1       6.138  -6.608  -0.090  0.00  0.00    +0.246 C 
ATOM     15  O   UNL     1       6.714  -6.391   0.961  0.00  0.00    -0.270 OA
ATOM     16  H   UNL     1       6.296  -6.528  -2.098  0.00  0.00    +0.149 HD
ENDBRANCH   1  14
BRANCH   5  17
ATOM     17  N   UNL     1       3.643  -4.920  -0.058  0.00  0.00    -0.276 N 
ATOM     18  C   UNL     1       2.463  -4.269  -0.043  0.00  0.00    +0.241 C 
ATOM     19  O   UNL     1       1.421  -4.898  -0.036  0.00  0.00    -0.270 OA
ATOM     20  H   UNL     1       4.473  -4.418  -0.064  0.00  0.00    +0.156 HD
BRANCH  18  21
ATOM     21  C   UNL     1       2.434  -2.806  -0.036  0.00  0.00    +0.068 C 
ATOM     22  C   UNL     1       1.253  -2.155  -0.021  0.00  0.00    +0.013 C 
BRANCH  22  23
ATOM     23  C   UNL     1       1.224  -0.683  -0.013  0.00  0.00    -0.023 A 
ATOM     24  C   UNL     1       2.420   0.044  -0.021  0.00  0.00    +0.008 A 
ATOM     25  C   UNL     1       2.384   1.422  -0.013  0.00  0.00    +0.003 A 
ATOM     26  C   UNL     1       1.170   2.087   0.002  0.00  0.00    +0.033 A 
ATOM     27  C   UNL     1      -0.017   1.375   0.010  0.00  0.00    +0.127 A 
ATOM     28  C   UNL     1       0.002  -0.004   0.002  0.00  0.00    +0.040 A 
BRANCH  27  29
ATOM     29  N   UNL     1      -1.310   2.095   0.020  0.00  0.00    +0.056 N 
ATOM     30  O   UNL     1      -2.355   1.471   0.021  0.00  0.00    -0.126 OA
ATOM     31  O   UNL     1      -1.328   3.313   0.026  0.00  0.00    -0.126 OA
ENDBRANCH  27  29
ENDBRANCH  22  23
ENDBRANCH  18  21
ENDBRANCH   5  17
BRANCH  10  32
ATOM     32  O   UNL     1       2.512 -12.530  -1.774  0.00  0.00    -0.454 OA
ATOM     33  C   UNL     1       2.451 -13.681  -2.657  0.00  0.00    +0.282 C 
ENDBRANCH  10  32
TORSDOF 6
