REMARK  Name = ZINC39675441
REMARK  9 active torsions:
REMARK  status: ('A' for Active; 'I' for Inactive)
REMARK    1  A    between atoms: C_1  and  C_2
REMARK    2  A    between atoms: C_2  and  C_4
REMARK    3  A    between atoms: C_2  and  N_14
REMARK    4  A    between atoms: C_4  and  C_5
REMARK    5  A    between atoms: C_5  and  C_6
REMARK    6  A    between atoms: C_9  and  O_12
REMARK    7  A    between atoms: O_12  and  C_13
REMARK    8  A    between atoms: C_15  and  C_17
REMARK    9  A    between atoms: C_28  and  C_30
REMARK                            x       y       z     vdW  Elec       q    Type
REMARK                         _______ _______ _______ _____ _____    ______ ____
ROOT
ATOM      1  C   UNL     1       0.724  -1.097  -3.602  0.00  0.00    +0.100 C 
ATOM      2  C   UNL     1       1.350  -2.488  -3.355  0.00  0.00    +0.121 C 
ATOM      3  N   UNL     1       0.335  -3.448  -3.850  0.00  0.00    -0.296 N 
ATOM      4  C   UNL     1      -0.202  -2.817  -5.079  0.00  0.00    +0.115 C 
ATOM      5  C   UNL     1      -0.291  -1.316  -4.736  0.00  0.00    -0.004 C 
ATOM      6  C   UNL     1      -1.698  -0.968  -4.260  0.00  0.00    -0.010 C 
ATOM      7  C   UNL     1      -2.682  -1.139  -5.421  0.00  0.00    -0.082 C 
ATOM      8  N   UNL     1      -2.288  -0.264  -6.531  0.00  0.00    +0.379 N 
ATOM      9  C   UNL     1      -0.973  -0.665  -7.044  0.00  0.00    -0.082 C 
ATOM     10  C   UNL     1       0.083  -0.473  -5.951  0.00  0.00    -0.010 C 
ATOM     11  C   UNL     1      -0.019  -4.629  -3.305  0.00  0.00    +0.248 C 
ATOM     12  O   UNL     1       0.447  -4.969  -2.234  0.00  0.00    -0.270 OA
ATOM     13  H   UNL     1      -2.971  -0.333  -7.271  0.00  0.00    -0.086 HD
ATOM     14  H   UNL     1      -2.244   0.691  -6.206  0.00  0.00    -0.086 HD
ENDROOT
BRANCH  11  15
ATOM     15  C   UNL     1      -0.968  -5.505  -4.004  0.00  0.00    +0.052 A 
ATOM     16  C   UNL     1      -0.981  -5.582  -5.361  0.00  0.00    +0.059 A 
ATOM     17  S   UNL     1      -2.195  -6.677  -5.733  0.00  0.00    -0.096 S 
ATOM     18  C   UNL     1      -2.753  -7.093  -4.104  0.00  0.00    +0.020 A 
ATOM     19  C   UNL     1      -1.926  -6.327  -3.261  0.00  0.00    +0.001 A 
ATOM     20  C   UNL     1      -2.129  -6.449  -1.873  0.00  0.00    +0.010 A 
ATOM     21  C   UNL     1      -3.096  -7.291  -1.384  0.00  0.00    +0.001 A 
ATOM     22  C   UNL     1      -3.895  -8.040  -2.236  0.00  0.00    +0.001 A 
ATOM     23  C   UNL     1      -3.725  -7.932  -3.603  0.00  0.00    +0.015 A 
ENDBRANCH  11  15
BRANCH   1  25
ATOM     24  N   UNL     1      -0.048   0.713  -2.103  0.00  0.00    -0.312 N 
ATOM     25  C   UNL     1       0.025  -0.608  -2.359  0.00  0.00    +0.218 C 
ATOM     26  O   UNL     1      -0.470  -1.404  -1.589  0.00  0.00    -0.275 OA
ATOM     27  H   UNL     1       0.348   1.349  -2.718  0.00  0.00    +0.149 HD
BRANCH  24  29
ATOM     28  C   UNL     1      -2.229   1.306  -1.167  0.00  0.00    +0.028 C 
ATOM     29  C   UNL     1      -0.728   1.188  -0.895  0.00  0.00    +0.070 C 
BRANCH  29  30
ATOM     30  C   UNL     1      -0.171   2.558  -0.503  0.00  0.00    +0.026 C 
BRANCH  30  31
ATOM     31  C   UNL     1       1.301   2.418  -0.110  0.00  0.00    +0.037 C 
BRANCH  31  32
ATOM     32  C   UNL     1       1.849   3.767   0.276  0.00  0.00    -0.047 A 
ATOM     33  C   UNL     1       2.417   4.583  -0.685  0.00  0.00    +0.007 A 
ATOM     34  C   UNL     1       2.920   5.820  -0.334  0.00  0.00    +0.046 A 
ATOM     35  C   UNL     1       2.856   6.244   0.986  0.00  0.00    +0.120 A 
ATOM     36  C   UNL     1       2.285   5.424   1.948  0.00  0.00    +0.046 A 
ATOM     37  C   UNL     1       1.779   4.190   1.591  0.00  0.00    +0.007 A 
BRANCH  35  38
ATOM     38  O   UNL     1       3.351   7.461   1.334  0.00  0.00    -0.495 OA
ATOM     39  C   UNL     1       3.250   7.832   2.711  0.00  0.00    +0.277 C 
ENDBRANCH  35  38
ENDBRANCH  31  32
ENDBRANCH  30  31
ENDBRANCH  29  30
ENDBRANCH  24  29
ENDBRANCH   1  25
TORSDOF 7
