REMARK  Name = ZINC01167602
REMARK  5 active torsions:
REMARK  status: ('A' for Active; 'I' for Inactive)
REMARK    1  A    between atoms: C_6  and  C_7
REMARK    2  A    between atoms: C_9  and  C_21
REMARK    3  A    between atoms: C_11  and  C_16
REMARK    4  A    between atoms: C_11  and  O_20
REMARK    5  A    between atoms: C_21  and  C_23
REMARK                            x       y       z     vdW  Elec       q    Type
REMARK                         _______ _______ _______ _____ _____    ______ ____
ROOT
ATOM      1  C   UNL     1      -1.561   8.124   0.500  0.00  0.00    +0.120 C 
ATOM      2  C   UNL     1      -1.684   6.674   0.019  0.00  0.00    +0.144 C 
ATOM      3  C   UNL     1      -1.900   6.681  -1.498  0.00  0.00    +0.243 C 
ATOM      4  N   UNL     1      -3.065   7.509  -1.814  0.00  0.00    -0.264 N 
ATOM      5  C   UNL     1      -3.420   8.541  -1.035  0.00  0.00    +0.302 C 
ATOM      6  O   UNL     1      -4.391   9.203  -1.348  0.00  0.00    -0.253 OA
ATOM      7  N   UNL     1      -2.746   8.872   0.077  0.00  0.00    -0.292 N 
ATOM      8  H   UNL     1      -3.592   7.306  -2.603  0.00  0.00    +0.153 HD
ATOM      9  H   UNL     1      -3.049   9.624   0.610  0.00  0.00    +0.151 HD
ENDROOT
BRANCH   1  15
ATOM     10  C   UNL     1      -2.604   8.031   2.774  0.00  0.00    +0.006 A 
ATOM     11  C   UNL     1      -2.513   8.048   4.153  0.00  0.00    +0.015 A 
ATOM     12  C   UNL     1      -1.280   8.193   4.763  0.00  0.00    +0.018 A 
ATOM     13  C   UNL     1      -0.138   8.315   3.992  0.00  0.00    +0.015 A 
ATOM     14  C   UNL     1      -0.229   8.292   2.613  0.00  0.00    +0.006 A 
ATOM     15  C   UNL     1      -1.462   8.148   2.004  0.00  0.00    -0.026 A 
ATOM     16 BR   UNL     1      -1.155   8.223   6.649  0.00  0.00    -0.050 Br
ENDBRANCH   1  15
BRANCH   3  17
ATOM     17  C   UNL     1      -2.139   5.251  -1.988  0.00  0.00    +0.436 C 
ATOM     18  F   UNL     1      -3.192   4.681  -1.265  0.00  0.00    -0.166 F 
ATOM     19  F   UNL     1      -2.464   5.272  -3.348  0.00  0.00    -0.166 F 
ATOM     20  F   UNL     1      -0.978   4.493  -1.797  0.00  0.00    -0.166 F 
ENDBRANCH   3  17
BRANCH   3  21
ATOM     21  O   UNL     1      -0.743   7.219  -2.143  0.00  0.00    -0.364 OA
ATOM     22  H   UNL     1      -0.810   7.254  -3.107  0.00  0.00    +0.212 HD
ENDBRANCH   3  21
BRANCH   2  23
ATOM     23  C   UNL     1      -0.420   5.923   0.347  0.00  0.00    +0.173 C 
ATOM     24  O   UNL     1       0.646   6.314  -0.080  0.00  0.00    -0.292 OA
BRANCH  23  25
ATOM     25  C   UNL     1      -0.478   4.715   1.184  0.00  0.00    +0.018 A 
ATOM     26  C   UNL     1       0.668   3.936   1.375  0.00  0.00    +0.013 A 
ATOM     27  C   UNL     1       0.606   2.806   2.161  0.00  0.00    +0.020 A 
ATOM     28  C   UNL     1      -0.588   2.440   2.761  0.00  0.00    +0.041 A 
ATOM     29  C   UNL     1      -1.729   3.204   2.572  0.00  0.00    +0.020 A 
ATOM     30  C   UNL     1      -1.680   4.340   1.793  0.00  0.00    +0.013 A 
ATOM     31 CL   UNL     1      -0.657   1.015   3.750  0.00  0.00    -0.084 Cl
ENDBRANCH  23  25
ENDBRANCH   2  23
TORSDOF 5
