REMARK  Name = ZINC45029324
REMARK  5 active torsions:
REMARK  status: ('A' for Active; 'I' for Inactive)
REMARK    1  A    between atoms: C_1  and  C_2
REMARK    2  A    between atoms: C_10  and  C_11
REMARK    3  A    between atoms: N_13  and  N_14
REMARK    4  A    between atoms: N_17  and  C_18
REMARK    5  A    between atoms: C_21  and  C_24
REMARK                            x       y       z     vdW  Elec       q    Type
REMARK                         _______ _______ _______ _____ _____    ______ ____
ROOT
ATOM      1  C   UNL     1       0.008  -0.383   2.483  0.00  0.00    +0.296 C 
ATOM      2  O   UNL     1      -0.004   0.805   2.745  0.00  0.00    -0.265 OA
ATOM      3  N   UNL     1       0.038  -1.291   3.479  0.00  0.00    -0.227 N 
ATOM      4  H   UNL     1       0.047  -2.239   3.270  0.00  0.00    +0.173 HD
ENDROOT
BRANCH   1  14
ATOM      5  C   UNL     1      -0.060   1.501   0.010  0.00  0.00    +0.048 C 
ATOM      6  C   UNL     1      -0.040  -0.005   0.002  0.00  0.00    +0.008 A 
ATOM      7  C   UNL     1      -0.043  -0.879  -1.171  0.00  0.00    +0.024 A 
ATOM      8  C   UNL     1      -0.063  -0.657  -2.550  0.00  0.00    +0.012 A 
ATOM      9  C   UNL     1      -0.059  -1.720  -3.407  0.00  0.00    +0.001 A 
ATOM     10  C   UNL     1      -0.035  -3.019  -2.917  0.00  0.00    +0.004 A 
ATOM     11  C   UNL     1      -0.015  -3.259  -1.560  0.00  0.00    +0.047 A 
ATOM     12  C   UNL     1      -0.018  -2.193  -0.668  0.00  0.00    +0.136 A 
ATOM     13  O   UNL     1      -0.002  -2.114   0.676  0.00  0.00    -0.450 OA
ATOM     14  C   UNL     1      -0.010  -0.828   1.083  0.00  0.00    +0.195 A 
ENDBRANCH   1  14
BRANCH   3  15
ATOM     15  N   UNL     1       0.055  -0.867   4.814  0.00  0.00    -0.218 N 
ATOM     16  C   UNL     1       0.085  -1.776   5.809  0.00  0.00    +0.320 C 
ATOM     17  O   UNL     1       0.100  -1.408   6.968  0.00  0.00    -0.251 OA
ATOM     18  N   UNL     1       0.098  -3.092   5.520  0.00  0.00    -0.268 N 
ATOM     19  H   UNL     1       0.045   0.080   5.022  0.00  0.00    +0.174 HD
ATOM     20  H   UNL     1       0.019  -3.387   4.599  0.00  0.00    +0.156 HD
BRANCH  18  21
ATOM     21  C   UNL     1       0.227  -4.030   6.545  0.00  0.00    +0.035 A 
ATOM     22  C   UNL     1      -0.363  -3.792   7.781  0.00  0.00    +0.024 A 
ATOM     23  C   UNL     1      -0.238  -4.715   8.795  0.00  0.00    +0.020 A 
ATOM     24  C   UNL     1       0.482  -5.894   8.580  0.00  0.00    +0.052 A 
ATOM     25  C   UNL     1       1.073  -6.130   7.335  0.00  0.00    +0.020 A 
ATOM     26  C   UNL     1       0.939  -5.205   6.325  0.00  0.00    +0.024 A 
BRANCH  24  27
ATOM     27  C   UNL     1       0.614  -6.856   9.632  0.00  0.00    +0.099 C 
ATOM     28  N   UNL     1       0.720  -7.620  10.466  0.00  0.00    -0.191 NA
ENDBRANCH  24  27
ENDBRANCH  18  21
ENDBRANCH   3  15
TORSDOF 4
