REMARK  Name = ZINC45537318
REMARK  11 active torsions:
REMARK  status: ('A' for Active; 'I' for Inactive)
REMARK    1  A    between atoms: C_1  and  C_2
REMARK    2  A    between atoms: C_2  and  C_3
REMARK    3  A    between atoms: C_2  and  O_4
REMARK    4  A    between atoms: O_4  and  C_5
REMARK    5  A    between atoms: C_5  and  C_7
REMARK    6  A    between atoms: C_7  and  C_8
REMARK    7  A    between atoms: C_8  and  C_10
REMARK    8  A    between atoms: C_8  and  N_19
REMARK    9  A    between atoms: C_15  and  N_16
REMARK   10  A    between atoms: C_20  and  C_22
REMARK   11  A    between atoms: C_22  and  N_23
REMARK                            x       y       z     vdW  Elec       q    Type
REMARK                         _______ _______ _______ _____ _____    ______ ____
ROOT
ATOM      1  N   UNL     1       4.795   0.065  -1.620  0.00  0.00    -0.307 N 
ATOM      2  C   UNL     1       5.870   0.186  -0.817  0.00  0.00    +0.231 C 
ATOM      3  O   UNL     1       6.388  -0.804  -0.343  0.00  0.00    -0.274 OA
ATOM      4  H   UNL     1       4.381   0.856  -1.999  0.00  0.00    +0.149 HD
ENDROOT
BRANCH   1   5
ATOM      5  C   UNL     1       4.251  -1.262  -1.922  0.00  0.00    +0.116 C 
BRANCH   5   6
ATOM      6  C   UNL     1       5.004  -1.862  -3.081  0.00  0.00    +0.003 A 
ATOM      7  C   UNL     1       5.729  -1.047  -3.930  0.00  0.00    +0.008 A 
ATOM      8  C   UNL     1       6.420  -1.597  -4.993  0.00  0.00    +0.000 A 
ATOM      9  C   UNL     1       6.387  -2.963  -5.207  0.00  0.00    +0.002 A 
ATOM     10  C   UNL     1       5.663  -3.778  -4.357  0.00  0.00    +0.033 A 
ATOM     11  C   UNL     1       4.975  -3.228  -3.291  0.00  0.00    +0.131 A 
BRANCH  11  12
ATOM     12  N   UNL     1       4.204  -4.101  -2.378  0.00  0.00    +0.057 N 
ATOM     13  O   UNL     1       4.178  -5.295  -2.562  0.00  0.00    -0.126 OA
ATOM     14  O   UNL     1       3.599  -3.619  -1.448  0.00  0.00    -0.126 OA
ENDBRANCH  11  12
ENDBRANCH   5   6
BRANCH   5  15
ATOM     15  C   UNL     1       2.771  -1.135  -2.286  0.00  0.00    +0.147 C 
BRANCH  15  16
ATOM     16  C   UNL     1       1.998  -0.651  -1.087  0.00  0.00    +0.309 C 
ATOM     17  O   UNL     1       2.572  -0.429  -0.047  0.00  0.00    -0.251 OA
BRANCH  16  18
ATOM     18  O   UNL     1       0.671  -0.465  -1.174  0.00  0.00    -0.462 OA
BRANCH  18  20
ATOM     19  C   UNL     1      -0.019   1.526   0.010  0.00  0.00    +0.052 C 
ATOM     20  C   UNL     1       0.002  -0.004   0.002  0.00  0.00    +0.170 C 
ATOM     21  C   UNL     1      -1.433  -0.534   0.013  0.00  0.00    +0.052 C 
ENDBRANCH  18  20
ENDBRANCH  16  18
ENDBRANCH  15  16
ENDBRANCH   5  15
ENDBRANCH   1   5
BRANCH   2  22
ATOM     22  C   UNL     1       6.429   1.550  -0.506  0.00  0.00    +0.213 C 
BRANCH  22  23
ATOM     23  N   UNL     1       7.587   1.413   0.381  0.00  0.00    -0.215 N 
ATOM     24  C   UNL     1       7.514   1.411   1.730  0.00  0.00    +0.251 C 
ATOM     25  O   UNL     1       6.518   1.516   2.413  0.00  0.00    -0.272 OA
ATOM     26  C   UNL     1       8.935   1.248   2.203  0.00  0.00    +0.138 C 
ATOM     27  C   UNL     1       9.371   2.433   3.074  0.00  0.00    +0.045 C 
ATOM     28  C   UNL     1      10.345   1.764   4.070  0.00  0.00    +0.038 C 
ATOM     29  C   UNL     1       9.914   0.314   4.135  0.00  0.00    -0.042 A 
ATOM     30  C   UNL     1       9.100   0.018   3.054  0.00  0.00    -0.012 A 
ATOM     31  C   UNL     1       8.588  -1.261   2.911  0.00  0.00    +0.006 A 
ATOM     32  C   UNL     1       8.885  -2.239   3.840  0.00  0.00    +0.000 A 
ATOM     33  C   UNL     1       9.696  -1.942   4.919  0.00  0.00    +0.000 A 
ATOM     34  C   UNL     1      10.210  -0.668   5.064  0.00  0.00    +0.004 A 
ATOM     35  N   UNL     1       9.726   1.169   0.975  0.00  0.00    -0.281 N 
ATOM     36  C   UNL     1       8.849   1.269  -0.044  0.00  0.00    +0.310 C 
ATOM     37  O   UNL     1       9.168   1.237  -1.217  0.00  0.00    -0.252 OA
ATOM     38  H   UNL     1      10.688   1.062   0.907  0.00  0.00    +0.152 HD
ENDBRANCH  22  23
ENDBRANCH   2  22
TORSDOF 9
