REMARK  Name = ZINC19351182
REMARK  13 active torsions:
REMARK  status: ('A' for Active; 'I' for Inactive)
REMARK    1  A    between atoms: C_1  and  C_2
REMARK    2  A    between atoms: C_5  and  C_8
REMARK    3  A    between atoms: N_10  and  C_11
REMARK    4  A    between atoms: C_11  and  C_13
REMARK    5  A    between atoms: C_11  and  C_16
REMARK    6  A    between atoms: C_13  and  C_14
REMARK    7  A    between atoms: C_13  and  C_15
REMARK    8  A    between atoms: C_16  and  O_18
REMARK    9  A    between atoms: O_18  and  C_19
REMARK   10  A    between atoms: C_19  and  C_21
REMARK   11  A    between atoms: C_19  and  C_22
REMARK   12  A    between atoms: N_24  and  C_25
REMARK   13  A    between atoms: C_29  and  N_31
REMARK                            x       y       z     vdW  Elec       q    Type
REMARK                         _______ _______ _______ _____ _____    ______ ____
ROOT
ATOM      1  C   UNL     1      -0.013   1.204  -0.000  0.00  0.00    +0.329 C 
ATOM      2  O   UNL     1       0.005  -0.004  -0.015  0.00  0.00    -0.249 OA
ENDROOT
BRANCH   1   3
ATOM      3  C   UNL     1       1.281   1.977  -0.006  0.00  0.00    +0.185 C 
BRANCH   3   6
ATOM      4  C   UNL     1       3.608   1.419   0.454  0.00  0.00    +0.245 C 
ATOM      5  O   UNL     1       3.755   2.536   0.911  0.00  0.00    -0.270 OA
ATOM      6  N   UNL     1       2.408   1.041  -0.030  0.00  0.00    -0.298 N 
ATOM      7  H   UNL     1       2.276   0.031  -0.444  0.00  0.00    +0.150 HD
BRANCH   4  12
ATOM      8  C   UNL     1       8.036  -2.255   0.360  0.00  0.00    +0.044 C 
ATOM      9  C   UNL     1       6.876  -1.293   0.385  0.00  0.00    -0.050 A 
ATOM     10  C   UNL     1       7.047  -0.022   0.905  0.00  0.00    +0.004 A 
ATOM     11  C   UNL     1       5.989   0.864   0.930  0.00  0.00    +0.013 A 
ATOM     12  C   UNL     1       4.746   0.475   0.430  0.00  0.00    +0.037 A 
ATOM     13  C   UNL     1       4.579  -0.810  -0.089  0.00  0.00    +0.013 A 
ATOM     14  C   UNL     1       5.646  -1.684  -0.113  0.00  0.00    +0.004 A 
ENDBRANCH   4  12
ENDBRANCH   3   6
BRANCH   3  15
ATOM     15  C   UNL     1       1.335   2.873  -1.245  0.00  0.00    +0.014 C 
ATOM     16  C   UNL     1       1.127   2.021  -2.499  0.00  0.00    +0.009 C 
ATOM     17  C   UNL     1       0.232   3.930  -1.158  0.00  0.00    +0.009 C 
ENDBRANCH   3  15
ENDBRANCH   1   3
BRANCH   1  18
ATOM     18  O   UNL     1      -1.185   1.858   0.015  0.00  0.00    -0.451 OA
BRANCH  18  19
ATOM     19  C   UNL     1      -2.391   1.049   0.013  0.00  0.00    +0.259 C 
ATOM     20  C   UNL     1      -2.805   0.747   1.455  0.00  0.00    +0.062 C 
BRANCH  19  21
ATOM     21  C   UNL     1      -3.498   1.800  -0.680  0.00  0.00    +0.258 C 
ATOM     22  O   UNL     1      -3.291   2.908  -1.129  0.00  0.00    -0.271 OA
ATOM     23  N   UNL     1      -4.718   1.241  -0.802  0.00  0.00    -0.282 N 
ATOM     24  H   UNL     1      -4.886   0.207  -0.464  0.00  0.00    +0.155 HD
BRANCH  23  25
ATOM     25  C   UNL     1      -5.772   1.974  -1.359  0.00  0.00    +0.036 A 
ATOM     26  C   UNL     1      -5.525   2.875  -2.387  0.00  0.00    +0.023 A 
ATOM     27  C   UNL     1      -6.567   3.597  -2.935  0.00  0.00    +0.004 A 
ATOM     28  C   UNL     1      -7.855   3.425  -2.461  0.00  0.00    +0.033 A 
ATOM     29  C   UNL     1      -8.103   2.529  -1.437  0.00  0.00    +0.128 A 
ATOM     30  C   UNL     1      -7.066   1.799  -0.889  0.00  0.00    +0.056 A 
BRANCH  29  31
ATOM     31  N   UNL     1      -9.483   2.347  -0.933  0.00  0.00    +0.056 N 
ATOM     32  O   UNL     1     -10.398   2.986  -1.419  0.00  0.00    -0.126 OA
ATOM     33  O   UNL     1      -9.703   1.558  -0.031  0.00  0.00    -0.126 OA
ENDBRANCH  29  31
ENDBRANCH  23  25
ENDBRANCH  19  21
ENDBRANCH  18  19
ENDBRANCH   1  18
TORSDOF 9
