REMARK  Name = ZINC09285575
REMARK  10 active torsions:
REMARK  status: ('A' for Active; 'I' for Inactive)
REMARK    1  A    between atoms: C_1  and  C_2
REMARK    2  A    between atoms: C_4  and  C_17
REMARK    3  A    between atoms: C_5  and  C_16
REMARK    4  A    between atoms: N_6  and  C_7
REMARK    5  A    between atoms: C_17  and  C_19
REMARK    6  A    between atoms: C_19  and  O_20
REMARK    7  A    between atoms: O_20  and  C_21
REMARK    8  A    between atoms: C_21  and  C_23
REMARK    9  A    between atoms: C_23  and  C_24
REMARK   10  A    between atoms: C_31  and  O_33
REMARK                            x       y       z     vdW  Elec       q    Type
REMARK                         _______ _______ _______ _____ _____    ______ ____
ROOT
ATOM      1  C   UNL     1      -3.600   1.954   0.030  0.00  0.00    +0.202 C 
ATOM      2  O   UNL     1      -3.457   3.159   0.036  0.00  0.00    -0.288 OA
ENDROOT
BRANCH   1   6
ATOM      3  C   UNL     1      -7.454  -1.379   0.031  0.00  0.00    +0.064 C 
ATOM      4  C   UNL     1      -6.638  -0.112   0.033  0.00  0.00    +0.022 A 
ATOM      5  C   UNL     1      -5.296  -0.051   0.027  0.00  0.00    +0.034 A 
ATOM      6  C   UNL     1      -4.945   1.376   0.033  0.00  0.00    +0.042 A 
ATOM      7  C   UNL     1      -6.146   2.061   0.048  0.00  0.00    +0.032 A 
ATOM      8  N   UNL     1      -7.145   1.157   0.042  0.00  0.00    -0.317 N 
ATOM      9  C   UNL     1      -6.309   3.559   0.064  0.00  0.00    +0.064 C 
BRANCH   8  10
ATOM     10  C   UNL     1      -8.511   1.474   0.049  0.00  0.00    +0.050 A 
ATOM     11  C   UNL     1      -9.068   2.120   1.144  0.00  0.00    +0.030 A 
ATOM     12  C   UNL     1     -10.414   2.433   1.153  0.00  0.00    +0.051 A 
ATOM     13  C   UNL     1     -11.211   2.103   0.068  0.00  0.00    +0.166 A 
ATOM     14  C   UNL     1     -10.655   1.454  -1.032  0.00  0.00    +0.168 A 
ATOM     15  C   UNL     1      -9.305   1.146  -1.041  0.00  0.00    +0.075 A 
ATOM     16  O   UNL     1     -11.637   1.242  -1.956  0.00  0.00    -0.453 OA
ATOM     17  C   UNL     1     -12.878   1.400  -1.242  0.00  0.00    +0.466 C 
ATOM     18  O   UNL     1     -12.542   2.298  -0.168  0.00  0.00    -0.453 OA
ENDBRANCH   8  10
ENDBRANCH   1   6
BRANCH   1  19
ATOM     19  C   UNL     1      -2.393   1.052   0.019  0.00  0.00    +0.311 C 
BRANCH  19  20
ATOM     20  O   UNL     1      -1.186   1.859   0.018  0.00  0.00    -0.456 OA
BRANCH  20  21
ATOM     21  C   UNL     1      -0.014   1.204   0.009  0.00  0.00    +0.312 C 
ATOM     22  O   UNL     1       0.002  -0.004   0.002  0.00  0.00    -0.250 OA
BRANCH  21  23
ATOM     23  C   UNL     1       1.280   1.975   0.000  0.00  0.00    +0.159 C 
BRANCH  23  24
ATOM     24  C   UNL     1       2.439   1.012  -0.016  0.00  0.00    +0.009 A 
ATOM     25  C   UNL     1       3.131   0.568   1.042  0.00  0.00    +0.200 A 
ATOM     26  O   UNL     1       4.092  -0.284   0.643  0.00  0.00    -0.463 OA
ATOM     27  C   UNL     1       4.079  -0.429  -0.698  0.00  0.00    +0.139 A 
ATOM     28  C   UNL     1       3.040   0.375  -1.195  0.00  0.00    +0.024 A 
ATOM     29  C   UNL     1       2.786   0.427  -2.564  0.00  0.00    +0.015 A 
ATOM     30  C   UNL     1       3.552  -0.308  -3.425  0.00  0.00    +0.046 A 
ATOM     31  C   UNL     1       4.583  -1.109  -2.942  0.00  0.00    +0.120 A 
ATOM     32  C   UNL     1       4.848  -1.171  -1.585  0.00  0.00    +0.092 A 
BRANCH  31  33
ATOM     33  O   UNL     1       5.337  -1.835  -3.809  0.00  0.00    -0.507 OA
ATOM     34  H   UNL     1       4.992  -2.722  -3.982  0.00  0.00    +0.292 HD
ENDBRANCH  31  33
ENDBRANCH  23  24
ENDBRANCH  21  23
ENDBRANCH  20  21
ENDBRANCH  19  20
ENDBRANCH   1  19
TORSDOF 8
