REMARK  Name = ZINC09472449
REMARK  11 active torsions:
REMARK  status: ('A' for Active; 'I' for Inactive)
REMARK    1  A    between atoms: C_1  and  C_2
REMARK    2  A    between atoms: C_3  and  C_31
REMARK    3  A    between atoms: C_4  and  N_11
REMARK    4  A    between atoms: C_6  and  C_7
REMARK    5  A    between atoms: C_7  and  O_9
REMARK    6  A    between atoms: O_9  and  C_10
REMARK    7  A    between atoms: C_12  and  C_14
REMARK    8  A    between atoms: C_17  and  S_20
REMARK    9  A    between atoms: S_20  and  N_23
REMARK   10  A    between atoms: N_23  and  C_24
REMARK   11  A    between atoms: N_23  and  C_25
REMARK                            x       y       z     vdW  Elec       q    Type
REMARK                         _______ _______ _______ _____ _____    ______ ____
ROOT
ATOM      1  N   UNL     1       0.033  -3.045  -2.112  0.00  0.00    -0.275 N 
ATOM      2  C   UNL     1       0.052  -4.363  -1.832  0.00  0.00    +0.249 C 
ATOM      3  O   UNL     1       0.063  -4.739  -0.677  0.00  0.00    -0.270 OA
ATOM      4  H   UNL     1       0.024  -2.745  -3.034  0.00  0.00    +0.156 HD
ENDROOT
BRANCH   1   8
ATOM      5  C   UNL     1      -0.018   1.503   0.010  0.00  0.00    +0.046 C 
ATOM      6  C   UNL     1       0.002  -0.004   0.002  0.00  0.00    -0.015 A 
ATOM      7  C   UNL     1       0.006  -0.729  -1.180  0.00  0.00    +0.069 A 
ATOM      8  C   UNL     1       0.025  -2.122  -1.085  0.00  0.00    +0.085 A 
ATOM      9  S   UNL     1       0.037  -2.413   0.569  0.00  0.00    -0.066 S 
ATOM     10  C   UNL     1       0.024  -0.733   1.162  0.00  0.00    +0.102 A 
BRANCH   7  11
ATOM     11  C   UNL     1      -0.010  -0.056  -2.486  0.00  0.00    +0.244 C 
ATOM     12  O   UNL     1       1.037   0.237  -3.032  0.00  0.00    -0.270 OA
ATOM     13  N   UNL     1      -1.184   0.237  -3.079  0.00  0.00    -0.325 N 
ATOM     14  H   UNL     1      -2.019   0.003  -2.643  0.00  0.00    +0.145 HD
ATOM     15  H   UNL     1      -1.195   0.681  -3.941  0.00  0.00    +0.145 HD
ENDBRANCH   7  11
BRANCH  10  16
ATOM     16  C   UNL     1       0.031  -0.252   2.543  0.00  0.00    +0.346 C 
ATOM     17  O   UNL     1       0.017   0.943   2.771  0.00  0.00    -0.244 OA
BRANCH  16  18
ATOM     18  O   UNL     1       0.053  -1.134   3.564  0.00  0.00    -0.464 OA
ATOM     19  C   UNL     1       0.059  -0.594   4.887  0.00  0.00    +0.280 C 
ENDBRANCH  16  18
ENDBRANCH  10  16
ENDBRANCH   1   8
BRANCH   2  20
ATOM     20  C   UNL     1       0.059  -5.351  -2.931  0.00  0.00    +0.037 A 
ATOM     21  C   UNL     1       0.052  -4.923  -4.260  0.00  0.00    +0.015 A 
ATOM     22  C   UNL     1       0.059  -5.850  -5.281  0.00  0.00    +0.029 A 
ATOM     23  C   UNL     1       0.073  -7.203  -4.990  0.00  0.00    +0.106 A 
ATOM     24  C   UNL     1       0.080  -7.635  -3.676  0.00  0.00    +0.029 A 
ATOM     25  C   UNL     1       0.079  -6.718  -2.646  0.00  0.00    +0.015 A 
BRANCH  23  26
ATOM     26  S   UNL     1       0.081  -8.381  -6.301  0.00  0.00    +0.061 S 
ATOM     27  O   UNL     1      -0.457  -9.584  -5.769  0.00  0.00    -0.153 OA
ATOM     28  O   UNL     1      -0.478  -7.732  -7.434  0.00  0.00    -0.153 OA
BRANCH  26  29
ATOM     29  N   UNL     1       1.665  -8.693  -6.668  0.00  0.00    -0.177 NA
ATOM     30  C   UNL     1       2.377  -9.775  -5.983  0.00  0.00    +0.132 C 
BRANCH  29  31
ATOM     31  C   UNL     1       2.355  -7.888  -7.679  0.00  0.00    +0.080 C 
ATOM     32  C   UNL     1       2.832  -8.795  -8.815  0.00  0.00    +0.020 C 
ATOM     33  C   UNL     1       3.553  -7.954  -9.871  0.00  0.00    +0.002 C 
ATOM     34  C   UNL     1       4.757  -7.258  -9.234  0.00  0.00    +0.000 C 
ATOM     35  C   UNL     1       4.280  -6.351  -8.098  0.00  0.00    +0.002 C 
ATOM     36  C   UNL     1       3.560  -7.192  -7.042  0.00  0.00    +0.020 C 
ENDBRANCH  29  31
ENDBRANCH  26  29
ENDBRANCH  23  26
ENDBRANCH   2  20
TORSDOF 8
