REMARK  Name = ZINC35969390
REMARK  9 active torsions:
REMARK  status: ('A' for Active; 'I' for Inactive)
REMARK    1  A    between atoms: C_1  and  C_2
REMARK    2  A    between atoms: C_5  and  C_8
REMARK    3  A    between atoms: N_13  and  C_16
REMARK    4  A    between atoms: C_16  and  C_18
REMARK    5  A    between atoms: C_16  and  C_24
REMARK    6  A    between atoms: N_26  and  C_27
REMARK    7  A    between atoms: C_27  and  C_28
REMARK    8  A    between atoms: N_34  and  C_38
REMARK    9  A    between atoms: C_38  and  C_39
REMARK                            x       y       z     vdW  Elec       q    Type
REMARK                         _______ _______ _______ _____ _____    ______ ____
ROOT
ATOM      1  C   UNL     1       0.792  -2.275  -0.262  0.00  0.00    +0.142 C 
ATOM      2  C   UNL     1       1.821  -3.387  -0.231  0.00  0.00    +0.058 C 
ATOM      3  C   UNL     1       1.426  -4.595   0.218  0.00  0.00    +0.043 C 
ATOM      4  C   UNL     1       2.638  -5.496   0.139  0.00  0.00    +0.160 C 
ATOM      5  N   UNL     1       3.710  -4.642  -0.394  0.00  0.00    -0.277 N 
ATOM      6  C   UNL     1       3.183  -3.420  -0.594  0.00  0.00    +0.247 C 
ATOM      7  O   UNL     1       3.803  -2.468  -1.032  0.00  0.00    -0.270 OA
ATOM      8  N   UNL     1       0.142  -4.812   0.630  0.00  0.00    -0.253 N 
ATOM      9  C   UNL     1      -0.808  -3.867   0.623  0.00  0.00    +0.307 C 
ATOM     10  O   UNL     1      -1.924  -4.152   1.009  0.00  0.00    -0.252 OA
ATOM     11  N   UNL     1      -0.564  -2.610   0.203  0.00  0.00    -0.288 N 
ATOM     12  H   UNL     1      -1.267  -1.941   0.208  0.00  0.00    +0.151 HD
ENDROOT
BRANCH   1  17
ATOM     13  C   UNL     1       2.764   2.077   2.987  0.00  0.00    +0.044 C 
ATOM     14  C   UNL     1       2.250   0.942   2.140  0.00  0.00    -0.050 A 
ATOM     15  C   UNL     1       2.441   0.960   0.771  0.00  0.00    +0.004 A 
ATOM     16  C   UNL     1       1.969  -0.081  -0.006  0.00  0.00    +0.006 A 
ATOM     17  C   UNL     1       1.307  -1.141   0.585  0.00  0.00    -0.023 A 
ATOM     18  C   UNL     1       1.117  -1.159   1.954  0.00  0.00    +0.006 A 
ATOM     19  C   UNL     1       1.593  -0.120   2.732  0.00  0.00    +0.004 A 
ENDBRANCH   1  17
BRANCH   5  20
ATOM     20  C   UNL     1       5.093  -5.047  -0.659  0.00  0.00    +0.193 C 
BRANCH  20  21
ATOM     21  C   UNL     1       5.150  -5.825  -1.948  0.00  0.00    -0.018 A 
ATOM     22  C   UNL     1       4.372  -6.955  -2.109  0.00  0.00    +0.006 A 
ATOM     23  C   UNL     1       4.425  -7.669  -3.292  0.00  0.00    +0.000 A 
ATOM     24  C   UNL     1       5.256  -7.251  -4.314  0.00  0.00    +0.000 A 
ATOM     25  C   UNL     1       6.034  -6.120  -4.154  0.00  0.00    +0.000 A 
ATOM     26  C   UNL     1       5.978  -5.404  -2.973  0.00  0.00    +0.006 A 
ENDBRANCH  20  21
BRANCH  20  27
ATOM     27  C   UNL     1       5.588  -5.911   0.472  0.00  0.00    +0.238 C 
ATOM     28  O   UNL     1       4.858  -6.164   1.407  0.00  0.00    -0.273 OA
ATOM     29  N   UNL     1       6.843  -6.403   0.444  0.00  0.00    -0.311 N 
ATOM     30  H   UNL     1       7.427  -6.200  -0.303  0.00  0.00    +0.149 HD
BRANCH  29  31
ATOM     31  C   UNL     1       7.325  -7.243   1.543  0.00  0.00    +0.135 C 
BRANCH  31  32
ATOM     32  C   UNL     1       8.769  -7.666   1.267  0.00  0.00    +0.135 C 
ATOM     33  C   UNL     1       9.245  -8.649   2.358  0.00  0.00    +0.035 C 
ATOM     34  C   UNL     1      10.713  -8.198   2.590  0.00  0.00    +0.031 C 
ATOM     35  C   UNL     1      10.590  -6.669   2.368  0.00  0.00    +0.160 C 
ATOM     36  O   UNL     1       9.627  -6.520   1.310  0.00  0.00    -0.375 OA
ENDBRANCH  31  32
ENDBRANCH  29  31
ENDBRANCH  20  27
ENDBRANCH   5  20
BRANCH   8  37
ATOM     37  C   UNL     1      -0.217  -6.150   1.105  0.00  0.00    +0.141 C 
BRANCH  37  38
ATOM     38  C   UNL     1       0.022  -6.237   2.590  0.00  0.00    -0.015 C 
ATOM     39  C   UNL     1      -0.949  -6.604   3.389  0.00  0.00    +0.005 C 
ENDBRANCH  37  38
ENDBRANCH   8  37
TORSDOF 8
