REMARK  Name = ZINC12757178
REMARK  9 active torsions:
REMARK  status: ('A' for Active; 'I' for Inactive)
REMARK    1  A    between atoms: C_1  and  C_2
REMARK    2  A    between atoms: C_2  and  O_3
REMARK    3  A    between atoms: O_3  and  C_4
REMARK    4  A    between atoms: C_9  and  N_10
REMARK    5  A    between atoms: N_10  and  S_11
REMARK    6  A    between atoms: S_11  and  C_14
REMARK    7  A    between atoms: C_16  and  N_21
REMARK    8  A    between atoms: C_19  and  C_20
REMARK    9  A    between atoms: C_25  and  C_28
REMARK                            x       y       z     vdW  Elec       q    Type
REMARK                         _______ _______ _______ _____ _____    ______ ____
ROOT
ATOM      1  N   UNL     1      -2.608   3.851   0.040  0.00  0.00    -0.213 N 
ATOM      2  H   UNL     1      -3.373   3.586   0.574  0.00  0.00    +0.174 HD
ENDROOT
BRANCH   1   8
ATOM      3  C   UNL     1      -1.770   1.601  -0.237  0.00  0.00    +0.143 A 
ATOM      4  C   UNL     1      -0.702   0.734  -0.405  0.00  0.00    +0.055 A 
ATOM      5  C   UNL     1       0.583   1.228  -0.479  0.00  0.00    +0.001 A 
ATOM      6  C   UNL     1       0.831   2.590  -0.374  0.00  0.00    +0.126 A 
ATOM      7  C   UNL     1      -0.242   3.461  -0.203  0.00  0.00    +0.074 A 
ATOM      8  C   UNL     1      -1.535   2.970  -0.132  0.00  0.00    +0.093 A 
ATOM      9  O   UNL     1       2.164   2.856  -0.458  0.00  0.00    -0.488 OA
ATOM     10  C   UNL     1       2.833   1.736  -1.063  0.00  0.00    +0.175 C 
ATOM     11  C   UNL     1       1.923   0.546  -0.679  0.00  0.00    +0.083 C 
ATOM     12  C   UNL     1       4.234   1.559  -0.474  0.00  0.00    +0.052 C 
BRANCH   3  13
ATOM     13  O   UNL     1      -3.040   1.117  -0.170  0.00  0.00    -0.490 OA
BRANCH  13  15
ATOM     14  C   UNL     1      -4.688  -0.650  -0.182  0.00  0.00    +0.048 C 
ATOM     15  C   UNL     1      -3.203  -0.298  -0.279  0.00  0.00    +0.226 C 
ENDBRANCH  13  15
ENDBRANCH   3  13
ENDBRANCH   1   8
BRANCH   1  16
ATOM     16  S   UNL     1      -2.572   5.348  -0.669  0.00  0.00    +0.073 S 
ATOM     17  O   UNL     1      -3.843   5.938  -0.435  0.00  0.00    -0.150 OA
ATOM     18  O   UNL     1      -1.359   5.963  -0.258  0.00  0.00    -0.150 OA
BRANCH  16  19
ATOM     19  C   UNL     1      -2.445   5.097  -2.409  0.00  0.00    +0.114 A 
ATOM     20  C   UNL     1      -1.318   5.521  -3.088  0.00  0.00    +0.061 A 
ATOM     21  C   UNL     1      -1.217   5.320  -4.452  0.00  0.00    +0.128 A 
ATOM     22  C   UNL     1      -2.247   4.704  -5.138  0.00  0.00    +0.033 A 
ATOM     23  C   UNL     1      -3.376   4.285  -4.460  0.00  0.00    +0.007 A 
ATOM     24  C   UNL     1      -3.475   4.482  -3.095  0.00  0.00    -0.024 A 
ATOM     25  C   UNL     1      -4.706   4.025  -2.356  0.00  0.00    +0.046 C 
BRANCH  21  26
ATOM     26  N   UNL     1      -0.007   5.769  -5.178  0.00  0.00    +0.056 N 
ATOM     27  O   UNL     1       0.080   5.596  -6.380  0.00  0.00    -0.126 OA
ATOM     28  O   UNL     1       0.900   6.311  -4.573  0.00  0.00    -0.126 OA
ENDBRANCH  21  26
ENDBRANCH  16  19
ENDBRANCH   1  16
TORSDOF 6
