REMARK  Name = ZINC12723604
REMARK  8 active torsions:
REMARK  status: ('A' for Active; 'I' for Inactive)
REMARK    1  A    between atoms: C_1  and  C_2
REMARK    2  A    between atoms: C_2  and  C_3
REMARK    3  A    between atoms: C_3  and  C_4
REMARK    4  A    between atoms: C_13  and  O_15
REMARK    5  A    between atoms: O_15  and  C_16
REMARK    6  A    between atoms: C_16  and  C_17
REMARK    7  A    between atoms: N_19  and  N_20
REMARK    8  A    between atoms: C_26  and  C_29
REMARK                            x       y       z     vdW  Elec       q    Type
REMARK                         _______ _______ _______ _____ _____    ______ ____
ROOT
ATOM      1  C   UNL     1       6.679  -5.063   2.767  0.00  0.00    +0.267 C 
ATOM      2  O   UNL     1       6.540  -6.263   2.653  0.00  0.00    -0.271 OA
ATOM      3  N   UNL     1       7.709  -4.568   3.482  0.00  0.00    -0.221 N 
ATOM      4  H   UNL     1       7.820  -3.609   3.572  0.00  0.00    +0.174 HD
ENDROOT
BRANCH   3   5
ATOM      5  N   UNL     1       8.620  -5.440   4.093  0.00  0.00    -0.137 N 
ATOM      6  C   UNL     1       8.646  -5.703   5.416  0.00  0.00    +0.263 C 
ATOM      7  O   UNL     1       7.914  -5.248   6.269  0.00  0.00    -0.271 OA
ATOM      8  C   UNL     1       9.779  -6.684   5.610  0.00  0.00    +0.114 C 
ATOM      9  C   UNL     1       9.252  -7.999   6.176  0.00  0.00    +0.035 C 
ATOM     10  C   UNL     1      10.410  -8.988   6.337  0.00  0.00    +0.006 C 
ATOM     11  C   UNL     1      11.461  -8.393   7.276  0.00  0.00    -0.014 C 
ATOM     12  C   UNL     1      11.996  -7.088   6.683  0.00  0.00    +0.006 C 
ATOM     13  C   UNL     1      10.845  -6.091   6.524  0.00  0.00    +0.035 C 
ATOM     14  C   UNL     1      12.613  -9.386   7.446  0.00  0.00    +0.007 C 
ATOM     15  N   UNL     1      10.313  -6.884   4.257  0.00  0.00    -0.284 N 
ATOM     16  C   UNL     1       9.568  -6.119   3.437  0.00  0.00    +0.326 C 
ATOM     17  O   UNL     1       9.740  -6.051   2.236  0.00  0.00    -0.251 OA
ATOM     18  H   UNL     1      11.054  -7.457   4.004  0.00  0.00    +0.151 HD
ENDBRANCH   3   5
BRANCH   1  19
ATOM     19  C   UNL     1       5.700  -4.126   2.109  0.00  0.00    +0.326 C 
BRANCH  19  20
ATOM     20  O   UNL     1       4.707  -4.884   1.416  0.00  0.00    -0.483 OA
BRANCH  20  30
ATOM     21  C   UNL     1       0.739  -2.004  -1.265  0.00  0.00    -0.030 A 
ATOM     22  C   UNL     1      -0.210  -2.711  -1.933  0.00  0.00    +0.096 A 
ATOM     23  C   UNL     1      -0.169  -4.121  -1.926  0.00  0.00    +0.337 A 
ATOM     24  O   UNL     1      -1.025  -4.742  -2.530  0.00  0.00    -0.245 OA
ATOM     25  O   UNL     1       0.790  -4.795  -1.272  0.00  0.00    -0.422 OA
ATOM     26  C   UNL     1       1.762  -4.153  -0.589  0.00  0.00    +0.143 A 
ATOM     27  C   UNL     1       1.785  -2.746  -0.558  0.00  0.00    +0.021 A 
ATOM     28  C   UNL     1       2.793  -2.077   0.144  0.00  0.00    +0.015 A 
ATOM     29  C   UNL     1       3.756  -2.793   0.795  0.00  0.00    +0.046 A 
ATOM     30  C   UNL     1       3.742  -4.186   0.764  0.00  0.00    +0.125 A 
ATOM     31  C   UNL     1       2.745  -4.865   0.082  0.00  0.00    +0.092 A 
BRANCH  21  32
ATOM     32  C   UNL     1       0.718  -0.497  -1.257  0.00  0.00    +0.036 C 
BRANCH  32  34
ATOM     33  C   UNL     1      -0.019   1.526   0.010  0.00  0.00    +0.004 C 
ATOM     34  C   UNL     1       0.002  -0.004   0.002  0.00  0.00    +0.001 C 
ENDBRANCH  32  34
ENDBRANCH  21  32
ENDBRANCH  20  30
ENDBRANCH  19  20
ENDBRANCH   1  19
TORSDOF 6
