REMARK  Name = ZINC63558018
REMARK  10 active torsions:
REMARK  status: ('A' for Active; 'I' for Inactive)
REMARK    1  A    between atoms: C_1  and  C_2
REMARK    2  A    between atoms: C_2  and  C_3
REMARK    3  A    between atoms: C_3  and  C_4
REMARK    4  A    between atoms: C_3  and  C_5
REMARK    5  A    between atoms: C_3  and  C_6
REMARK    6  A    between atoms: C_10  and  N_13
REMARK    7  A    between atoms: C_14  and  C_16
REMARK    8  A    between atoms: N_21  and  C_23
REMARK    9  A    between atoms: C_23  and  C_24
REMARK   10  A    between atoms: C_24  and  C_25
REMARK                            x       y       z     vdW  Elec       q    Type
REMARK                         _______ _______ _______ _____ _____    ______ ____
ROOT
ATOM      1  C   UNL     1      -2.210  -5.824  -5.399  0.00  0.00    +0.101 C 
ATOM      2  C   UNL     1      -3.691  -5.875  -4.955  0.00  0.00    +0.110 C 
ATOM      3  C   UNL     1      -4.309  -6.927  -5.848  0.00  0.00    +0.216 C 
ATOM      4  O   UNL     1      -5.500  -7.079  -6.021  0.00  0.00    -0.276 OA
ATOM      5  N   UNL     1      -3.347  -7.670  -6.423  0.00  0.00    -0.300 N 
ATOM      6  C   UNL     1      -2.011  -7.234  -5.998  0.00  0.00    +0.121 C 
ENDROOT
BRANCH   1   8
ATOM      7  N   UNL     1      -1.368  -4.457  -3.517  0.00  0.00    -0.290 N 
ATOM      8  C   UNL     1      -1.300  -5.607  -4.218  0.00  0.00    +0.220 C 
ATOM      9  O   UNL     1      -0.507  -6.466  -3.897  0.00  0.00    -0.275 OA
ATOM     10  H   UNL     1      -2.002  -3.770  -3.773  0.00  0.00    +0.151 HD
BRANCH   7  14
ATOM     11  C   UNL     1       0.739  -2.027  -1.265  0.00  0.00    +0.135 C 
ATOM     12  N   UNL     1       1.330  -2.562  -2.531  0.00  0.00    -0.241 NA
ATOM     13  N   UNL     1       0.891  -3.913  -2.813  0.00  0.00    -0.227 NA
ATOM     14  C   UNL     1      -0.483  -4.246  -2.368  0.00  0.00    +0.216 C 
ATOM     15  S   UNL     1      -0.963  -2.729  -1.434  0.00  0.00    -0.101 S 
ATOM     16  H   UNL     1       2.337  -2.505  -2.512  0.00  0.00    +0.142 HD
ATOM     17  H   UNL     1       1.557  -4.588  -2.468  0.00  0.00    +0.143 HD
BRANCH  11  18
ATOM     18  C   UNL     1       0.718  -0.497  -1.257  0.00  0.00    -0.009 C 
ATOM     19  C   UNL     1      -0.022   0.009  -2.496  0.00  0.00    +0.013 C 
ATOM     20  C   UNL     1       2.154   0.032  -1.268  0.00  0.00    +0.013 C 
BRANCH  18  22
ATOM     21  C   UNL     1      -0.019   1.526   0.010  0.00  0.00    +0.004 C 
ATOM     22  C   UNL     1       0.002  -0.004   0.002  0.00  0.00    +0.005 C 
ENDBRANCH  18  22
ENDBRANCH  11  18
ENDBRANCH   7  14
ENDBRANCH   1   8
BRANCH   5  23
ATOM     23  C   UNL     1      -3.599  -8.773  -7.354  0.00  0.00    +0.112 C 
BRANCH  23  24
ATOM     24  C   UNL     1      -3.636  -8.234  -8.785  0.00  0.00    +0.052 C 
BRANCH  24  25
ATOM     25  C   UNL     1      -3.895  -9.368  -9.742  0.00  0.00    -0.040 C 
ATOM     26  C   UNL     1      -5.091  -9.750 -10.246  0.00  0.00    +0.002 A 
ATOM     27  C   UNL     1      -6.455  -9.242 -10.060  0.00  0.00    +0.048 A 
ATOM     28  C   UNL     1      -7.475  -9.847 -10.714  0.00  0.00    +0.124 A 
ATOM     29  C   UNL     1      -7.260 -10.944 -11.563  0.00  0.00    +0.040 A 
ATOM     30  C   UNL     1      -6.035 -11.465 -11.783  0.00  0.00    +0.029 A 
ATOM     31  C   UNL     1      -4.891 -10.908 -11.147  0.00  0.00    +0.043 A 
ATOM     32  N   UNL     1      -3.621 -11.229 -11.198  0.00  0.00    -0.380 N 
ATOM     33  C   UNL     1      -2.870 -10.306 -10.340  0.00  0.00    +0.144 C 
ATOM     34  F   UNL     1      -8.733  -9.382 -10.544  0.00  0.00    -0.205 F 
ATOM     35  H   UNL     1      -3.241 -11.953 -11.720  0.00  0.00    +0.160 HD
ENDBRANCH  24  25
ENDBRANCH  23  24
ENDBRANCH   5  23
TORSDOF 7
