REMARK  Name = ZINC64980445
REMARK  6 active torsions:
REMARK  status: ('A' for Active; 'I' for Inactive)
REMARK    1  A    between atoms: C_1  and  O_2
REMARK    2  A    between atoms: O_2  and  C_3
REMARK    3  A    between atoms: C_6  and  O_9
REMARK    4  A    between atoms: O_9  and  C_10
REMARK    5  A    between atoms: C_10  and  C_11
REMARK    6  A    between atoms: C_17  and  C_22
REMARK                            x       y       z     vdW  Elec       q    Type
REMARK                         _______ _______ _______ _____ _____    ______ ____
ROOT
ATOM      1  C   UNL     1       3.159  -4.354  -5.520  0.00  0.00    +0.256 C 
ATOM      2  O   UNL     1       3.606  -3.555  -6.316  0.00  0.00    -0.272 OA
ATOM      3  N   UNL     1       3.294  -5.676  -5.744  0.00  0.00    -0.260 N 
ATOM      4  C   UNL     1       3.944  -6.124  -6.887  0.00  0.00    +0.188 A 
ATOM      5  N   UNL     1       4.167  -7.351  -7.278  0.00  0.00    -0.140 NA
ATOM      6  N   UNL     1       4.840  -7.618  -8.462  0.00  0.00    -0.184 N 
ATOM      7  C   UNL     1       5.269  -8.702  -9.215  0.00  0.00    +0.186 A 
ATOM      8  N   UNL     1       5.875  -8.235 -10.282  0.00  0.00    -0.126 NA
ATOM      9  N   UNL     1       5.864  -6.947 -10.263  0.00  0.00    -0.120 NA
ATOM     10  C   UNL     1       5.255  -6.533  -9.191  0.00  0.00    +0.220 A 
ATOM     11  S   UNL     1       4.684  -5.171  -8.204  0.00  0.00    -0.011 S 
ATOM     12  H   UNL     1       2.937  -6.315  -5.107  0.00  0.00    +0.157 HD
ENDROOT
BRANCH   7  13
ATOM     13  C   UNL     1       5.076 -10.128  -8.876  0.00  0.00    +0.023 A 
ATOM     14  C   UNL     1       4.695 -10.496  -7.584  0.00  0.00    +0.014 A 
ATOM     15  C   UNL     1       4.517 -11.828  -7.274  0.00  0.00    +0.040 A 
ATOM     16  C   UNL     1       4.716 -12.800  -8.240  0.00  0.00    +0.142 A 
ATOM     17  C   UNL     1       5.095 -12.441  -9.525  0.00  0.00    +0.077 A 
ATOM     18  C   UNL     1       5.270 -11.111  -9.848  0.00  0.00    +0.034 A 
ATOM     19 CL   UNL     1       5.343 -13.666 -10.730  0.00  0.00    -0.081 Cl
ATOM     20  F   UNL     1       4.540 -14.104  -7.930  0.00  0.00    -0.204 F 
ENDBRANCH   7  13
BRANCH   1  21
ATOM     21  C   UNL     1       2.454  -3.868  -4.280  0.00  0.00    +0.324 C 
BRANCH  21  22
ATOM     22  O   UNL     1       2.440  -2.439  -4.269  0.00  0.00    -0.483 OA
BRANCH  22  26
ATOM     23  C   UNL     1       0.606  -0.608  -1.056  0.00  0.00    +0.120 A 
ATOM     24  C   UNL     1       1.173   0.161  -2.062  0.00  0.00    +0.049 A 
ATOM     25  C   UNL     1       1.786  -0.452  -3.137  0.00  0.00    +0.049 A 
ATOM     26  C   UNL     1       1.836  -1.836  -3.211  0.00  0.00    +0.121 A 
ATOM     27  C   UNL     1       1.270  -2.604  -2.204  0.00  0.00    +0.049 A 
ATOM     28  C   UNL     1       0.661  -1.992  -1.127  0.00  0.00    +0.049 A 
BRANCH  23  30
ATOM     29  C   UNL     1      -0.017   1.425   0.010  0.00  0.00    +0.277 C 
ATOM     30  O   UNL     1       0.002  -0.004   0.002  0.00  0.00    -0.495 OA
ENDBRANCH  23  30
ENDBRANCH  22  26
ENDBRANCH  21  22
ENDBRANCH   1  21
TORSDOF 5
