REMARK  Name = ZINC08755341
REMARK  14 active torsions:
REMARK  status: ('A' for Active; 'I' for Inactive)
REMARK    1  A    between atoms: C_1  and  C_2
REMARK    2  A    between atoms: C_3  and  C_9
REMARK    3  A    between atoms: C_4  and  N_7
REMARK    4  A    between atoms: N_7  and  C_8
REMARK    5  A    between atoms: C_9  and  O_11
REMARK    6  A    between atoms: O_11  and  C_12
REMARK    7  A    between atoms: C_12  and  C_14
REMARK    8  A    between atoms: C_12  and  C_15
REMARK    9  A    between atoms: N_17  and  C_18
REMARK   10  A    between atoms: C_21  and  S_24
REMARK   11  A    between atoms: S_24  and  N_27
REMARK   12  A    between atoms: N_27  and  C_28
REMARK   13  A    between atoms: C_28  and  C_29
REMARK   14  A    between atoms: C_28  and  C_30
REMARK                            x       y       z     vdW  Elec       q    Type
REMARK                         _______ _______ _______ _____ _____    ______ ____
ROOT
ATOM      1  C   UNL     1       2.410  -2.734  -0.138  0.00  0.00    +0.258 C 
ATOM      2  O   UNL     1       3.452  -2.114  -0.144  0.00  0.00    -0.271 OA
ATOM      3  N   UNL     1       1.237  -2.079  -0.021  0.00  0.00    -0.282 N 
ATOM      4  H   UNL     1       0.409  -2.578   0.061  0.00  0.00    +0.155 HD
ENDROOT
BRANCH   3   5
ATOM      5  C   UNL     1       1.214  -0.680  -0.019  0.00  0.00    +0.034 A 
ATOM      6  C   UNL     1       2.137   0.032  -0.773  0.00  0.00    +0.025 A 
ATOM      7  C   UNL     1       2.112   1.413  -0.768  0.00  0.00    +0.030 A 
ATOM      8  C   UNL     1       1.169   2.086  -0.013  0.00  0.00    +0.105 A 
ATOM      9  C   UNL     1       0.249   1.380   0.739  0.00  0.00    +0.030 A 
ATOM     10  C   UNL     1       0.269  -0.001   0.738  0.00  0.00    +0.025 A 
BRANCH   8  11
ATOM     11  S   UNL     1       1.141   3.848  -0.009  0.00  0.00    +0.059 S 
ATOM     12  O   UNL     1       0.513   4.241   1.203  0.00  0.00    -0.153 OA
ATOM     13  O   UNL     1       2.449   4.276  -0.363  0.00  0.00    -0.153 OA
BRANCH  11  14
ATOM     14  N   UNL     1       0.139   4.324  -1.238  0.00  0.00    -0.187 NA
ATOM     15  H   UNL     1       0.498   4.814  -1.994  0.00  0.00    +0.148 HD
BRANCH  14  16
ATOM     16  C   UNL     1      -1.290   4.006  -1.184  0.00  0.00    +0.070 C 
ATOM     17  C   UNL     1      -2.054   5.191  -0.591  0.00  0.00    +0.025 C 
ATOM     18  C   UNL     1      -1.804   3.723  -2.597  0.00  0.00    +0.025 C 
ENDBRANCH  14  16
ENDBRANCH  11  14
ENDBRANCH   8  11
ENDBRANCH   3   5
BRANCH   1  19
ATOM     19  C   UNL     1       2.425  -4.236  -0.260  0.00  0.00    +0.259 C 
ATOM     20  C   UNL     1       1.892  -4.858   1.032  0.00  0.00    +0.062 C 
BRANCH  19  21
ATOM     21  O   UNL     1       3.785  -4.689  -0.490  0.00  0.00    -0.449 OA
BRANCH  21  22
ATOM     22  C   UNL     1       3.941  -5.818  -1.211  0.00  0.00    +0.344 C 
ATOM     23  O   UNL     1       2.966  -6.407  -1.636  0.00  0.00    -0.245 OA
BRANCH  22  26
ATOM     24  C   UNL     1       5.438  -4.991  -3.609  0.00  0.00    +0.067 C 
ATOM     25  C   UNL     1       6.016  -5.959  -2.610  0.00  0.00    +0.063 A 
ATOM     26  C   UNL     1       5.285  -6.334  -1.483  0.00  0.00    +0.109 A 
ATOM     27  C   UNL     1       5.931  -7.234  -0.627  0.00  0.00    +0.100 A 
ATOM     28  S   UNL     1       7.441  -7.482  -1.439  0.00  0.00    +0.027 S 
ATOM     29  N   UNL     1       7.206  -6.459  -2.785  0.00  0.00    -0.213 NA
BRANCH  27  30
ATOM     30  N   UNL     1       5.480  -7.784   0.556  0.00  0.00    -0.340 N 
ATOM     31  C   UNL     1       6.330  -8.716   1.301  0.00  0.00    +0.126 C 
ATOM     32  H   UNL     1       4.601  -7.553   0.894  0.00  0.00    +0.146 HD
ENDBRANCH  27  30
ENDBRANCH  22  26
ENDBRANCH  21  22
ENDBRANCH  19  21
ENDBRANCH   1  19
TORSDOF 9
