REMARK  Name = ZINC28310918
REMARK  8 active torsions:
REMARK  status: ('A' for Active; 'I' for Inactive)
REMARK    1  A    between atoms: C_1  and  C_2
REMARK    2  A    between atoms: C_7  and  N_8
REMARK    3  A    between atoms: N_10  and  C_29
REMARK    4  A    between atoms: C_13  and  C_16
REMARK    5  A    between atoms: C_16  and  C_17
REMARK    6  A    between atoms: N_19  and  C_20
REMARK    7  A    between atoms: C_24  and  N_26
REMARK    8  A    between atoms: C_29  and  C_30
REMARK                            x       y       z     vdW  Elec       q    Type
REMARK                         _______ _______ _______ _____ _____    ______ ____
ROOT
ATOM      1  N   UNL     1      -0.585  -0.113   1.981  0.00  0.00    -0.226 NA
ATOM      2  C   UNL     1      -0.500  -0.751   3.125  0.00  0.00    +0.164 C 
ATOM      3  N   UNL     1      -0.439  -0.217   4.395  0.00  0.00    -0.246 N 
ATOM      4  C   UNL     1      -0.354  -0.970   5.478  0.00  0.00    +0.235 C 
ATOM      5  O   UNL     1      -0.301  -0.493   6.592  0.00  0.00    -0.274 OA
ATOM      6  C   UNL     1      -0.329  -2.471   5.240  0.00  0.00    +0.149 C 
ATOM      7  S   UNL     1      -0.445  -2.515   3.404  0.00  0.00    -0.077 S 
ENDROOT
BRANCH   1  14
ATOM      8  C   UNL     1       1.141   0.498  -0.192  0.00  0.00    +0.046 C 
ATOM      9  C   UNL     1       0.067  -0.556  -0.282  0.00  0.00    -0.025 A 
ATOM     10  C   UNL     1      -0.103  -1.270  -1.450  0.00  0.00    +0.005 A 
ATOM     11  C   UNL     1      -1.089  -2.238  -1.535  0.00  0.00    +0.000 A 
ATOM     12  C   UNL     1      -1.909  -2.497  -0.451  0.00  0.00    +0.002 A 
ATOM     13  C   UNL     1      -1.749  -1.790   0.723  0.00  0.00    +0.028 A 
ATOM     14  C   UNL     1      -0.753  -0.815   0.817  0.00  0.00    +0.069 A 
ENDBRANCH   1  14
BRANCH   6  15
ATOM     15  C   UNL     1      -1.536  -3.155   5.885  0.00  0.00    +0.120 C 
BRANCH  15  16
ATOM     16  C   UNL     1      -1.408  -4.649   5.731  0.00  0.00    +0.219 C 
ATOM     17  O   UNL     1      -0.446  -5.120   5.162  0.00  0.00    -0.275 OA
ATOM     18  N   UNL     1      -2.362  -5.462   6.226  0.00  0.00    -0.285 N 
ATOM     19  H   UNL     1      -3.163  -5.084   6.622  0.00  0.00    +0.155 HD
BRANCH  18  20
ATOM     20  C   UNL     1      -2.199  -6.850   6.167  0.00  0.00    +0.036 A 
ATOM     21  C   UNL     1      -3.303  -7.674   5.992  0.00  0.00    +0.023 A 
ATOM     22  C   UNL     1      -3.138  -9.044   5.934  0.00  0.00    +0.004 A 
ATOM     23  C   UNL     1      -1.875  -9.596   6.051  0.00  0.00    +0.033 A 
ATOM     24  C   UNL     1      -0.774  -8.778   6.226  0.00  0.00    +0.128 A 
ATOM     25  C   UNL     1      -0.932  -7.407   6.278  0.00  0.00    +0.056 A 
BRANCH  24  26
ATOM     26  N   UNL     1       0.576  -9.373   6.351  0.00  0.00    +0.056 N 
ATOM     27  O   UNL     1       0.715 -10.572   6.301  0.00  0.00    -0.126 OA
ATOM     28  O   UNL     1       1.539  -8.658   6.504  0.00  0.00    -0.126 OA
ENDBRANCH  24  26
ENDBRANCH  18  20
ENDBRANCH  15  16
ENDBRANCH   6  15
BRANCH   3  29
ATOM     29  C   UNL     1      -0.469   1.240   4.550  0.00  0.00    +0.142 C 
BRANCH  29  30
ATOM     30  C   UNL     1      -1.896   1.702   4.687  0.00  0.00    -0.015 C 
ATOM     31  C   UNL     1      -2.255   2.421   5.721  0.00  0.00    +0.005 C 
ENDBRANCH  29  30
ENDBRANCH   3  29
TORSDOF 7
