REMARK  Name = ZINC60082100
REMARK  10 active torsions:
REMARK  status: ('A' for Active; 'I' for Inactive)
REMARK    1  A    between atoms: C_1  and  C_2
REMARK    2  A    between atoms: C_2  and  O_3
REMARK    3  A    between atoms: O_3  and  C_4
REMARK    4  A    between atoms: N_9  and  C_11
REMARK    5  A    between atoms: C_14  and  S_20
REMARK    6  A    between atoms: C_16  and  N_17
REMARK    7  A    between atoms: S_20  and  N_23
REMARK    8  A    between atoms: N_23  and  C_24
REMARK    9  A    between atoms: C_27  and  C_31
REMARK   10  A    between atoms: C_29  and  C_30
REMARK                            x       y       z     vdW  Elec       q    Type
REMARK                         _______ _______ _______ _____ _____    ______ ____
ROOT
ATOM      1  C   UNL     1      -3.276  -4.883   1.641  0.00  0.00    +0.060 A 
ATOM      2  C   UNL     1      -2.135  -5.373   2.263  0.00  0.00    +0.027 A 
ATOM      3  C   UNL     1      -2.247  -6.103   3.430  0.00  0.00    +0.031 A 
ATOM      4  C   UNL     1      -3.493  -6.346   3.979  0.00  0.00    +0.111 A 
ATOM      5  C   UNL     1      -4.630  -5.861   3.362  0.00  0.00    +0.063 A 
ATOM      6  C   UNL     1      -4.526  -5.125   2.197  0.00  0.00    +0.149 A 
ENDROOT
BRANCH   1  11
ATOM      7  C   UNL     1      -1.777  -2.293  -0.312  0.00  0.00    +0.135 C 
ATOM      8  C   UNL     1      -1.899  -2.871  -1.724  0.00  0.00    +0.035 C 
ATOM      9  C   UNL     1      -1.965  -4.398  -1.647  0.00  0.00    +0.021 C 
ATOM     10  C   UNL     1      -3.204  -4.812  -0.847  0.00  0.00    +0.105 C 
ATOM     11  N   UNL     1      -3.167  -4.144   0.461  0.00  0.00    -0.326 N 
ATOM     12  C   UNL     1      -3.014  -2.683   0.504  0.00  0.00    +0.136 C 
BRANCH   7  13
ATOM     13  O   UNL     1      -1.685  -0.869  -0.386  0.00  0.00    -0.375 OA
BRANCH  13  15
ATOM     14  C   UNL     1      -0.369   1.150  -0.562  0.00  0.00    +0.034 C 
ATOM     15  C   UNL     1      -0.347  -0.378  -0.490  0.00  0.00    +0.157 C 
ENDBRANCH  13  15
ENDBRANCH   7  13
ENDBRANCH   1  11
BRANCH   6  16
ATOM     16  N   UNL     1      -5.744  -4.600   1.540  0.00  0.00    +0.058 N 
ATOM     17  O   UNL     1      -6.831  -4.811   2.026  0.00  0.00    -0.126 OA
ATOM     18  O   UNL     1      -5.652  -3.960   0.519  0.00  0.00    -0.126 OA
ENDBRANCH   6  16
BRANCH   4  19
ATOM     19  S   UNL     1      -3.630  -7.278   5.468  0.00  0.00    +0.072 S 
ATOM     20  O   UNL     1      -4.939  -7.831   5.482  0.00  0.00    -0.150 OA
ATOM     21  O   UNL     1      -2.462  -8.083   5.553  0.00  0.00    -0.150 OA
BRANCH  19  22
ATOM     22  N   UNL     1      -3.557  -6.204   6.726  0.00  0.00    -0.216 N 
ATOM     23  H   UNL     1      -2.848  -6.276   7.385  0.00  0.00    +0.174 HD
BRANCH  22  24
ATOM     24  C   UNL     1      -4.516  -5.195   6.840  0.00  0.00    +0.051 A 
ATOM     25  C   UNL     1      -5.833  -5.441   6.470  0.00  0.00    +0.025 A 
ATOM     26  C   UNL     1      -6.778  -4.441   6.584  0.00  0.00    +0.005 A 
ATOM     27  C   UNL     1      -6.416  -3.196   7.066  0.00  0.00    -0.050 A 
ATOM     28  C   UNL     1      -5.107  -2.948   7.434  0.00  0.00    +0.008 A 
ATOM     29  C   UNL     1      -4.157  -3.946   7.329  0.00  0.00    -0.028 A 
ATOM     30  C   UNL     1      -2.732  -3.676   7.737  0.00  0.00    +0.046 C 
ATOM     31  C   UNL     1      -7.451  -2.108   7.189  0.00  0.00    +0.044 C 
ENDBRANCH  22  24
ENDBRANCH  19  22
ENDBRANCH   4  19
TORSDOF 7
