REMARK  Name = ZINC39639758
REMARK  8 active torsions:
REMARK  status: ('A' for Active; 'I' for Inactive)
REMARK    1  A    between atoms: C_1  and  C_2
REMARK    2  A    between atoms: C_2  and  C_4
REMARK    3  A    between atoms: C_2  and  O_16
REMARK    4  A    between atoms: N_6  and  C_7
REMARK    5  A    between atoms: C_10  and  C_13
REMARK    6  A    between atoms: O_16  and  C_17
REMARK    7  A    between atoms: C_17  and  C_19
REMARK    8  A    between atoms: C_25  and  C_27
REMARK                            x       y       z     vdW  Elec       q    Type
REMARK                         _______ _______ _______ _____ _____    ______ ____
ROOT
ATOM      1  C   UNL     1      -0.287  -1.048  -2.099  0.00  0.00    +0.312 C 
ATOM      2  O   UNL     1      -1.484  -0.911  -2.198  0.00  0.00    -0.250 OA
ENDROOT
BRANCH   1   3
ATOM      3  C   UNL     1       0.545  -1.314  -3.327  0.00  0.00    +0.110 C 
ATOM      4  C   UNL     1       1.575  -0.196  -3.497  0.00  0.00    +0.015 C 
ATOM      5  C   UNL     1       2.420  -0.467  -4.744  0.00  0.00    +0.001 C 
ATOM      6  C   UNL     1       1.512  -0.515  -5.975  0.00  0.00    +0.001 C 
ATOM      7  C   UNL     1       0.481  -1.633  -5.804  0.00  0.00    +0.013 C 
ATOM      8  C   UNL     1      -0.363  -1.363  -4.557  0.00  0.00    +0.089 C 
BRANCH   8   9
ATOM      9  C   UNL     1      -1.075  -0.043  -4.709  0.00  0.00    +0.224 C 
ATOM     10  O   UNL     1      -0.718   0.917  -4.059  0.00  0.00    -0.275 OA
ATOM     11  N   UNL     1      -2.107   0.071  -5.568  0.00  0.00    -0.271 N 
ATOM     12  C   UNL     1      -2.567  -0.984  -6.474  0.00  0.00    +0.118 C 
ATOM     13  C   UNL     1      -3.755  -0.374  -7.235  0.00  0.00    +0.056 C 
ATOM     14  C   UNL     1      -3.881   1.028  -6.682  0.00  0.00    -0.024 A 
ATOM     15  C   UNL     1      -2.901   1.213  -5.720  0.00  0.00    +0.039 A 
ATOM     16  C   UNL     1      -2.823   2.440  -5.059  0.00  0.00    +0.024 A 
ATOM     17  C   UNL     1      -3.712   3.449  -5.359  0.00  0.00    +0.002 A 
ATOM     18  C   UNL     1      -4.689   3.254  -6.318  0.00  0.00    +0.000 A 
ATOM     19  C   UNL     1      -4.768   2.044  -6.983  0.00  0.00    +0.005 A 
ENDBRANCH   8   9
ENDBRANCH   1   3
BRANCH   1  20
ATOM     20  O   UNL     1       0.301  -0.963  -0.895  0.00  0.00    -0.452 OA
BRANCH  20  22
ATOM     21  C   UNL     1      -0.674   0.802   0.438  0.00  0.00    +0.062 C 
ATOM     22  C   UNL     1      -0.548  -0.708   0.225  0.00  0.00    +0.259 C 
BRANCH  22  23
ATOM     23  C   UNL     1       0.043  -1.341   1.458  0.00  0.00    +0.258 C 
ATOM     24  O   UNL     1       1.132  -1.873   1.404  0.00  0.00    -0.271 OA
ATOM     25  N   UNL     1      -0.638  -1.318   2.621  0.00  0.00    -0.282 N 
ATOM     26  H   UNL     1      -1.477  -0.834   2.682  0.00  0.00    +0.155 HD
BRANCH  25  27
ATOM     27  C   UNL     1      -0.137  -1.989   3.736  0.00  0.00    +0.034 A 
ATOM     28  C   UNL     1       1.235  -2.034   3.960  0.00  0.00    +0.024 A 
ATOM     29  C   UNL     1       1.733  -2.696   5.060  0.00  0.00    +0.015 A 
ATOM     30  C   UNL     1       0.858  -3.322   5.952  0.00  0.00    +0.037 A 
ATOM     31  C   UNL     1      -0.520  -3.275   5.724  0.00  0.00    +0.015 A 
ATOM     32  C   UNL     1      -1.012  -2.607   4.624  0.00  0.00    +0.024 A 
BRANCH  30  33
ATOM     33  C   UNL     1       1.388  -4.033   7.132  0.00  0.00    +0.242 C 
ATOM     34  O   UNL     1       2.587  -4.074   7.329  0.00  0.00    -0.270 OA
ATOM     35  N   UNL     1       0.542  -4.637   7.991  0.00  0.00    -0.325 N 
ATOM     36  H   UNL     1      -0.414  -4.604   7.834  0.00  0.00    +0.145 HD
ATOM     37  H   UNL     1       0.891  -5.104   8.766  0.00  0.00    +0.145 HD
ENDBRANCH  30  33
ENDBRANCH  25  27
ENDBRANCH  22  23
ENDBRANCH  20  22
ENDBRANCH   1  20
TORSDOF 7
