REMARK  Name = ZINC53235065
REMARK  6 active torsions:
REMARK  status: ('A' for Active; 'I' for Inactive)
REMARK    1  A    between atoms: C_1  and  C_2
REMARK    2  A    between atoms: C_5  and  N_8
REMARK    3  A    between atoms: C_11  and  C_15
REMARK    4  A    between atoms: N_17  and  C_18
REMARK    5  A    between atoms: C_21  and  N_24
REMARK    6  A    between atoms: N_27  and  C_28
REMARK                            x       y       z     vdW  Elec       q    Type
REMARK                         _______ _______ _______ _____ _____    ______ ____
ROOT
ATOM      1  C   UNL     1       1.050  -7.018  -1.720  0.00  0.00    +0.229 C 
ATOM      2  O   UNL     1       2.127  -7.415  -1.329  0.00  0.00    -0.275 OA
ATOM      3  N   UNL     1       0.678  -7.230  -2.998  0.00  0.00    -0.285 N 
ATOM      4  H   UNL     1      -0.149  -6.848  -3.332  0.00  0.00    +0.155 HD
ENDROOT
BRANCH   1   8
ATOM      5  N   UNL     1       0.039  -4.027  -0.169  0.00  0.00    -0.271 N 
ATOM      6  C   UNL     1       0.291  -4.770   1.071  0.00  0.00    +0.115 C 
ATOM      7  C   UNL     1       0.771  -6.169   0.624  0.00  0.00    +0.041 C 
ATOM      8  C   UNL     1       0.128  -6.289  -0.777  0.00  0.00    +0.163 C 
ATOM      9  C   UNL     1      -0.068  -4.856  -1.222  0.00  0.00    +0.232 C 
ATOM     10  O   UNL     1      -0.287  -4.506  -2.362  0.00  0.00    -0.274 OA
BRANCH   5  15
ATOM     11  C   UNL     1      -0.445   1.617  -0.476  0.00  0.00    +0.044 C 
ATOM     12  C   UNL     1      -0.316   0.118  -0.395  0.00  0.00    -0.050 A 
ATOM     13  C   UNL     1      -0.321  -0.639  -1.552  0.00  0.00    +0.005 A 
ATOM     14  C   UNL     1      -0.203  -2.013  -1.480  0.00  0.00    +0.024 A 
ATOM     15  C   UNL     1      -0.080  -2.635  -0.245  0.00  0.00    +0.036 A 
ATOM     16  C   UNL     1      -0.075  -1.872   0.916  0.00  0.00    +0.024 A 
ATOM     17  C   UNL     1      -0.188  -0.498   0.837  0.00  0.00    +0.005 A 
ENDBRANCH   5  15
ENDBRANCH   1   8
BRANCH   3  18
ATOM     18  C   UNL     1       1.484  -8.003  -3.844  0.00  0.00    +0.034 A 
ATOM     19  C   UNL     1       1.556  -7.704  -5.198  0.00  0.00    +0.025 A 
ATOM     20  C   UNL     1       2.351  -8.466  -6.031  0.00  0.00    +0.025 A 
ATOM     21  C   UNL     1       3.078  -9.530  -5.516  0.00  0.00    +0.035 A 
ATOM     22  C   UNL     1       3.006  -9.829  -4.161  0.00  0.00    +0.025 A 
ATOM     23  C   UNL     1       2.216  -9.064  -3.327  0.00  0.00    +0.025 A 
BRANCH  21  24
ATOM     24  N   UNL     1       3.884 -10.303  -6.362  0.00  0.00    -0.269 N 
ATOM     25  C   UNL     1       4.044 -11.620  -6.122  0.00  0.00    +0.304 C 
ATOM     26  O   UNL     1       3.416 -12.156  -5.230  0.00  0.00    -0.253 OA
ATOM     27  N   UNL     1       4.901 -12.342  -6.872  0.00  0.00    -0.302 N 
ATOM     28  C   UNL     1       5.075 -13.773  -6.611  0.00  0.00    +0.129 C 
ATOM     29  H   UNL     1       4.327  -9.891  -7.120  0.00  0.00    +0.156 HD
ATOM     30  H   UNL     1       5.402 -11.914  -7.583  0.00  0.00    +0.150 HD
ENDBRANCH  21  24
ENDBRANCH   3  18
TORSDOF 4
