REMARK  Name = ZINC59212999
REMARK  5 active torsions:
REMARK  status: ('A' for Active; 'I' for Inactive)
REMARK    1  A    between atoms: C_6  and  C_11
REMARK    2  A    between atoms: C_14  and  S_16
REMARK    3  A    between atoms: S_16  and  C_17
REMARK    4  A    between atoms: C_17  and  C_18
REMARK    5  A    between atoms: C_24  and  N_26
REMARK                            x       y       z     vdW  Elec       q    Type
REMARK                         _______ _______ _______ _____ _____    ______ ____
ROOT
ATOM      1  C   UNL     1       4.976  -2.713  -0.060  0.00  0.00    +0.249 A 
ATOM      2  N   UNL     1       6.167  -2.165  -0.064  0.00  0.00    -0.106 NA
ATOM      3  N   UNL     1       7.062  -3.089  -0.079  0.00  0.00    -0.101 NA
ATOM      4  C   UNL     1       6.477  -4.265  -0.086  0.00  0.00    +0.278 A 
ATOM      5  O   UNL     1       5.147  -4.053  -0.069  0.00  0.00    -0.411 OA
ENDROOT
BRANCH   1  11
ATOM      6  C   UNL     1      -0.016   1.357   0.009  0.00  0.00    +0.001 A 
ATOM      7  C   UNL     1       1.168   2.091   0.002  0.00  0.00    +0.001 A 
ATOM      8  C   UNL     1       2.378   1.468  -0.013  0.00  0.00    +0.008 A 
ATOM      9  C   UNL     1       2.437   0.063  -0.021  0.00  0.00    -0.017 A 
ATOM     10  C   UNL     1       3.667  -0.611  -0.036  0.00  0.00    +0.021 A 
ATOM     11  C   UNL     1       3.685  -1.996  -0.044  0.00  0.00    +0.039 A 
ATOM     12  C   UNL     1       2.482  -2.726  -0.036  0.00  0.00    +0.014 A 
ATOM     13  C   UNL     1       1.283  -2.090  -0.021  0.00  0.00    +0.009 A 
ATOM     14  C   UNL     1       1.231  -0.684  -0.013  0.00  0.00    -0.018 A 
ATOM     15  C   UNL     1       0.002  -0.004   0.002  0.00  0.00    +0.008 A 
ENDBRANCH   1  11
BRANCH   4  16
ATOM     16  S   UNL     1       7.284  -5.831  -0.108  0.00  0.00    -0.056 S 
BRANCH  16  17
ATOM     17  C   UNL     1       9.049  -5.415  -0.116  0.00  0.00    +0.175 C 
BRANCH  17  18
ATOM     18  C   UNL     1       9.864  -6.683  -0.134  0.00  0.00    +0.229 C 
ATOM     19  O   UNL     1       9.308  -7.761  -0.141  0.00  0.00    -0.275 OA
ATOM     20  N   UNL     1      11.210  -6.619  -0.143  0.00  0.00    -0.264 N 
ATOM     21  C   UNL     1      11.961  -7.789  -0.160  0.00  0.00    +0.166 A 
ATOM     22  N   UNL     1      11.536  -9.033  -0.175  0.00  0.00    -0.231 NA
ATOM     23  C   UNL     1      12.385 -10.044  -0.190  0.00  0.00    +0.153 A 
ATOM     24  C   UNL     1      13.706  -9.740  -0.189  0.00  0.00    +0.185 A 
ATOM     25  S   UNL     1      13.636  -7.956  -0.173  0.00  0.00    -0.028 S 
ATOM     26  H   UNL     1      11.655  -5.757  -0.138  0.00  0.00    +0.157 HD
BRANCH  24  27
ATOM     27  N   UNL     1      14.882 -10.639  -0.203  0.00  0.00    +0.065 N 
ATOM     28  O   UNL     1      14.727 -11.838  -0.218  0.00  0.00    -0.126 OA
ATOM     29  O   UNL     1      15.998 -10.174  -0.200  0.00  0.00    -0.126 OA
ENDBRANCH  24  27
ENDBRANCH  17  18
ENDBRANCH  16  17
ENDBRANCH   4  16
TORSDOF 5
