REMARK  Name = ZINC10051278
REMARK  11 active torsions:
REMARK  status: ('A' for Active; 'I' for Inactive)
REMARK    1  A    between atoms: C_1  and  N_2
REMARK    2  A    between atoms: N_2  and  C_3
REMARK    3  A    between atoms: N_2  and  C_4
REMARK    4  A    between atoms: C_7  and  N_30
REMARK    5  A    between atoms: C_9  and  C_10
REMARK    6  A    between atoms: C_10  and  O_12
REMARK    7  A    between atoms: O_12  and  C_13
REMARK    8  A    between atoms: C_13  and  C_14
REMARK    9  A    between atoms: N_16  and  C_17
REMARK   10  A    between atoms: C_17  and  C_18
REMARK   11  A    between atoms: N_20  and  C_21
REMARK                            x       y       z     vdW  Elec       q    Type
REMARK                         _______ _______ _______ _____ _____    ______ ____
ROOT
ATOM      1  C   UNL     1      -0.876   3.296   1.421  0.00  0.00    +0.251 C 
ATOM      2  O   UNL     1      -0.438   4.095   0.620  0.00  0.00    -0.272 OA
ATOM      3  N   UNL     1      -0.727   1.974   1.204  0.00  0.00    -0.304 N 
ATOM      4  H   UNL     1      -1.077   1.335   1.844  0.00  0.00    +0.149 HD
ENDROOT
BRANCH   1   5
ATOM      5  C   UNL     1      -1.587   3.781   2.658  0.00  0.00    +0.328 C 
BRANCH   5   6
ATOM      6  O   UNL     1      -1.618   5.232   2.660  0.00  0.00    -0.452 OA
BRANCH   6   7
ATOM      7  C   UNL     1      -2.222   5.830   3.706  0.00  0.00    +0.342 C 
ATOM      8  O   UNL     1      -2.711   5.156   4.591  0.00  0.00    -0.245 OA
BRANCH   7  14
ATOM      9  C   UNL     1      -2.920   7.927   4.863  0.00  0.00    +0.043 A 
ATOM     10  C   UNL     1      -2.978   9.314   4.917  0.00  0.00    +0.026 A 
ATOM     11  C   UNL     1      -2.420  10.069   3.906  0.00  0.00    +0.034 A 
ATOM     12  C   UNL     1      -1.798   9.453   2.832  0.00  0.00    +0.127 A 
ATOM     13  C   UNL     1      -1.726   8.079   2.763  0.00  0.00    +0.049 A 
ATOM     14  C   UNL     1      -2.291   7.300   3.776  0.00  0.00    +0.082 A 
BRANCH   9  16
ATOM     15  C   UNL     1      -2.855   7.469   7.173  0.00  0.00    +0.129 C 
ATOM     16  N   UNL     1      -3.481   7.165   5.879  0.00  0.00    -0.335 N 
ATOM     17  C   UNL     1      -4.936   7.358   5.940  0.00  0.00    +0.129 C 
ENDBRANCH   9  16
BRANCH  12  18
ATOM     18  N   UNL     1      -1.202  10.276   1.755  0.00  0.00    +0.056 N 
ATOM     19  O   UNL     1      -1.260  11.491   1.815  0.00  0.00    -0.126 OA
ATOM     20  O   UNL     1      -0.655   9.738   0.809  0.00  0.00    -0.126 OA
ENDBRANCH  12  18
ENDBRANCH   7  14
ENDBRANCH   6   7
ENDBRANCH   5   6
ENDBRANCH   1   5
BRANCH   3  21
ATOM     21  C   UNL     1      -0.036   1.502   0.002  0.00  0.00    +0.200 C 
BRANCH  21  22
ATOM     22  C   UNL     1      -0.004  -0.005  -0.001  0.00  0.00    +0.234 C 
ATOM     23  O   UNL     1      -0.509  -0.624   0.911  0.00  0.00    -0.274 OA
ATOM     24  N   UNL     1       0.585  -0.664  -1.018  0.00  0.00    -0.282 N 
ATOM     25  H   UNL     1       0.932  -0.173  -1.779  0.00  0.00    +0.155 HD
BRANCH  24  26
ATOM     26  C   UNL     1       0.697  -2.061  -0.976  0.00  0.00    +0.072 A 
ATOM     27  C   UNL     1      -0.305  -2.821  -0.389  0.00  0.00    +0.029 A 
ATOM     28  C   UNL     1      -0.196  -4.198  -0.351  0.00  0.00    +0.043 A 
ATOM     29  C   UNL     1       0.917  -4.821  -0.890  0.00  0.00    +0.161 A 
ATOM     30  C   UNL     1       1.923  -4.066  -1.472  0.00  0.00    +0.195 A 
ATOM     31  C   UNL     1       1.815  -2.686  -1.516  0.00  0.00    +0.182 A 
ATOM     32  F   UNL     1       2.795  -1.948  -2.083  0.00  0.00    -0.200 F 
ATOM     33  F   UNL     1       3.009  -4.676  -1.996  0.00  0.00    -0.199 F 
ATOM     34  F   UNL     1       1.023  -6.167  -0.847  0.00  0.00    -0.202 F 
ENDBRANCH  24  26
ENDBRANCH  21  22
ENDBRANCH   3  21
TORSDOF 9
