REMARK  Name = ZINC00558402
REMARK  5 active torsions:
REMARK  status: ('A' for Active; 'I' for Inactive)
REMARK    1  A    between atoms: C_1  and  C_2
REMARK    2  A    between atoms: N_5  and  C_8
REMARK    3  A    between atoms: C_13  and  N_14
REMARK    4  A    between atoms: C_15  and  C_17
REMARK    5  A    between atoms: C_22  and  N_23
REMARK                            x       y       z     vdW  Elec       q    Type
REMARK                         _______ _______ _______ _____ _____    ______ ____
ROOT
ATOM      1  C   UNL     1      -0.172   0.984   2.480  0.00  0.00    +0.051 A 
ATOM      2  C   UNL     1      -0.231  -0.380   2.727  0.00  0.00    +0.025 A 
ATOM      3  C   UNL     1       0.379  -0.906   3.850  0.00  0.00    +0.002 A 
ATOM      4  C   UNL     1       1.040  -0.075   4.736  0.00  0.00    +0.002 A 
ATOM      5  C   UNL     1       1.098   1.286   4.501  0.00  0.00    +0.025 A 
ATOM      6  C   UNL     1       0.493   1.822   3.374  0.00  0.00    +0.055 A 
ENDROOT
BRANCH   1  11
ATOM      7  C   UNL     1      -3.419   2.664  -1.824  0.00  0.00    +0.007 C 
ATOM      8  C   UNL     1      -2.922   1.993  -0.541  0.00  0.00    -0.011 C 
ATOM      9  C   UNL     1      -2.463   3.065   0.452  0.00  0.00    +0.022 C 
ATOM     10  C   UNL     1      -1.911   2.386   1.708  0.00  0.00    +0.105 C 
ATOM     11  N   UNL     1      -0.785   1.518   1.341  0.00  0.00    -0.328 N 
ATOM     12  C   UNL     1      -1.212   0.453   0.425  0.00  0.00    +0.105 C 
ATOM     13  C   UNL     1      -1.743   1.073  -0.869  0.00  0.00    +0.022 C 
ENDBRANCH   1  11
BRANCH   6  14
ATOM     14  N   UNL     1       0.551   3.201   3.134  0.00  0.00    -0.280 N 
ATOM     15  C   UNL     1       0.705   4.058   4.163  0.00  0.00    +0.251 C 
ATOM     16  O   UNL     1       0.860   3.632   5.291  0.00  0.00    -0.270 OA
ATOM     17  H   UNL     1       0.480   3.539   2.228  0.00  0.00    +0.155 HD
BRANCH  15  18
ATOM     18  C   UNL     1       0.684   5.516   3.920  0.00  0.00    +0.067 A 
ATOM     19  C   UNL     1      -0.403   6.103   3.270  0.00  0.00    +0.015 A 
ATOM     20  C   UNL     1      -0.418   7.465   3.050  0.00  0.00    +0.001 A 
ATOM     21  C   UNL     1       0.645   8.247   3.464  0.00  0.00    +0.002 A 
ATOM     22  C   UNL     1       1.728   7.671   4.104  0.00  0.00    +0.033 A 
ATOM     23  C   UNL     1       1.754   6.311   4.334  0.00  0.00    +0.138 A 
BRANCH  23  24
ATOM     24  N   UNL     1       2.913   5.696   5.019  0.00  0.00    +0.057 N 
ATOM     25  O   UNL     1       3.793   6.402   5.479  0.00  0.00    -0.126 OA
ATOM     26  O   UNL     1       2.988   4.485   5.121  0.00  0.00    -0.126 OA
ENDBRANCH  23  24
ENDBRANCH  15  18
ENDBRANCH   6  14
TORSDOF 4
