REMARK  Name = ZINC39370722
REMARK  6 active torsions:
REMARK  status: ('A' for Active; 'I' for Inactive)
REMARK    1  A    between atoms: C_1  and  C_2
REMARK    2  A    between atoms: C_2  and  C_3
REMARK    3  A    between atoms: C_2  and  C_4
REMARK    4  A    between atoms: C_2  and  C_5
REMARK    5  A    between atoms: C_8  and  S_11
REMARK    6  A    between atoms: S_11  and  N_14
REMARK                            x       y       z     vdW  Elec       q    Type
REMARK                         _______ _______ _______ _____ _____    ______ ____
ROOT
ATOM      1  S   UNL     1       2.837  -1.944  -4.960  0.00  0.00    +0.078 S 
ATOM      2  O   UNL     1       4.253  -1.949  -4.841  0.00  0.00    -0.148 OA
ATOM      3  O   UNL     1       2.090  -3.127  -5.207  0.00  0.00    -0.148 OA
ENDROOT
BRANCH   1   4
ATOM      4  N   UNL     1       2.467  -0.887  -6.179  0.00  0.00    -0.255 N 
ATOM      5  C   UNL     1       2.893  -1.138  -7.453  0.00  0.00    +0.073 C 
ATOM      6  C   UNL     1       3.530  -2.339  -7.732  0.00  0.00    +0.058 C 
ATOM      7  C   UNL     1       3.971  -2.614  -9.020  0.00  0.00    +0.097 C 
ATOM      8  N   UNL     1       4.595  -3.639  -9.592  0.00  0.00    -0.190 NA
ATOM      9  C   UNL     1       4.775  -3.353 -10.898  0.00  0.00    +0.369 C 
ATOM     10  O   UNL     1       5.316  -4.086 -11.701  0.00  0.00    -0.243 OA
ATOM     11  N   UNL     1       4.255  -2.108 -11.190  0.00  0.00    -0.190 NA
ATOM     12  C   UNL     1       3.751  -1.602 -10.100  0.00  0.00    +0.096 C 
ATOM     13  C   UNL     1       3.073  -0.341  -9.766  0.00  0.00    +0.047 C 
ATOM     14  C   UNL     1       2.662  -0.131  -8.501  0.00  0.00    +0.045 C 
ATOM     15 BR   UNL     1       1.782   1.484  -8.062  0.00  0.00    -0.048 Br
ATOM     16  H   UNL     1       1.948  -0.090  -5.990  0.00  0.00    +0.188 HD
ENDBRANCH   1   4
BRANCH   1  20
ATOM     17  C   UNL     1       1.224  -0.175  -1.118  0.00  0.00    -0.042 A 
ATOM     18  C   UNL     1       0.397  -0.923  -1.935  0.00  0.00    +0.006 A 
ATOM     19  C   UNL     1       0.889  -1.463  -3.109  0.00  0.00    +0.029 A 
ATOM     20  C   UNL     1       2.209  -1.255  -3.465  0.00  0.00    +0.110 A 
ATOM     21  C   UNL     1       3.035  -0.507  -2.648  0.00  0.00    +0.029 A 
ATOM     22  C   UNL     1       2.542   0.037  -1.476  0.00  0.00    +0.006 A 
BRANCH  17  24
ATOM     23  C   UNL     1       0.816   1.937   0.115  0.00  0.00    +0.015 C 
ATOM     24  C   UNL     1       0.687   0.413   0.161  0.00  0.00    -0.013 C 
ATOM     25  C   UNL     1       1.485  -0.131   1.348  0.00  0.00    +0.015 C 
ATOM     26  C   UNL     1      -0.786   0.032   0.319  0.00  0.00    +0.015 C 
ENDBRANCH  17  24
ENDBRANCH   1  20
TORSDOF 3
