REMARK  Name = ZINC17275764
REMARK  11 active torsions:
REMARK  status: ('A' for Active; 'I' for Inactive)
REMARK    1  A    between atoms: C_1  and  C_2
REMARK    2  A    between atoms: C_4  and  O_11
REMARK    3  A    between atoms: C_7  and  N_8
REMARK    4  A    between atoms: O_11  and  C_12
REMARK    5  A    between atoms: C_12  and  C_13
REMARK    6  A    between atoms: N_15  and  C_16
REMARK    7  A    between atoms: C_17  and  C_29
REMARK    8  A    between atoms: C_18  and  C_28
REMARK    9  A    between atoms: C_19  and  C_27
REMARK   10  A    between atoms: N_20  and  C_21
REMARK   11  A    between atoms: C_21  and  C_22
REMARK                            x       y       z     vdW  Elec       q    Type
REMARK                         _______ _______ _______ _____ _____    ______ ____
ROOT
ATOM      1  C   UNL     1      -4.875   2.994  -0.874  0.00  0.00    +0.256 C 
ATOM      2  O   UNL     1      -5.774   2.833  -1.672  0.00  0.00    -0.272 OA
ATOM      3  N   UNL     1      -5.048   3.816   0.179  0.00  0.00    -0.268 N 
ATOM      4  H   UNL     1      -4.320   3.965   0.803  0.00  0.00    +0.156 HD
ENDROOT
BRANCH   3   5
ATOM      5  C   UNL     1      -6.266   4.450   0.371  0.00  0.00    +0.124 A 
ATOM      6  C   UNL     1      -7.520   3.876   0.210  0.00  0.00    +0.095 A 
ATOM      7  C   UNL     1      -8.491   4.931   0.525  0.00  0.00    -0.011 A 
ATOM      8  C   UNL     1      -7.781   6.026   0.842  0.00  0.00    +0.022 A 
ATOM      9  N   UNL     1      -6.445   5.740   0.756  0.00  0.00    -0.324 N 
ATOM     10  C   UNL     1      -8.364   7.359   1.237  0.00  0.00    +0.064 C 
ATOM     11  C   UNL     1      -9.993   4.809   0.497  0.00  0.00    +0.047 C 
BRANCH   6  12
ATOM     12  C   UNL     1      -7.807   2.530  -0.184  0.00  0.00    +0.103 C 
ATOM     13  N   UNL     1      -8.035   1.461  -0.496  0.00  0.00    -0.191 NA
ENDBRANCH   6  12
BRANCH   9  14
ATOM     14  C   UNL     1      -5.364   6.689   1.036  0.00  0.00    +0.197 C 
BRANCH  14  15
ATOM     15  C   UNL     1      -5.020   7.444  -0.222  0.00  0.00    +0.124 A 
ATOM     16  C   UNL     1      -5.581   8.598  -0.625  0.00  0.00    +0.046 A 
ATOM     17  C   UNL     1      -4.963   8.949  -1.846  0.00  0.00    +0.041 A 
ATOM     18  C   UNL     1      -4.067   7.984  -2.121  0.00  0.00    +0.195 A 
ATOM     19  O   UNL     1      -4.106   7.075  -1.134  0.00  0.00    -0.466 OA
ENDBRANCH  14  15
ENDBRANCH   9  14
ENDBRANCH   3   5
BRANCH   1  20
ATOM     20  C   UNL     1      -3.563   2.274  -1.061  0.00  0.00    +0.324 C 
BRANCH  20  21
ATOM     21  O   UNL     1      -3.626   1.469  -2.240  0.00  0.00    -0.483 OA
BRANCH  21  25
ATOM     22  C   UNL     1      -1.369  -1.658  -5.232  0.00  0.00    +0.046 C 
ATOM     23  C   UNL     1      -1.379  -0.785  -4.003  0.00  0.00    -0.017 A 
ATOM     24  C   UNL     1      -2.508  -0.054  -3.685  0.00  0.00    +0.051 A 
ATOM     25  C   UNL     1      -2.517   0.749  -2.554  0.00  0.00    +0.122 A 
ATOM     26  C   UNL     1      -1.393   0.813  -1.743  0.00  0.00    +0.048 A 
ATOM     27  C   UNL     1      -0.266   0.085  -2.068  0.00  0.00    +0.036 A 
ATOM     28  C   UNL     1      -0.259  -0.716  -3.196  0.00  0.00    +0.129 A 
BRANCH  28  29
ATOM     29  N   UNL     1       0.948  -1.500  -3.538  0.00  0.00    +0.057 N 
ATOM     30  O   UNL     1       0.836  -2.627  -3.986  0.00  0.00    -0.126 OA
ATOM     31  O   UNL     1       2.055  -1.018  -3.373  0.00  0.00    -0.126 OA
ENDBRANCH  28  29
ENDBRANCH  21  25
ENDBRANCH  20  21
ENDBRANCH   1  20
TORSDOF 8
