REMARK  Name = ZINC13363193
REMARK  11 active torsions:
REMARK  status: ('A' for Active; 'I' for Inactive)
REMARK    1  A    between atoms: C_1  and  C_2
REMARK    2  A    between atoms: C_2  and  O_3
REMARK    3  A    between atoms: O_3  and  C_4
REMARK    4  A    between atoms: C_4  and  C_5
REMARK    5  A    between atoms: C_5  and  C_6
REMARK    6  A    between atoms: C_6  and  N_7
REMARK    7  A    between atoms: C_20  and  S_21
REMARK    8  A    between atoms: S_21  and  C_22
REMARK    9  A    between atoms: C_22  and  C_23
REMARK   10  A    between atoms: N_25  and  C_26
REMARK   11  A    between atoms: C_31  and  C_32
REMARK                            x       y       z     vdW  Elec       q    Type
REMARK                         _______ _______ _______ _____ _____    ______ ____
ROOT
ATOM      1  N   UNL     1       0.918   0.565   6.233  0.00  0.00    -0.277 N 
ATOM      2  C   UNL     1      -0.019   1.220   6.947  0.00  0.00    +0.263 A 
ATOM      3  O   UNL     1       0.014   1.215   8.163  0.00  0.00    -0.267 OA
ATOM      4  C   UNL     1      -1.091   1.934   6.229  0.00  0.00    +0.064 A 
ATOM      5  C   UNL     1      -2.091   2.619   6.917  0.00  0.00    +0.015 A 
ATOM      6  C   UNL     1      -3.076   3.276   6.210  0.00  0.00    +0.001 A 
ATOM      7  C   UNL     1      -3.076   3.256   4.824  0.00  0.00    +0.002 A 
ATOM      8  C   UNL     1      -2.091   2.580   4.132  0.00  0.00    +0.027 A 
ATOM      9  C   UNL     1      -1.092   1.915   4.826  0.00  0.00    +0.064 A 
ATOM     10  N   UNL     1      -0.086   1.225   4.152  0.00  0.00    -0.256 N 
ATOM     11  C   UNL     1       0.893   0.569   4.846  0.00  0.00    +0.240 A 
ATOM     12  N   UNL     1       1.704   0.018   3.972  0.00  0.00    -0.109 NA
ATOM     13  N   UNL     1       1.233   0.321   2.689  0.00  0.00    -0.120 NA
ATOM     14  C   UNL     1       0.150   1.047   2.816  0.00  0.00    +0.198 A 
ENDROOT
BRANCH   1  15
ATOM     15  C   UNL     1       1.991  -0.147   6.932  0.00  0.00    +0.130 C 
BRANCH  15  16
ATOM     16  C   UNL     1       3.167   0.804   7.165  0.00  0.00    +0.050 C 
BRANCH  16  17
ATOM     17  C   UNL     1       4.287   0.060   7.895  0.00  0.00    +0.161 C 
BRANCH  17  18
ATOM     18  O   UNL     1       5.385   0.948   8.112  0.00  0.00    -0.380 OA
BRANCH  18  20
ATOM     19  C   UNL     1       7.602   1.387   8.969  0.00  0.00    +0.034 C 
ATOM     20  C   UNL     1       6.491   0.350   8.792  0.00  0.00    +0.156 C 
ENDBRANCH  18  20
ENDBRANCH  17  18
ENDBRANCH  16  17
ENDBRANCH  15  16
ENDBRANCH   1  15
BRANCH  14  21
ATOM     21  S   UNL     1      -0.827   1.688   1.497  0.00  0.00    -0.076 S 
BRANCH  21  22
ATOM     22  C   UNL     1       0.018   1.107   0.001  0.00  0.00    +0.173 C 
BRANCH  22  23
ATOM     23  C   UNL     1      -0.724   1.592  -1.217  0.00  0.00    +0.228 C 
ATOM     24  O   UNL     1      -1.726   2.264  -1.089  0.00  0.00    -0.275 OA
ATOM     25  N   UNL     1      -0.276   1.280  -2.449  0.00  0.00    -0.284 N 
ATOM     26  H   UNL     1       0.559   0.798  -2.553  0.00  0.00    +0.155 HD
BRANCH  25  27
ATOM     27  C   UNL     1      -1.012   1.648  -3.572  0.00  0.00    +0.048 A 
ATOM     28  C   UNL     1      -1.713   2.846  -3.584  0.00  0.00    +0.024 A 
ATOM     29  C   UNL     1      -2.438   3.212  -4.701  0.00  0.00    +0.002 A 
ATOM     30  C   UNL     1      -2.480   2.385  -5.812  0.00  0.00    +0.001 A 
ATOM     31  C   UNL     1      -1.795   1.190  -5.816  0.00  0.00    +0.017 A 
ATOM     32  C   UNL     1      -1.053   0.808  -4.695  0.00  0.00    +0.084 A 
BRANCH  32  33
ATOM     33  C   UNL     1      -0.318  -0.469  -4.693  0.00  0.00    +0.388 C 
ATOM     34  O   UNL     1       0.245  -0.844  -3.684  0.00  0.00    -0.241 OA
ATOM     35  O   UNL     1      -0.270  -1.222  -5.810  0.00  0.00    -0.241 OA
ENDBRANCH  32  33
ENDBRANCH  25  27
ENDBRANCH  22  23
ENDBRANCH  21  22
ENDBRANCH  14  21
TORSDOF 10
