REMARK  Name = ZINC17329900
REMARK  11 active torsions:
REMARK  status: ('A' for Active; 'I' for Inactive)
REMARK    1  A    between atoms: C_1  and  S_2
REMARK    2  A    between atoms: S_2  and  C_3
REMARK    3  A    between atoms: C_3  and  C_4
REMARK    4  A    between atoms: C_4  and  C_5
REMARK    5  A    between atoms: C_5  and  C_7
REMARK    6  A    between atoms: C_5  and  N_22
REMARK    7  A    between atoms: N_9  and  N_10
REMARK    8  A    between atoms: C_11  and  C_13
REMARK    9  A    between atoms: C_17  and  N_19
REMARK   10  A    between atoms: N_22  and  S_23
REMARK   11  A    between atoms: S_23  and  C_26
REMARK                            x       y       z     vdW  Elec       q    Type
REMARK                         _______ _______ _______ _____ _____    ______ ____
ROOT
ATOM      1  C   UNL     1      -9.885   0.953  -0.037  0.00  0.00    +0.164 C 
ENDROOT
BRANCH   1   2
ATOM      2  C   UNL     1      -8.554   1.657  -0.105  0.00  0.00    +0.248 C 
ATOM      3  O   UNL     1      -8.506   2.869  -0.073  0.00  0.00    -0.273 OA
ATOM      4  N   UNL     1      -7.417   0.940  -0.201  0.00  0.00    -0.233 N 
ATOM      5  H   UNL     1      -7.455  -0.029  -0.226  0.00  0.00    +0.173 HD
BRANCH   4   6
ATOM      6  N   UNL     1      -6.179   1.595  -0.264  0.00  0.00    -0.230 N 
ATOM      7  C   UNL     1      -5.042   0.878  -0.359  0.00  0.00    +0.260 C 
ATOM      8  O   UNL     1      -5.090  -0.336  -0.391  0.00  0.00    -0.269 OA
ATOM      9  H   UNL     1      -6.141   2.564  -0.238  0.00  0.00    +0.173 HD
BRANCH   7  10
ATOM     10  C   UNL     1      -3.736   1.569  -0.426  0.00  0.00    +0.040 A 
ATOM     11  C   UNL     1      -3.678   2.963  -0.389  0.00  0.00    +0.013 A 
ATOM     12  C   UNL     1      -2.457   3.601  -0.451  0.00  0.00    +0.003 A 
ATOM     13  C   UNL     1      -1.291   2.862  -0.544  0.00  0.00    +0.033 A 
ATOM     14  C   UNL     1      -1.342   1.480  -0.586  0.00  0.00    +0.127 A 
ATOM     15  C   UNL     1      -2.557   0.830  -0.525  0.00  0.00    +0.045 A 
BRANCH  14  16
ATOM     16  N   UNL     1      -0.089   0.698  -0.691  0.00  0.00    +0.056 N 
ATOM     17  O   UNL     1      -0.133  -0.519  -0.724  0.00  0.00    -0.126 OA
ATOM     18  O   UNL     1       0.984   1.271  -0.750  0.00  0.00    -0.126 OA
ENDBRANCH  14  16
ENDBRANCH   7  10
ENDBRANCH   4   6
ENDBRANCH   1   2
BRANCH   1  19
ATOM     19  N   UNL     1     -10.958   1.946   0.062  0.00  0.00    -0.178 NA
ATOM     20  H   UNL     1     -10.885   2.788  -0.414  0.00  0.00    +0.149 HD
BRANCH  19  21
ATOM     21  S   UNL     1     -12.294   1.630   0.988  0.00  0.00    +0.059 S 
ATOM     22  O   UNL     1     -13.131   2.775   0.896  0.00  0.00    -0.153 OA
ATOM     23  O   UNL     1     -12.740   0.330   0.627  0.00  0.00    -0.153 OA
BRANCH  21  24
ATOM     24  C   UNL     1     -11.757   1.532   2.663  0.00  0.00    +0.105 A 
ATOM     25  C   UNL     1     -11.364   0.317   3.192  0.00  0.00    +0.030 A 
ATOM     26  C   UNL     1     -10.937   0.240   4.504  0.00  0.00    +0.022 A 
ATOM     27  C   UNL     1     -10.914   1.378   5.292  0.00  0.00    +0.041 A 
ATOM     28  C   UNL     1     -11.313   2.592   4.763  0.00  0.00    +0.022 A 
ATOM     29  C   UNL     1     -11.734   2.669   3.449  0.00  0.00    +0.030 A 
ATOM     30 CL   UNL     1     -10.384   1.281   6.942  0.00  0.00    -0.084 Cl
ENDBRANCH  21  24
ENDBRANCH  19  21
ENDBRANCH   1  19
BRANCH   1  31
ATOM     31  C   UNL     1     -10.082   0.113  -1.301  0.00  0.00    +0.040 C 
BRANCH  31  32
ATOM     32  C   UNL     1     -10.048   1.024  -2.529  0.00  0.00    +0.071 C 
BRANCH  32  34
ATOM     33  C   UNL     1     -10.348   1.263  -5.362  0.00  0.00    +0.084 C 
ATOM     34  S   UNL     1     -10.428   0.053  -4.013  0.00  0.00    -0.164 S 
ENDBRANCH  32  34
ENDBRANCH  31  32
ENDBRANCH   1  31
TORSDOF 10
