REMARK  Name = ZINC10052258
REMARK  9 active torsions:
REMARK  status: ('A' for Active; 'I' for Inactive)
REMARK    1  A    between atoms: C_1  and  C_2
REMARK    2  A    between atoms: C_2  and  C_3
REMARK    3  A    between atoms: C_3  and  C_4
REMARK    4  A    between atoms: C_4  and  N_5
REMARK    5  A    between atoms: C_18  and  S_19
REMARK    6  A    between atoms: S_19  and  C_20
REMARK    7  A    between atoms: C_20  and  C_21
REMARK    8  A    between atoms: N_23  and  N_24
REMARK    9  A    between atoms: C_25  and  C_27
REMARK                            x       y       z     vdW  Elec       q    Type
REMARK                         _______ _______ _______ _____ _____    ______ ____
ROOT
ATOM      1  N   UNL     1      -0.675   1.545   3.712  0.00  0.00    -0.277 N 
ATOM      2  C   UNL     1      -0.317   2.724   4.260  0.00  0.00    +0.263 A 
ATOM      3  O   UNL     1       0.568   3.395   3.762  0.00  0.00    -0.267 OA
ATOM      4  C   UNL     1      -1.020   3.189   5.469  0.00  0.00    +0.064 A 
ATOM      5  C   UNL     1      -0.696   4.402   6.074  0.00  0.00    +0.015 A 
ATOM      6  C   UNL     1      -1.373   4.801   7.207  0.00  0.00    +0.001 A 
ATOM      7  C   UNL     1      -2.371   4.002   7.745  0.00  0.00    +0.002 A 
ATOM      8  C   UNL     1      -2.701   2.798   7.154  0.00  0.00    +0.027 A 
ATOM      9  C   UNL     1      -2.030   2.382   6.014  0.00  0.00    +0.064 A 
ATOM     10  N   UNL     1      -2.344   1.172   5.399  0.00  0.00    -0.256 N 
ATOM     11  C   UNL     1      -1.677   0.770   4.274  0.00  0.00    +0.240 A 
ATOM     12  N   UNL     1      -2.170  -0.393   3.910  0.00  0.00    -0.109 NA
ATOM     13  N   UNL     1      -3.174  -0.745   4.820  0.00  0.00    -0.120 NA
ATOM     14  C   UNL     1      -3.266   0.210   5.712  0.00  0.00    +0.198 A 
ENDROOT
BRANCH   1  15
ATOM     15  C   UNL     1       0.011   1.072   2.506  0.00  0.00    +0.128 C 
BRANCH  15  16
ATOM     16  C   UNL     1      -0.729   1.579   1.267  0.00  0.00    +0.021 C 
BRANCH  16  18
ATOM     17  C   UNL     1      -0.753   1.593  -1.232  0.00  0.00    +0.004 C 
ATOM     18  C   UNL     1      -0.013   1.086   0.008  0.00  0.00    -0.002 C 
ENDBRANCH  16  18
ENDBRANCH  15  16
ENDBRANCH   1  15
BRANCH  14  19
ATOM     19  S   UNL     1      -4.382   0.249   7.075  0.00  0.00    -0.076 S 
BRANCH  19  20
ATOM     20  C   UNL     1      -5.316  -1.298   6.923  0.00  0.00    +0.174 C 
BRANCH  20  21
ATOM     21  C   UNL     1      -6.320  -1.392   8.043  0.00  0.00    +0.239 C 
ATOM     22  O   UNL     1      -6.398  -0.502   8.863  0.00  0.00    -0.273 OA
ATOM     23  N   UNL     1      -7.131  -2.465   8.133  0.00  0.00    -0.233 N 
ATOM     24  H   UNL     1      -7.069  -3.176   7.477  0.00  0.00    +0.173 HD
BRANCH  23  25
ATOM     25  N   UNL     1      -8.064  -2.552   9.174  0.00  0.00    -0.230 N 
ATOM     26  C   UNL     1      -8.876  -3.624   9.264  0.00  0.00    +0.260 C 
ATOM     27  O   UNL     1      -8.797  -4.516   8.442  0.00  0.00    -0.269 OA
ATOM     28  H   UNL     1      -8.126  -1.840   9.831  0.00  0.00    +0.173 HD
BRANCH  26  29
ATOM     29  C   UNL     1      -9.860  -3.716  10.363  0.00  0.00    +0.038 A 
ATOM     30  C   UNL     1      -9.948  -2.696  11.312  0.00  0.00    +0.014 A 
ATOM     31  C   UNL     1     -10.872  -2.784  12.331  0.00  0.00    +0.021 A 
ATOM     32  C   UNL     1     -11.704  -3.888  12.422  0.00  0.00    +0.041 A 
ATOM     33  C   UNL     1     -11.618  -4.906  11.486  0.00  0.00    +0.021 A 
ATOM     34  C   UNL     1     -10.701  -4.826  10.459  0.00  0.00    +0.014 A 
ATOM     35 CL   UNL     1     -12.861  -3.996  13.712  0.00  0.00    -0.084 Cl
ENDBRANCH  26  29
ENDBRANCH  23  25
ENDBRANCH  20  21
ENDBRANCH  19  20
ENDBRANCH  14  19
TORSDOF 8
