REMARK  Name = ZINC20877992
REMARK  5 active torsions:
REMARK  status: ('A' for Active; 'I' for Inactive)
REMARK    1  A    between atoms: C_1  and  C_2
REMARK    2  A    between atoms: C_4  and  C_9
REMARK    3  A    between atoms: C_12  and  C_14
REMARK    4  A    between atoms: C_14  and  N_15
REMARK    5  A    between atoms: N_15  and  N_16
REMARK                            x       y       z     vdW  Elec       q    Type
REMARK                         _______ _______ _______ _____ _____    ______ ____
ROOT
ATOM      1  C   UNL     1      -3.654   5.640  -0.663  0.00  0.00    +0.135 A 
ATOM      2  C   UNL     1      -3.684   5.659   0.696  0.00  0.00    +0.050 A 
ATOM      3  C   UNL     1      -2.591   4.885   1.136  0.00  0.00    +0.047 A 
ATOM      4  C   UNL     1      -1.951   4.444   0.036  0.00  0.00    +0.124 A 
ATOM      5  O   UNL     1      -2.598   4.900  -1.050  0.00  0.00    -0.458 OA
ENDROOT
BRANCH   1   9
ATOM      6  C   UNL     1      -5.213   6.741  -5.274  0.00  0.00    +0.045 C 
ATOM      7  C   UNL     1      -5.369   6.848  -3.779  0.00  0.00    -0.036 A 
ATOM      8  C   UNL     1      -4.465   6.221  -2.946  0.00  0.00    +0.016 A 
ATOM      9  C   UNL     1      -4.615   6.315  -1.561  0.00  0.00    +0.018 A 
ATOM     10  C   UNL     1      -5.672   7.055  -1.028  0.00  0.00    +0.012 A 
ATOM     11  C   UNL     1      -6.565   7.683  -1.871  0.00  0.00    +0.016 A 
ATOM     12  C   UNL     1      -6.415   7.580  -3.244  0.00  0.00    +0.021 A 
ATOM     13 BR   UNL     1      -7.644   8.443  -4.393  0.00  0.00    -0.050 Br
ENDBRANCH   1   9
BRANCH   4  14
ATOM     14  C   UNL     1      -0.718   3.578   0.025  0.00  0.00    +0.196 C 
BRANCH  14  15
ATOM     15  N   UNL     1      -1.113   2.163   0.019  0.00  0.00    -0.257 N 
ATOM     16  H   UNL     1      -2.178   1.890   0.023  0.00  0.00    +0.169 HD
BRANCH  15  17
ATOM     17  N   UNL     1      -0.016   1.349   0.009  0.00  0.00    -0.129 N 
ATOM     18  C   UNL     1       0.002  -0.004   0.002  0.00  0.00    +0.251 A 
ATOM     19  N   UNL     1       1.264  -0.374  -0.012  0.00  0.00    -0.091 NA
ATOM     20  N   UNL     1       2.034   0.654  -0.014  0.00  0.00    -0.020 NA
ATOM     21  N   UNL     1       1.335   1.737  -0.001  0.00  0.00    -0.024 NA
ATOM     22  N   UNL     1      -1.100  -0.841   0.008  0.00  0.00    -0.325 N 
ATOM     23  H   UNL     1      -0.962  -1.932   0.001  0.00  0.00    +0.145 HD
ATOM     24  H   UNL     1      -2.114  -0.415   0.020  0.00  0.00    +0.145 HD
ENDBRANCH  15  17
ENDBRANCH  14  15
ENDBRANCH   4  14
TORSDOF 4
