REMARK  Name = ZINC03373268
REMARK  10 active torsions:
REMARK  status: ('A' for Active; 'I' for Inactive)
REMARK    1  A    between atoms: C_1  and  C_2
REMARK    2  A    between atoms: C_2  and  N_3
REMARK    3  A    between atoms: N_3  and  C_4
REMARK    4  A    between atoms: N_3  and  S_10
REMARK    5  A    between atoms: S_10  and  C_13
REMARK    6  A    between atoms: C_16  and  O_19
REMARK    7  A    between atoms: O_19  and  C_20
REMARK    8  A    between atoms: C_20  and  C_21
REMARK    9  A    between atoms: N_23  and  C_24
REMARK   10  A    between atoms: C_25  and  C_32
REMARK                            x       y       z     vdW  Elec       q    Type
REMARK                         _______ _______ _______ _____ _____    ______ ____
ROOT
ATOM      1  O   UNL     1       8.009   2.783   3.445  0.00  0.00    -0.483 OA
ENDROOT
BRANCH   1   5
ATOM      2  C   UNL     1       5.859   0.859   0.496  0.00  0.00    +0.109 A 
ATOM      3  C   UNL     1       5.527   2.150   0.861  0.00  0.00    +0.032 A 
ATOM      4  C   UNL     1       6.242   2.795   1.852  0.00  0.00    +0.047 A 
ATOM      5  C   UNL     1       7.301   2.149   2.473  0.00  0.00    +0.121 A 
ATOM      6  C   UNL     1       7.636   0.855   2.102  0.00  0.00    +0.047 A 
ATOM      7  C   UNL     1       6.915   0.213   1.114  0.00  0.00    +0.032 A 
BRANCH   2   8
ATOM      8  S   UNL     1       4.941   0.036  -0.763  0.00  0.00    +0.075 S 
ATOM      9  O   UNL     1       5.840  -0.857  -1.404  0.00  0.00    -0.150 OA
ATOM     10  O   UNL     1       4.232   1.044  -1.472  0.00  0.00    -0.150 OA
BRANCH   8  11
ATOM     11  N   UNL     1       3.803  -0.899  -0.007  0.00  0.00    -0.203 N 
BRANCH  11  12
ATOM     12  C   UNL     1       2.535  -0.377   0.261  0.00  0.00    +0.051 A 
ATOM     13  C   UNL     1       1.443  -1.228   0.383  0.00  0.00    +0.025 A 
ATOM     14  C   UNL     1       0.191  -0.709   0.646  0.00  0.00    +0.002 A 
ATOM     15  C   UNL     1       0.023   0.657   0.789  0.00  0.00    +0.000 A 
ATOM     16  C   UNL     1       1.108   1.506   0.668  0.00  0.00    +0.002 A 
ATOM     17  C   UNL     1       2.363   0.994   0.405  0.00  0.00    +0.025 A 
ENDBRANCH  11  12
BRANCH  11  19
ATOM     18  C   UNL     1       3.659  -3.236  -0.713  0.00  0.00    +0.026 C 
ATOM     19  C   UNL     1       4.125  -2.274   0.382  0.00  0.00    +0.128 C 
ENDBRANCH  11  19
ENDBRANCH   8  11
ENDBRANCH   2   8
ENDBRANCH   1   5
BRANCH   1  20
ATOM     20  C   UNL     1       7.608   4.114   3.776  0.00  0.00    +0.324 C 
BRANCH  20  21
ATOM     21  C   UNL     1       8.502   4.652   4.864  0.00  0.00    +0.255 C 
ATOM     22  O   UNL     1       9.394   3.963   5.311  0.00  0.00    -0.272 OA
ATOM     23  N   UNL     1       8.309   5.898   5.340  0.00  0.00    -0.277 N 
ATOM     24  H   UNL     1       7.596   6.449   4.982  0.00  0.00    +0.155 HD
BRANCH  23  25
ATOM     25  C   UNL     1       9.131   6.393   6.341  0.00  0.00    +0.084 A 
ATOM     26  C   UNL     1       9.095   7.636   6.948  0.00  0.00    +0.068 A 
ATOM     27  C   UNL     1      10.082   7.910   7.991  0.00  0.00    -0.023 A 
ATOM     28  C   UNL     1      10.940   6.904   8.243  0.00  0.00    -0.004 A 
ATOM     29  S   UNL     1      10.457   5.608   7.130  0.00  0.00    -0.077 S 
ATOM     30  C   UNL     1      11.925   7.261   9.324  0.00  0.00    +0.043 C 
ATOM     31  C   UNL     1      11.301   8.484  10.031  0.00  0.00    +0.010 C 
ATOM     32  C   UNL     1      10.426   9.082   8.911  0.00  0.00    +0.037 C 
BRANCH  26  33
ATOM     33  C   UNL     1       8.099   8.641   6.562  0.00  0.00    +0.244 C 
ATOM     34  O   UNL     1       7.024   8.683   7.131  0.00  0.00    -0.270 OA
ATOM     35  N   UNL     1       8.375   9.518   5.577  0.00  0.00    -0.325 N 
ATOM     36  H   UNL     1       9.232   9.485   5.123  0.00  0.00    +0.145 HD
ATOM     37  H   UNL     1       7.716  10.183   5.321  0.00  0.00    +0.145 HD
ENDBRANCH  26  33
ENDBRANCH  23  25
ENDBRANCH  20  21
ENDBRANCH   1  20
TORSDOF 9
