REMARK  Name = ZINC06125680
REMARK  4 active torsions:
REMARK  status: ('A' for Active; 'I' for Inactive)
REMARK    1  A    between atoms: C_11  and  N_20
REMARK    2  A    between atoms: C_13  and  N_50
REMARK    3  A    between atoms: N_20  and  S_21
REMARK    4  A    between atoms: S_21  and  C_24
REMARK                            x       y       z     vdW  Elec       q    Type
REMARK                         _______ _______ _______ _____ _____    ______ ____
ROOT
ATOM      1  C   UNL     1      -3.907   9.297  -1.800  0.00  0.00    +0.001 A 
ATOM      2  C   UNL     1      -4.042   9.737  -3.085  0.00  0.00    +0.008 A 
ATOM      3  C   UNL     1      -3.280   9.126  -4.093  0.00  0.00    -0.017 A 
ATOM      4  C   UNL     1      -3.327   9.487  -5.450  0.00  0.00    +0.008 A 
ATOM      5  C   UNL     1      -2.535   8.816  -6.337  0.00  0.00    +0.001 A 
ATOM      6  C   UNL     1      -1.680   7.784  -5.943  0.00  0.00    +0.003 A 
ATOM      7  C   UNL     1      -1.611   7.409  -4.636  0.00  0.00    -0.051 A 
ATOM      8  C   UNL     1      -2.412   8.084  -3.721  0.00  0.00    -0.012 A 
ATOM      9  C   UNL     1      -2.286   7.645  -2.407  0.00  0.00    -0.022 A 
ATOM     10  C   UNL     1      -3.039   8.259  -1.453  0.00  0.00    +0.006 A 
ATOM     11  C   UNL     1      -1.273   6.526  -2.400  0.00  0.00    +0.098 C 
ATOM     12  C   UNL     1      -0.828   6.370  -3.871  0.00  0.00    -0.013 C 
ENDROOT
BRANCH  12  18
ATOM     13  C   UNL     1       0.897   8.068  -3.981  0.00  0.00    -0.049 C 
ATOM     14  C   UNL     1       2.411   8.285  -4.053  0.00  0.00    +0.141 C 
ATOM     15  O   UNL     1       2.924   7.645  -5.224  0.00  0.00    -0.383 OA
ATOM     16  C   UNL     1       2.666   6.239  -5.272  0.00  0.00    +0.141 C 
ATOM     17  C   UNL     1       1.155   6.001  -5.212  0.00  0.00    -0.049 C 
ATOM     18  N   UNL     1       0.627   6.614  -3.975  0.00  0.00    +0.388 N 
ATOM     19  H   UNL     1       1.095   6.191  -3.166  0.00  0.00    -0.081 HD
ENDBRANCH  12  18
BRANCH  11  20
ATOM     20  N   UNL     1      -0.129   6.882  -1.558  0.00  0.00    -0.184 NA
ATOM     21  H   UNL     1       0.598   7.409  -1.925  0.00  0.00    +0.149 HD
BRANCH  20  22
ATOM     22  S   UNL     1      -0.075   6.384   0.020  0.00  0.00    +0.059 S 
ATOM     23  O   UNL     1      -1.333   6.715   0.593  0.00  0.00    -0.153 OA
ATOM     24  O   UNL     1       1.154   6.857   0.554  0.00  0.00    -0.153 OA
BRANCH  22  25
ATOM     25  C   UNL     1       0.025   4.625   0.008  0.00  0.00    +0.105 A 
ATOM     26  C   UNL     1       1.260   4.003  -0.015  0.00  0.00    +0.030 A 
ATOM     27  C   UNL     1       1.339   2.624  -0.024  0.00  0.00    +0.022 A 
ATOM     28  C   UNL     1       0.183   1.864  -0.009  0.00  0.00    +0.041 A 
ATOM     29  C   UNL     1      -1.052   2.487   0.008  0.00  0.00    +0.022 A 
ATOM     30  C   UNL     1      -1.131   3.867   0.022  0.00  0.00    +0.030 A 
ATOM     31 CL   UNL     1       0.282   0.131  -0.021  0.00  0.00    -0.084 Cl
ENDBRANCH  22  25
ENDBRANCH  20  22
ENDBRANCH  11  20
TORSDOF 4
