REMARK  Name = ZINC63695457
REMARK  5 active torsions:
REMARK  status: ('A' for Active; 'I' for Inactive)
REMARK    1  A    between atoms: C_5  and  N_12
REMARK    2  A    between atoms: C_15  and  C_18
REMARK    3  A    between atoms: N_20  and  C_21
REMARK    4  A    between atoms: C_21  and  C_22
REMARK    5  A    between atoms: C_22  and  C_23
REMARK                            x       y       z     vdW  Elec       q    Type
REMARK                         _______ _______ _______ _____ _____    ______ ____
ROOT
ATOM      1  N   UNL     1       5.390   0.768   1.157  0.00  0.00    -0.266 NA
ATOM      2  C   UNL     1       4.582   0.696   2.381  0.00  0.00    +0.089 C 
ATOM      3  C   UNL     1       5.491   0.851   3.603  0.00  0.00    +0.028 C 
ATOM      4  C   UNL     1       6.543  -0.263   3.595  0.00  0.00    +0.077 C 
ATOM      5  C   UNL     1       7.337  -0.195   2.288  0.00  0.00    +0.028 C 
ATOM      6  C   UNL     1       6.375  -0.319   1.105  0.00  0.00    +0.089 C 
ENDROOT
BRANCH   1  11
ATOM      7  C   UNL     1      -0.017   1.404   0.010  0.00  0.00    +0.022 A 
ATOM      8  C   UNL     1       1.108   2.145   0.003  0.00  0.00    +0.029 A 
ATOM      9  C   UNL     1       2.417   1.477  -0.013  0.00  0.00    +0.061 A 
ATOM     10  N   UNL     1       3.639   1.925  -0.023  0.00  0.00    -0.351 N 
ATOM     11  C   UNL     1       4.535   0.762  -0.038  0.00  0.00    +0.252 C 
ATOM     12  N   UNL     1       3.672  -0.426  -0.036  0.00  0.00    -0.351 N 
ATOM     13  C   UNL     1       2.438  -0.012  -0.021  0.00  0.00    +0.063 A 
ATOM     14  C   UNL     1       1.149  -0.715  -0.012  0.00  0.00    +0.047 A 
ATOM     15  C   UNL     1       0.002  -0.004   0.002  0.00  0.00    +0.043 A 
ATOM     16 CL   UNL     1      -1.509  -0.859   0.012  0.00  0.00    -0.083 Cl
ATOM     17  H   UNL     1       3.908   2.857  -0.021  0.00  0.00    +0.163 HD
ATOM     18  H   UNL     1       3.968  -1.350  -0.044  0.00  0.00    +0.163 HD
ENDBRANCH   1  11
BRANCH   4  19
ATOM     19  C   UNL     1       7.478  -0.080   4.763  0.00  0.00    +0.216 C 
ATOM     20  O   UNL     1       7.320   0.848   5.527  0.00  0.00    -0.276 OA
ATOM     21  N   UNL     1       8.489  -0.949   4.958  0.00  0.00    -0.315 N 
ATOM     22  H   UNL     1       8.615  -1.692   4.348  0.00  0.00    +0.149 HD
BRANCH  21  23
ATOM     23  C   UNL     1       9.398  -0.772   6.094  0.00  0.00    +0.108 C 
BRANCH  23  24
ATOM     24  C   UNL     1      10.448  -1.885   6.085  0.00  0.00    +0.049 C 
BRANCH  24  25
ATOM     25  C   UNL     1      11.383  -1.702   7.253  0.00  0.00    -0.072 C 
ATOM     26  C   UNL     1      11.133  -2.361   8.339  0.00  0.00    -0.028 C 
ATOM     27  C   UNL     1      11.965  -2.275   9.585  0.00  0.00    +0.027 C 
ATOM     28  C   UNL     1      13.333  -1.668   9.264  0.00  0.00    +0.004 C 
ATOM     29  C   UNL     1      13.116  -0.385   8.451  0.00  0.00    +0.005 C 
ATOM     30  C   UNL     1      12.549  -0.774   7.082  0.00  0.00    +0.030 C 
ENDBRANCH  24  25
ENDBRANCH  23  24
ENDBRANCH  21  23
ENDBRANCH   4  19
TORSDOF 5
