REMARK  Name = ZINC39659994
REMARK  8 active torsions:
REMARK  status: ('A' for Active; 'I' for Inactive)
REMARK    1  A    between atoms: C_4  and  C_8
REMARK    2  A    between atoms: C_12  and  C_21
REMARK    3  A    between atoms: N_23  and  C_24
REMARK    4  A    between atoms: C_24  and  C_25
REMARK    5  A    between atoms: C_25  and  C_26
REMARK    6  A    between atoms: C_26  and  C_27
REMARK    7  A    between atoms: C_27  and  C_28
REMARK    8  A    between atoms: C_28  and  C_29
REMARK                            x       y       z     vdW  Elec       q    Type
REMARK                         _______ _______ _______ _____ _____    ______ ____
ROOT
ATOM      1  C   UNL     1       3.676  -0.681  -0.046  0.00  0.00    +0.249 C 
ATOM      2  O   UNL     1       4.212  -0.981   1.003  0.00  0.00    -0.270 OA
ATOM      3  N   UNL     1       4.260  -1.003  -1.217  0.00  0.00    -0.296 N 
ATOM      4  C   UNL     1       3.768  -0.719  -2.586  0.00  0.00    +0.121 C 
ATOM      5  C   UNL     1       5.035  -0.340  -3.385  0.00  0.00    +0.100 C 
ATOM      6  C   UNL     1       6.194  -1.002  -2.621  0.00  0.00    -0.004 C 
ATOM      7  C   UNL     1       5.544  -1.715  -1.427  0.00  0.00    +0.115 C 
ATOM      8  C   UNL     1       7.173   0.058  -2.125  0.00  0.00    -0.010 C 
ATOM      9  C   UNL     1       8.346  -0.628  -1.418  0.00  0.00    -0.082 C 
ATOM     10  N   UNL     1       9.015  -1.543  -2.351  0.00  0.00    +0.379 N 
ATOM     11  C   UNL     1       8.093  -2.612  -2.751  0.00  0.00    -0.082 C 
ATOM     12  C   UNL     1       6.910  -2.010  -3.515  0.00  0.00    -0.010 C 
ATOM     13  H   UNL     1       9.309  -1.030  -3.169  0.00  0.00    -0.086 HD
ATOM     14  H   UNL     1       9.823  -1.947  -1.902  0.00  0.00    -0.086 HD
ENDROOT
BRANCH   1  18
ATOM     15  C   UNL     1      -0.038   1.381  -0.023  0.00  0.00    +0.003 A 
ATOM     16  C   UNL     1       1.146   2.096  -0.024  0.00  0.00    +0.021 A 
ATOM     17  C   UNL     1       2.357   1.433  -0.031  0.00  0.00    +0.054 A 
ATOM     18  C   UNL     1       2.385   0.036  -0.038  0.00  0.00    +0.073 A 
ATOM     19  C   UNL     1       1.184  -0.680  -0.037  0.00  0.00    +0.054 A 
ATOM     20  C   UNL     1      -0.019  -0.002  -0.030  0.00  0.00    +0.021 A 
ATOM     21 CL   UNL     1       1.206  -2.416  -0.045  0.00  0.00    -0.083 Cl
ATOM     22 CL   UNL     1       3.842   2.332  -0.033  0.00  0.00    -0.083 Cl
ENDBRANCH   1  18
BRANCH   5  23
ATOM     23  C   UNL     1       5.209   1.156  -3.414  0.00  0.00    +0.218 C 
ATOM     24  O   UNL     1       4.734   1.839  -2.532  0.00  0.00    -0.275 OA
ATOM     25  N   UNL     1       5.893   1.736  -4.421  0.00  0.00    -0.315 N 
ATOM     26  H   UNL     1       6.273   1.190  -5.127  0.00  0.00    +0.149 HD
BRANCH  25  27
ATOM     27  C   UNL     1       6.062   3.191  -4.449  0.00  0.00    +0.104 C 
BRANCH  27  28
ATOM     28  C   UNL     1       6.870   3.587  -5.686  0.00  0.00    +0.019 C 
BRANCH  28  29
ATOM     29  C   UNL     1       7.046   5.107  -5.715  0.00  0.00    +0.002 C 
BRANCH  29  30
ATOM     30  C   UNL     1       7.854   5.503  -6.953  0.00  0.00    +0.011 C 
BRANCH  30  31
ATOM     31  C   UNL     1       8.030   7.022  -6.982  0.00  0.00    +0.125 C 
BRANCH  31  32
ATOM     32  C   UNL     1       8.826   7.412  -8.201  0.00  0.00    +0.356 C 
ATOM     33  O   UNL     1       9.215   6.554  -8.975  0.00  0.00    -0.246 OA
ATOM     34  O   UNL     1       9.080   8.585  -8.414  0.00  0.00    -0.246 OA
ENDBRANCH  31  32
ENDBRANCH  30  31
ENDBRANCH  29  30
ENDBRANCH  28  29
ENDBRANCH  27  28
ENDBRANCH  25  27
ENDBRANCH   5  23
TORSDOF 8
