REMARK  Name = ZINC15654429
REMARK  18 active torsions:
REMARK  status: ('A' for Active; 'I' for Inactive)
REMARK    1  A    between atoms: C_1  and  C_2
REMARK    2  A    between atoms: C_2  and  O_3
REMARK    3  A    between atoms: O_3  and  C_4
REMARK    4  A    between atoms: C_6  and  C_16
REMARK    5  A    between atoms: C_8  and  O_13
REMARK    6  A    between atoms: C_9  and  O_10
REMARK    7  A    between atoms: O_10  and  C_11
REMARK    8  A    between atoms: C_11  and  C_12
REMARK    9  A    between atoms: O_13  and  C_14
REMARK   10  A    between atoms: C_14  and  C_15
REMARK   11  A    between atoms: C_16  and  O_18
REMARK   12  A    between atoms: O_18  and  C_19
REMARK   13  A    between atoms: C_19  and  C_21
REMARK   14  A    between atoms: C_19  and  C_22
REMARK   15  A    between atoms: N_27  and  C_28
REMARK   16  A    between atoms: C_28  and  C_29
REMARK   17  A    between atoms: C_28  and  C_30
REMARK   18  A    between atoms: C_28  and  C_31
REMARK                            x       y       z     vdW  Elec       q    Type
REMARK                         _______ _______ _______ _____ _____    ______ ____
ROOT
ATOM      1  C   UNL     1      -1.124   7.540   1.857  0.00  0.00    +0.340 C 
ATOM      2  O   UNL     1      -2.087   8.132   1.411  0.00  0.00    -0.245 OA
ENDROOT
BRANCH   1   5
ATOM      3  C   UNL     1       0.200   4.029   2.030  0.00  0.00    +0.166 A 
ATOM      4  C   UNL     1       0.098   5.398   2.192  0.00  0.00    +0.064 A 
ATOM      5  C   UNL     1      -1.010   6.080   1.681  0.00  0.00    +0.066 A 
ATOM      6  C   UNL     1      -2.008   5.376   1.002  0.00  0.00    +0.064 A 
ATOM      7  C   UNL     1      -1.898   4.008   0.838  0.00  0.00    +0.166 A 
ATOM      8  C   UNL     1      -0.793   3.332   1.349  0.00  0.00    +0.204 A 
BRANCH   3   9
ATOM      9  O   UNL     1       1.275   3.365   2.532  0.00  0.00    -0.488 OA
BRANCH   9  11
ATOM     10  C   UNL     1       3.382   3.229   3.708  0.00  0.00    +0.048 C 
ATOM     11  C   UNL     1       2.257   4.143   3.220  0.00  0.00    +0.226 C 
ENDBRANCH   9  11
ENDBRANCH   3   9
BRANCH   8  12
ATOM     12  O   UNL     1      -0.688   1.987   1.186  0.00  0.00    -0.485 OA
BRANCH  12  13
ATOM     13  C   UNL     1      -0.019   1.526   0.010  0.00  0.00    +0.226 C 
ATOM     14  C   UNL     1       0.002  -0.004   0.002  0.00  0.00    +0.048 C 
ENDBRANCH  12  13
ENDBRANCH   8  12
BRANCH   7  15
ATOM     15  O   UNL     1      -2.869   3.323   0.178  0.00  0.00    -0.488 OA
BRANCH  15  16
ATOM     16  C   UNL     1      -3.974   4.080  -0.320  0.00  0.00    +0.226 C 
ATOM     17  C   UNL     1      -4.957   3.145  -1.028  0.00  0.00    +0.048 C 
ENDBRANCH  15  16
ENDBRANCH   7  15
ENDBRANCH   1   5
BRANCH   1  18
ATOM     18  O   UNL     1      -0.161   8.217   2.512  0.00  0.00    -0.449 OA
BRANCH  18  19
ATOM     19  C   UNL     1      -0.340   9.652   2.647  0.00  0.00    +0.259 C 
ATOM     20  C   UNL     1      -1.104   9.951   3.938  0.00  0.00    +0.062 C 
BRANCH  19  21
ATOM     21  C   UNL     1       1.008  10.324   2.694  0.00  0.00    +0.261 C 
ATOM     22  O   UNL     1       2.020   9.660   2.620  0.00  0.00    -0.271 OA
ATOM     23  N   UNL     1       1.089  11.664   2.818  0.00  0.00    -0.237 N 
ATOM     24  C   UNL     1       2.295  12.265   2.860  0.00  0.00    +0.306 C 
ATOM     25  O   UNL     1       3.309  11.599   2.786  0.00  0.00    -0.252 OA
ATOM     26  N   UNL     1       2.376  13.604   2.983  0.00  0.00    -0.294 N 
ATOM     27  H   UNL     1       0.280  12.195   2.877  0.00  0.00    +0.159 HD
ATOM     28  H   UNL     1       1.567  14.136   3.042  0.00  0.00    +0.151 HD
BRANCH  26  29
ATOM     29  C   UNL     1       3.687  14.258   3.029  0.00  0.00    +0.028 C 
ATOM     30  C   UNL     1       4.451  13.959   1.738  0.00  0.00    +0.031 C 
ATOM     31  C   UNL     1       3.498  15.769   3.172  0.00  0.00    +0.031 C 
ATOM     32  C   UNL     1       4.480  13.727   4.225  0.00  0.00    +0.031 C 
ENDBRANCH  26  29
ENDBRANCH  19  21
ENDBRANCH  18  19
ENDBRANCH   1  18
TORSDOF 11
