REMARK  Name = ZINC46767265
REMARK  6 active torsions:
REMARK  status: ('A' for Active; 'I' for Inactive)
REMARK    1  A    between atoms: C_3  and  C_6
REMARK    2  A    between atoms: C_9  and  C_24
REMARK    3  A    between atoms: C_12  and  C_14
REMARK    4  A    between atoms: C_14  and  O_15
REMARK    5  A    between atoms: O_15  and  C_16
REMARK    6  A    between atoms: C_16  and  C_18
REMARK                            x       y       z     vdW  Elec       q    Type
REMARK                         _______ _______ _______ _____ _____    ______ ____
ROOT
ATOM      1  C   UNL     1       3.599   0.625  -0.029  0.00  0.00    +0.173 C 
ATOM      2  C   UNL     1       4.148   0.302   1.374  0.00  0.00    +0.090 C 
ATOM      3  C   UNL     1       4.900  -0.996   1.181  0.00  0.00    +0.069 C 
ATOM      4  N   UNL     1       4.819  -1.361  -0.051  0.00  0.00    -0.181 NA
ATOM      5  N   UNL     1       4.083  -0.490  -0.858  0.00  0.00    -0.179 N 
ATOM      6  C   UNL     1       3.852  -0.645  -2.177  0.00  0.00    +0.273 C 
ATOM      7  O   UNL     1       3.195   0.179  -2.778  0.00  0.00    -0.270 OA
ENDROOT
BRANCH   3   8
ATOM      8  C   UNL     1       5.618  -1.729   2.240  0.00  0.00    -0.002 A 
ATOM      9  C   UNL     1       5.633  -1.237   3.547  0.00  0.00    +0.011 A 
ATOM     10  C   UNL     1       6.306  -1.928   4.534  0.00  0.00    +0.020 A 
ATOM     11  C   UNL     1       6.964  -3.107   4.230  0.00  0.00    +0.041 A 
ATOM     12  C   UNL     1       6.953  -3.601   2.936  0.00  0.00    +0.020 A 
ATOM     13  C   UNL     1       6.280  -2.923   1.942  0.00  0.00    +0.011 A 
ATOM     14 CL   UNL     1       7.808  -3.971   5.477  0.00  0.00    -0.084 Cl
ENDBRANCH   3   8
BRANCH   1  17
ATOM     15  C   UNL     1      -0.016   1.341   0.009  0.00  0.00    +0.041 A 
ATOM     16  C   UNL     1       1.331   1.769  -0.001  0.00  0.00    +0.046 A 
ATOM     17  C   UNL     1       2.092   0.660  -0.014  0.00  0.00    +0.128 A 
ATOM     18  O   UNL     1       1.282  -0.411  -0.012  0.00  0.00    -0.466 OA
ATOM     19  C   UNL     1       0.002  -0.004   0.002  0.00  0.00    +0.195 A 
ENDBRANCH   1  17
BRANCH   6  20
ATOM     20  C   UNL     1       4.410  -1.840  -2.905  0.00  0.00    +0.330 C 
BRANCH  20  21
ATOM     21  O   UNL     1       4.032  -1.779  -4.282  0.00  0.00    -0.451 OA
BRANCH  21  22
ATOM     22  C   UNL     1       4.454  -2.781  -5.077  0.00  0.00    +0.360 C 
ATOM     23  O   UNL     1       5.125  -3.682  -4.615  0.00  0.00    -0.243 OA
BRANCH  22  24
ATOM     24  C   UNL     1       4.102  -2.784  -6.510  0.00  0.00    +0.169 A 
ATOM     25  C   UNL     1       4.464  -3.765  -7.465  0.00  0.00    +0.056 A 
ATOM     26  C   UNL     1       3.921  -3.350  -8.633  0.00  0.00    +0.105 A 
ATOM     27  N   UNL     1       3.274  -2.191  -8.385  0.00  0.00    -0.284 N 
ATOM     28  H   UNL     1       2.792  -1.672  -9.048  0.00  0.00    +0.188 HD
ATOM     29  N   UNL     1       3.384  -1.877  -7.144  0.00  0.00    -0.167 NA
ENDBRANCH  22  24
ENDBRANCH  21  22
ENDBRANCH  20  21
ENDBRANCH   6  20
TORSDOF 6
