REMARK  Name = ZINC04694086
REMARK  7 active torsions:
REMARK  status: ('A' for Active; 'I' for Inactive)
REMARK    1  A    between atoms: C_1  and  C_2
REMARK    2  A    between atoms: C_2  and  C_3
REMARK    3  A    between atoms: C_2  and  C_4
REMARK    4  A    between atoms: C_7  and  C_10
REMARK    5  A    between atoms: C_10  and  C_26
REMARK    6  A    between atoms: N_11  and  N_12
REMARK    7  A    between atoms: C_13  and  C_15
REMARK                            x       y       z     vdW  Elec       q    Type
REMARK                         _______ _______ _______ _____ _____    ______ ____
ROOT
ATOM      1  N   UNL     1       0.002  -0.004   0.002  0.00  0.00    -0.204 N 
ATOM      2  C   UNL     1      -1.156  -0.694   0.009  0.00  0.00    +0.276 C 
ATOM      3  O   UNL     1      -2.214  -0.102   0.023  0.00  0.00    -0.270 OA
ATOM      4  H   UNL     1       0.849  -0.478  -0.009  0.00  0.00    +0.177 HD
ENDROOT
BRANCH   2   5
ATOM      5  C   UNL     1      -1.135  -2.201   0.001  0.00  0.00    +0.297 C 
ATOM      6  C   UNL     1      -0.558  -2.703  -1.329  0.00  0.00    +0.283 C 
ATOM      7  O   UNL     1      -0.566  -4.135  -1.308  0.00  0.00    -0.484 OA
ATOM      8  C   UNL     1      -1.709  -4.734  -0.878  0.00  0.00    +0.162 A 
ATOM      9  C   UNL     1      -1.924  -6.075  -1.161  0.00  0.00    +0.049 A 
ATOM     10  C   UNL     1      -3.077  -6.699  -0.726  0.00  0.00    +0.004 A 
ATOM     11  C   UNL     1      -4.021  -5.989  -0.006  0.00  0.00    +0.004 A 
ATOM     12  C   UNL     1      -3.814  -4.652   0.279  0.00  0.00    +0.049 A 
ATOM     13  C   UNL     1      -2.659  -4.020  -0.157  0.00  0.00    +0.163 A 
ATOM     14  O   UNL     1      -2.470  -2.702   0.129  0.00  0.00    -0.472 OA
ENDBRANCH   2   5
BRANCH   1  16
ATOM     15  C   UNL     1       1.098   2.061   0.003  0.00  0.00    +0.063 C 
ATOM     16  N   UNL     1      -0.017   1.397   0.010  0.00  0.00    -0.184 NA
ATOM     17  C   UNL     1       2.413   1.325  -0.014  0.00  0.00    +0.068 C 
BRANCH  15  21
ATOM     18  C   UNL     1       1.040   6.305   0.026  0.00  0.00    -0.045 A 
ATOM     19  C   UNL     1      -0.150   5.600   0.034  0.00  0.00    +0.004 A 
ATOM     20  C   UNL     1      -0.139   4.221   0.026  0.00  0.00    +0.010 A 
ATOM     21  C   UNL     1       1.078   3.535   0.011  0.00  0.00    -0.003 A 
ATOM     22  C   UNL     1       2.276   4.253   0.009  0.00  0.00    +0.010 A 
ATOM     23  C   UNL     1       2.250   5.633   0.011  0.00  0.00    +0.004 A 
BRANCH  18  25
ATOM     24  C   UNL     1       1.746   8.325   1.280  0.00  0.00    +0.012 C 
ATOM     25  C   UNL     1       1.020   7.812   0.035  0.00  0.00    +0.013 C 
ATOM     26  C   UNL     1       1.723   8.338  -1.218  0.00  0.00    +0.012 C 
ENDBRANCH  18  25
ENDBRANCH  15  21
ENDBRANCH   1  16
TORSDOF 4
