REMARK  Name = ZINC09794528
REMARK  9 active torsions:
REMARK  status: ('A' for Active; 'I' for Inactive)
REMARK    1  A    between atoms: C_1  and  C_2
REMARK    2  A    between atoms: C_9  and  C_11
REMARK    3  A    between atoms: N_13  and  N_14
REMARK    4  A    between atoms: N_17  and  C_18
REMARK    5  A    between atoms: C_18  and  C_19
REMARK    6  A    between atoms: C_19  and  C_21
REMARK    7  A    between atoms: C_19  and  N_26
REMARK    8  A    between atoms: N_26  and  C_27
REMARK    9  A    between atoms: N_26  and  C_28
REMARK                            x       y       z     vdW  Elec       q    Type
REMARK                         _______ _______ _______ _____ _____    ______ ____
ROOT
ATOM      1  N   UNL     1       2.122  -7.399   3.127  0.00  0.00    -0.218 N 
ATOM      2  C   UNL     1       1.712  -8.682   3.091  0.00  0.00    +0.316 C 
ATOM      3  O   UNL     1       2.247  -9.512   3.799  0.00  0.00    -0.251 OA
ATOM      4  N   UNL     1       0.707  -9.045   2.269  0.00  0.00    -0.299 N 
ATOM      5  H   UNL     1       2.845  -7.138   3.719  0.00  0.00    +0.174 HD
ATOM      6  H   UNL     1       0.280  -8.382   1.703  0.00  0.00    +0.150 HD
ENDROOT
BRANCH   1   9
ATOM      7  C   UNL     1       1.916  -5.159   2.347  0.00  0.00    +0.267 C 
ATOM      8  O   UNL     1       2.823  -4.831   3.090  0.00  0.00    -0.268 OA
ATOM      9  N   UNL     1       1.505  -6.442   2.311  0.00  0.00    -0.229 N 
ATOM     10  H   UNL     1       0.782  -6.703   1.719  0.00  0.00    +0.173 HD
BRANCH   7  18
ATOM     11  C   UNL     1       0.308   1.310  -1.238  0.00  0.00    +0.008 C 
ATOM     12  C   UNL     1       0.291  -0.212  -1.078  0.00  0.00    -0.009 C 
ATOM     13  C   UNL     1      -1.156  -0.711  -1.107  0.00  0.00    +0.009 C 
ATOM     14  C   UNL     1      -1.148  -2.241  -1.220  0.00  0.00    +0.043 C 
ATOM     15  C   UNL     1      -0.191  -2.788  -0.202  0.00  0.00    -0.006 A 
ATOM     16  C   UNL     1       0.760  -2.088   0.481  0.00  0.00    -0.036 A 
ATOM     17  C   UNL     1       1.536  -2.806   1.379  0.00  0.00    +0.024 A 
ATOM     18  C   UNL     1       1.270  -4.158   1.493  0.00  0.00    +0.076 A 
ATOM     19  S   UNL     1      -0.064  -4.366   0.328  0.00  0.00    -0.088 S 
ATOM     20  C   UNL     1       0.943  -0.591   0.252  0.00  0.00    +0.039 C 
ENDBRANCH   7  18
ENDBRANCH   1   9
BRANCH   4  21
ATOM     21  C   UNL     1       0.261 -10.440   2.229  0.00  0.00    +0.095 C 
BRANCH  21  22
ATOM     22  C   UNL     1      -0.955 -10.560   1.308  0.00  0.00    -0.014 C 
BRANCH  22  23
ATOM     23  C   UNL     1      -0.552 -10.217  -0.103  0.00  0.00    -0.022 A 
ATOM     24  C   UNL     1      -0.722  -9.056  -0.781  0.00  0.00    +0.009 A 
ATOM     25  C   UNL     1      -0.266  -8.968  -2.083  0.00  0.00    +0.008 A 
ATOM     26  C   UNL     1       0.337 -10.045  -2.644  0.00  0.00    +0.045 A 
ATOM     27  S   UNL     1       0.279 -11.233  -1.313  0.00  0.00    -0.103 S 
ENDBRANCH  22  23
BRANCH  22  28
ATOM     28  N   UNL     1      -1.468 -11.936   1.351  0.00  0.00    +0.382 N 
ATOM     29  C   UNL     1      -1.892 -12.258   2.720  0.00  0.00    -0.096 C 
ATOM     30  C   UNL     1      -2.614 -12.060   0.441  0.00  0.00    -0.096 C 
ATOM     31  H   UNL     1      -0.741 -12.575   1.065  0.00  0.00    -0.082 HD
ENDBRANCH  22  28
ENDBRANCH  21  22
ENDBRANCH   4  21
TORSDOF 6
