REMARK  Name = ZINC09349256
REMARK  11 active torsions:
REMARK  status: ('A' for Active; 'I' for Inactive)
REMARK    1  A    between atoms: C_1  and  N_2
REMARK    2  A    between atoms: N_2  and  C_3
REMARK    3  A    between atoms: C_3  and  C_4
REMARK    4  A    between atoms: N_6  and  C_16
REMARK    5  A    between atoms: C_8  and  C_9
REMARK    6  A    between atoms: C_22  and  C_24
REMARK    7  A    between atoms: C_24  and  C_26
REMARK    8  A    between atoms: C_24  and  N_30
REMARK    9  A    between atoms: C_26  and  C_27
REMARK   10  A    between atoms: C_27  and  S_28
REMARK   11  A    between atoms: S_28  and  C_29
REMARK                            x       y       z     vdW  Elec       q    Type
REMARK                         _______ _______ _______ _____ _____    ______ ____
ROOT
ATOM      1  C   UNL     1       1.514   2.055  -0.036  0.00  0.00    +0.016 A 
ATOM      2  C   UNL     1       2.673   1.368  -0.137  0.00  0.00    +0.120 A 
ATOM      3  N   UNL     1       3.689   2.269  -0.173  0.00  0.00    -0.239 N 
ATOM      4  N   UNL     1       3.134   3.552  -0.082  0.00  0.00    -0.166 NA
ATOM      5  C   UNL     1       1.826   3.428   0.000  0.00  0.00    +0.098 A 
ENDROOT
BRANCH   5   6
ATOM      6  C   UNL     1       0.850   4.541   0.113  0.00  0.00    +0.003 A 
ATOM      7  C   UNL     1      -0.338   4.505  -0.615  0.00  0.00    +0.011 A 
ATOM      8  C   UNL     1      -1.244   5.540  -0.504  0.00  0.00    +0.020 A 
ATOM      9  C   UNL     1      -0.970   6.617   0.321  0.00  0.00    +0.041 A 
ATOM     10  C   UNL     1       0.212   6.660   1.042  0.00  0.00    +0.020 A 
ATOM     11  C   UNL     1       1.122   5.628   0.941  0.00  0.00    +0.011 A 
ATOM     12 CL   UNL     1      -2.111   7.919   0.452  0.00  0.00    -0.084 Cl
ENDBRANCH   5   6
BRANCH   3  13
ATOM     13  C   UNL     1       5.053   1.968  -0.277  0.00  0.00    +0.065 A 
ATOM     14  C   UNL     1       5.470   0.646  -0.354  0.00  0.00    +0.028 A 
ATOM     15  C   UNL     1       6.815   0.352  -0.462  0.00  0.00    +0.002 A 
ATOM     16  C   UNL     1       7.748   1.373  -0.482  0.00  0.00    +0.000 A 
ATOM     17  C   UNL     1       7.337   2.691  -0.400  0.00  0.00    +0.002 A 
ATOM     18  C   UNL     1       5.992   2.991  -0.297  0.00  0.00    +0.028 A 
ENDBRANCH   3  13
BRANCH   1  19
ATOM     19  C   UNL     1       0.132   1.457   0.031  0.00  0.00    +0.146 C 
BRANCH  19  21
ATOM     20  C   UNL     1       0.151  -0.808  -1.113  0.00  0.00    +0.132 C 
ATOM     21  N   UNL     1       0.235  -0.002   0.108  0.00  0.00    -0.299 N 
ATOM     22  C   UNL     1       0.405  -0.604   1.302  0.00  0.00    +0.236 C 
ATOM     23  O   UNL     1       0.474   0.063   2.313  0.00  0.00    -0.274 OA
BRANCH  22  24
ATOM     24  C   UNL     1       0.511  -2.105   1.382  0.00  0.00    +0.161 C 
BRANCH  24  25
ATOM     25  N   UNL     1       1.151  -2.483   2.644  0.00  0.00    -0.288 N 
ATOM     26  C   UNL     1       0.587  -2.134   3.817  0.00  0.00    +0.298 C 
ATOM     27  O   UNL     1      -0.453  -1.505   3.828  0.00  0.00    -0.253 OA
ATOM     28  N   UNL     1       1.176  -2.482   4.978  0.00  0.00    -0.313 N 
ATOM     29  H   UNL     1       1.981  -2.985   2.635  0.00  0.00    +0.151 HD
ATOM     30  H   UNL     1       2.006  -2.984   4.970  0.00  0.00    +0.146 HD
ATOM     31  H   UNL     1       0.770  -2.231   5.822  0.00  0.00    +0.146 HD
ENDBRANCH  24  25
BRANCH  24  32
ATOM     32  C   UNL     1      -0.889  -2.719   1.316  0.00  0.00    +0.042 C 
BRANCH  32  33
ATOM     33  C   UNL     1      -0.776  -4.244   1.271  0.00  0.00    +0.071 C 
BRANCH  33  34
ATOM     34  S   UNL     1      -2.436  -4.971   1.193  0.00  0.00    -0.164 S 
ATOM     35  C   UNL     1      -2.129  -6.759   1.146  0.00  0.00    +0.084 C 
ENDBRANCH  33  34
ENDBRANCH  32  33
ENDBRANCH  24  32
ENDBRANCH  22  24
ENDBRANCH  19  21
ENDBRANCH   1  19
TORSDOF 9
