REMARK  Name = ZINC25809453
REMARK  6 active torsions:
REMARK  status: ('A' for Active; 'I' for Inactive)
REMARK    1  A    between atoms: C_2  and  N_26
REMARK    2  A    between atoms: C_4  and  C_11
REMARK    3  A    between atoms: C_11  and  S_12
REMARK    4  A    between atoms: S_12  and  C_13
REMARK    5  A    between atoms: N_18  and  C_19
REMARK    6  A    between atoms: C_19  and  C_20
REMARK                            x       y       z     vdW  Elec       q    Type
REMARK                         _______ _______ _______ _____ _____    ______ ____
ROOT
ATOM      1  C   UNL     1      -2.547   5.501   0.046  0.00  0.00    +0.115 C 
ENDROOT
BRANCH   1   5
ATOM      2  C   UNL     1      -2.493   1.228   0.021  0.00  0.00    +0.042 A 
ATOM      3  C   UNL     1      -1.306   1.936   0.019  0.00  0.00    +0.127 A 
ATOM      4  C   UNL     1      -1.324   3.319   0.032  0.00  0.00    +0.040 A 
ATOM      5  C   UNL     1      -2.528   3.995   0.037  0.00  0.00    +0.007 A 
ATOM      6  C   UNL     1      -3.722   3.286   0.040  0.00  0.00    +0.133 A 
ATOM      7  C   UNL     1      -3.701   1.899   0.030  0.00  0.00    +0.022 A 
ATOM      8  C   UNL     1      -4.990   1.117   0.024  0.00  0.00    +0.202 C 
ATOM      9  O   UNL     1      -6.068   1.978   0.405  0.00  0.00    -0.339 OA
ATOM     10  C   UNL     1      -6.072   3.220  -0.308  0.00  0.00    +0.394 C 
ATOM     11  O   UNL     1      -4.903   3.959   0.055  0.00  0.00    -0.466 OA
BRANCH   3  12
ATOM     12  N   UNL     1      -0.014   1.214   0.009  0.00  0.00    +0.056 N 
ATOM     13  O   UNL     1       0.002  -0.004   0.002  0.00  0.00    -0.126 OA
ATOM     14  O   UNL     1       1.032   1.837   0.002  0.00  0.00    -0.126 OA
ENDBRANCH   3  12
ENDBRANCH   1   5
BRANCH   1  15
ATOM     15  S   UNL     1      -2.544   6.096   1.759  0.00  0.00    -0.092 S 
BRANCH  15  16
ATOM     16  C   UNL     1      -2.567   7.851   1.601  0.00  0.00    +0.160 A 
ATOM     17  N   UNL     1      -2.583   8.592   0.510  0.00  0.00    -0.133 NA
ATOM     18  N   UNL     1      -2.600   9.964   0.614  0.00  0.00    -0.125 NA
ATOM     19  C   UNL     1      -2.600  10.531   1.805  0.00  0.00    +0.182 A 
ATOM     20  S   UNL     1      -2.582   9.102   2.876  0.00  0.00    -0.025 S 
ATOM     21  N   UNL     1      -2.615  11.881   2.137  0.00  0.00    -0.320 N 
ATOM     22  H   UNL     1      -2.612  12.188   3.193  0.00  0.00    +0.148 HD
BRANCH  21  23
ATOM     23  C   UNL     1      -2.634  12.895   1.080  0.00  0.00    +0.135 C 
BRANCH  23  24
ATOM     24  C   UNL     1      -2.648  14.289   1.710  0.00  0.00    +0.135 C 
ATOM     25  C   UNL     1      -2.795  15.372   0.619  0.00  0.00    +0.035 C 
ATOM     26  C   UNL     1      -1.898  16.529   1.114  0.00  0.00    +0.031 C 
ATOM     27  C   UNL     1      -1.316  16.008   2.447  0.00  0.00    +0.160 C 
ATOM     28  O   UNL     1      -1.378  14.569   2.339  0.00  0.00    -0.375 OA
ENDBRANCH  23  24
ENDBRANCH  21  23
ENDBRANCH  15  16
ENDBRANCH   1  15
TORSDOF 6
