REMARK  Name = ZINC57659376
REMARK  6 active torsions:
REMARK  status: ('A' for Active; 'I' for Inactive)
REMARK    1  A    between atoms: C_4  and  O_7
REMARK    2  A    between atoms: O_7  and  C_8
REMARK    3  A    between atoms: C_13  and  N_14
REMARK    4  A    between atoms: C_15  and  C_17
REMARK    5  A    between atoms: C_17  and  N_18
REMARK    6  A    between atoms: C_22  and  N_28
REMARK                            x       y       z     vdW  Elec       q    Type
REMARK                         _______ _______ _______ _____ _____    ______ ____
ROOT
ATOM      1  N   UNL     1       5.929  -1.934   0.113  0.00  0.00    -0.281 N 
ATOM      2  C   UNL     1       7.082  -2.631   0.100  0.00  0.00    +0.237 C 
ATOM      3  O   UNL     1       7.061  -3.841   0.188  0.00  0.00    -0.274 OA
ATOM      4  H   UNL     1       5.948  -0.965   0.100  0.00  0.00    +0.155 HD
ENDROOT
BRANCH   1  10
ATOM      5  C   UNL     1       3.596  -2.081  -0.517  0.00  0.00    +0.150 A 
ATOM      6  C   UNL     1       2.386  -2.758  -0.487  0.00  0.00    +0.048 A 
ATOM      7  C   UNL     1       2.279  -3.951   0.202  0.00  0.00    +0.004 A 
ATOM      8  C   UNL     1       3.375  -4.474   0.863  0.00  0.00    +0.002 A 
ATOM      9  C   UNL     1       4.585  -3.806   0.838  0.00  0.00    +0.027 A 
ATOM     10  C   UNL     1       4.702  -2.611   0.144  0.00  0.00    +0.076 A 
BRANCH   5  11
ATOM     11  O   UNL     1       3.704  -0.907  -1.194  0.00  0.00    -0.454 OA
BRANCH  11  15
ATOM     12  C   UNL     1       0.273   0.723  -2.804  0.00  0.00    +0.000 A 
ATOM     13  C   UNL     1       0.422   0.646  -1.431  0.00  0.00    +0.004 A 
ATOM     14  C   UNL     1       1.570   0.101  -0.890  0.00  0.00    +0.046 A 
ATOM     15  C   UNL     1       2.573  -0.371  -1.724  0.00  0.00    +0.129 A 
ATOM     16  C   UNL     1       2.421  -0.293  -3.101  0.00  0.00    +0.046 A 
ATOM     17  C   UNL     1       1.271   0.254  -3.638  0.00  0.00    +0.004 A 
ENDBRANCH  11  15
ENDBRANCH   5  11
ENDBRANCH   1  10
BRANCH   2  18
ATOM     18  C   UNL     1       8.399  -1.908  -0.024  0.00  0.00    +0.224 C 
BRANCH  18  19
ATOM     19  N   UNL     1       9.494  -2.881  -0.013  0.00  0.00    -0.265 N 
ATOM     20  C   UNL     1      10.167  -3.352   1.113  0.00  0.00    +0.091 A 
ATOM     21  C   UNL     1      10.050  -3.094   2.470  0.00  0.00    +0.032 A 
ATOM     22  C   UNL     1      10.884  -3.734   3.366  0.00  0.00    +0.035 A 
ATOM     23  C   UNL     1      11.835  -4.632   2.912  0.00  0.00    +0.130 A 
ATOM     24  C   UNL     1      11.958  -4.894   1.562  0.00  0.00    +0.081 A 
ATOM     25  C   UNL     1      11.125  -4.256   0.655  0.00  0.00    +0.159 A 
ATOM     26  O   UNL     1      11.014  -4.311  -0.695  0.00  0.00    -0.407 OA
ATOM     27  C   UNL     1      10.030  -3.488  -1.090  0.00  0.00    +0.422 A 
ATOM     28  O   UNL     1       9.679  -3.316  -2.241  0.00  0.00    -0.223 OA
BRANCH  23  29
ATOM     29  N   UNL     1      12.725  -5.313   3.879  0.00  0.00    +0.057 N 
ATOM     30  O   UNL     1      12.620  -5.085   5.061  0.00  0.00    -0.126 OA
ATOM     31  O   UNL     1      13.556  -6.098   3.486  0.00  0.00    -0.126 OA
ENDBRANCH  23  29
ENDBRANCH  18  19
ENDBRANCH   2  18
TORSDOF 6
