REMARK  Name = ZINC10761243
REMARK  9 active torsions:
REMARK  status: ('A' for Active; 'I' for Inactive)
REMARK    1  A    between atoms: C_1  and  C_2
REMARK    2  A    between atoms: N_11  and  C_15
REMARK    3  A    between atoms: C_15  and  C_16
REMARK    4  A    between atoms: C_16  and  O_18
REMARK    5  A    between atoms: O_18  and  C_19
REMARK    6  A    between atoms: C_19  and  C_20
REMARK    7  A    between atoms: N_22  and  N_23
REMARK    8  A    between atoms: C_24  and  C_25
REMARK    9  A    between atoms: C_24  and  C_31
REMARK                            x       y       z     vdW  Elec       q    Type
REMARK                         _______ _______ _______ _____ _____    ______ ____
ROOT
ATOM      1  C   UNL     1      -0.104   3.633   2.015  0.00  0.00    +0.329 C 
ENDROOT
BRANCH   1   2
ATOM      2  C   UNL     1       0.215   2.179   1.784  0.00  0.00    +0.270 C 
ATOM      3  O   UNL     1       1.188   1.680   2.310  0.00  0.00    -0.270 OA
ATOM      4  N   UNL     1      -0.581   1.431   0.994  0.00  0.00    -0.204 N 
ATOM      5  H   UNL     1      -1.357   1.831   0.571  0.00  0.00    +0.177 HD
BRANCH   4   6
ATOM      6  N   UNL     1      -0.284   0.079   0.779  0.00  0.00    -0.179 NA
ATOM      7  C   UNL     1      -1.115  -0.673   0.108  0.00  0.00    +0.096 C 
BRANCH   7   8
ATOM      8  C   UNL     1      -0.741  -2.063  -0.238  0.00  0.00    +0.002 A 
ATOM      9  C   UNL     1      -1.698  -2.939  -0.751  0.00  0.00    +0.010 A 
ATOM     10  C   UNL     1      -1.341  -4.231  -1.077  0.00  0.00    +0.001 A 
ATOM     11  C   UNL     1      -0.041  -4.663  -0.885  0.00  0.00    +0.000 A 
ATOM     12  C   UNL     1       0.911  -3.801  -0.372  0.00  0.00    +0.001 A 
ATOM     13  C   UNL     1       0.569  -2.504  -0.047  0.00  0.00    +0.010 A 
ENDBRANCH   7   8
BRANCH   7  14
ATOM     14  C   UNL     1      -2.430  -0.135  -0.308  0.00  0.00    +0.002 A 
ATOM     15  C   UNL     1      -3.167   0.666   0.565  0.00  0.00    +0.010 A 
ATOM     16  C   UNL     1      -4.389   1.168   0.170  0.00  0.00    +0.001 A 
ATOM     17  C   UNL     1      -4.890   0.871  -1.085  0.00  0.00    +0.000 A 
ATOM     18  C   UNL     1      -4.167   0.072  -1.953  0.00  0.00    +0.001 A 
ATOM     19  C   UNL     1      -2.941  -0.432  -1.572  0.00  0.00    +0.010 A 
ENDBRANCH   7  14
ENDBRANCH   4   6
ENDBRANCH   1   2
BRANCH   1  20
ATOM     20  O   UNL     1       0.894   4.214   2.896  0.00  0.00    -0.454 OA
BRANCH  20  21
ATOM     21  C   UNL     1       0.754   5.513   3.203  0.00  0.00    +0.326 C 
ATOM     22  O   UNL     1      -0.172   6.144   2.752  0.00  0.00    -0.249 OA
BRANCH  21  23
ATOM     23  C   UNL     1       1.752   6.184   4.111  0.00  0.00    +0.238 C 
BRANCH  23  33
ATOM     24  C   UNL     1      -1.472   9.209   3.535  0.00  0.00    +0.010 C 
ATOM     25  C   UNL     1      -0.967   9.943   4.778  0.00  0.00    +0.018 C 
ATOM     26  C   UNL     1      -1.036  11.454   4.541  0.00  0.00    +0.006 C 
ATOM     27  C   UNL     1      -0.511  12.187   5.777  0.00  0.00    +0.000 C 
ATOM     28  C   UNL     1       0.943  11.787   6.031  0.00  0.00    +0.003 C 
ATOM     29  C   UNL     1       1.020  10.277   6.274  0.00  0.00    +0.035 C 
ATOM     30  C   UNL     1       0.475   9.535   5.059  0.00  0.00    +0.115 C 
ATOM     31  C   UNL     1       0.569   8.041   5.268  0.00  0.00    +0.247 C 
ATOM     32  O   UNL     1       0.028   7.386   6.134  0.00  0.00    -0.273 OA
ATOM     33  N   UNL     1       1.381   7.590   4.290  0.00  0.00    -0.213 N 
ATOM     34  C   UNL     1       1.810   8.587   3.507  0.00  0.00    +0.310 C 
ATOM     35  O   UNL     1       2.557   8.430   2.561  0.00  0.00    -0.252 OA
ATOM     36  N   UNL     1       1.319   9.783   3.883  0.00  0.00    -0.285 N 
ATOM     37  H   UNL     1       1.491  10.640   3.462  0.00  0.00    +0.151 HD
ENDBRANCH  23  33
ENDBRANCH  21  23
ENDBRANCH  20  21
ENDBRANCH   1  20
TORSDOF 8
