REMARK  Name = ZINC12804718
REMARK  10 active torsions:
REMARK  status: ('A' for Active; 'I' for Inactive)
REMARK    1  A    between atoms: C_1  and  C_2
REMARK    2  A    between atoms: C_2  and  O_3
REMARK    3  A    between atoms: O_3  and  C_4
REMARK    4  A    between atoms: C_4  and  C_6
REMARK    5  A    between atoms: C_7  and  C_15
REMARK    6  A    between atoms: C_12  and  C_14
REMARK    7  A    between atoms: C_15  and  S_16
REMARK    8  A    between atoms: S_16  and  C_17
REMARK    9  A    between atoms: N_27  and  C_28
REMARK   10  A    between atoms: C_28  and  C_29
REMARK                            x       y       z     vdW  Elec       q    Type
REMARK                         _______ _______ _______ _____ _____    ______ ____
ROOT
ATOM      1  C   UNL     1       0.713   2.040  -0.062  0.00  0.00    +0.173 A 
ATOM      2  N   UNL     1       1.647   2.958  -0.115  0.00  0.00    -0.223 NA
ATOM      3  C   UNL     1       2.959   2.630  -0.168  0.00  0.00    +0.080 A 
ATOM      4  C   UNL     1       3.956   3.608  -0.225  0.00  0.00    +0.048 A 
ATOM      5  C   UNL     1       5.279   3.227  -0.278  0.00  0.00    +0.043 A 
ATOM      6  C   UNL     1       5.633   1.883  -0.275  0.00  0.00    +0.021 A 
ATOM      7  C   UNL     1       4.676   0.908  -0.219  0.00  0.00    +0.017 A 
ATOM      8  C   UNL     1       3.329   1.266  -0.165  0.00  0.00    +0.065 A 
ATOM      9  C   UNL     1       2.262   0.258  -0.104  0.00  0.00    +0.262 A 
ATOM     10  O   UNL     1       2.518  -0.932  -0.099  0.00  0.00    -0.267 OA
ATOM     11  N   UNL     1       0.985   0.701  -0.055  0.00  0.00    -0.285 N 
ATOM     12 CL   UNL     1       6.519   4.441  -0.348  0.00  0.00    -0.083 Cl
ENDROOT
BRANCH   1  13
ATOM     13  S   UNL     1      -0.970   2.556  -0.003  0.00  0.00    -0.082 S 
BRANCH  13  14
ATOM     14  C   UNL     1      -0.750   4.352  -0.035  0.00  0.00    +0.128 C 
BRANCH  14  16
ATOM     15  C   UNL     1      -2.628   5.373   1.202  0.00  0.00    +0.074 C 
ATOM     16  C   UNL     1      -2.098   5.024   0.009  0.00  0.00    +0.034 C 
ATOM     17  N   UNL     1      -2.760   5.277  -1.158  0.00  0.00    -0.272 N 
ATOM     18  C   UNL     1      -3.962   5.864  -1.217  0.00  0.00    +0.304 C 
ATOM     19  O   UNL     1      -4.477   6.042  -2.304  0.00  0.00    -0.253 OA
ATOM     20  N   UNL     1      -4.618   6.269  -0.111  0.00  0.00    -0.292 N 
ATOM     21  C   UNL     1      -3.985   6.047   1.200  0.00  0.00    +0.110 C 
ATOM     22  C   UNL     1      -3.837   7.406   1.888  0.00  0.00    +0.033 C 
ATOM     23  H   UNL     1      -2.339   5.013  -1.990  0.00  0.00    +0.156 HD
ATOM     24  H   UNL     1      -5.487   6.696  -0.177  0.00  0.00    +0.151 HD
BRANCH  15  25
ATOM     25  C   UNL     1      -1.940   5.117   2.411  0.00  0.00    +0.338 C 
ATOM     26  O   UNL     1      -0.917   4.457   2.401  0.00  0.00    -0.245 OA
BRANCH  25  27
ATOM     27  O   UNL     1      -2.418   5.603   3.575  0.00  0.00    -0.462 OA
BRANCH  27  29
ATOM     28  C   UNL     1      -2.363   5.937   5.968  0.00  0.00    +0.048 C 
ATOM     29  C   UNL     1      -1.672   5.306   4.757  0.00  0.00    +0.229 C 
ENDBRANCH  27  29
ENDBRANCH  25  27
ENDBRANCH  15  25
ENDBRANCH  14  16
ENDBRANCH  13  14
ENDBRANCH   1  13
BRANCH  11  30
ATOM     30  C   UNL     1      -0.117  -0.263   0.006  0.00  0.00    +0.159 C 
BRANCH  30  31
ATOM     31  C   UNL     1      -0.563  -0.619  -1.413  0.00  0.00    +0.138 C 
ATOM     32  C   UNL     1      -1.775  -1.583  -1.370  0.00  0.00    +0.035 C 
ATOM     33  C   UNL     1      -2.431  -1.294  -2.748  0.00  0.00    +0.031 C 
ATOM     34  C   UNL     1      -2.149   0.213  -2.935  0.00  0.00    +0.160 C 
ATOM     35  O   UNL     1      -1.040   0.553  -2.094  0.00  0.00    -0.375 OA
ENDBRANCH  30  31
ENDBRANCH  11  30
TORSDOF 8
