REMARK  Name = ZINC09196898
REMARK  7 active torsions:
REMARK  status: ('A' for Active; 'I' for Inactive)
REMARK    1  A    between atoms: C_1  and  C_2
REMARK    2  A    between atoms: C_6  and  C_11
REMARK    3  A    between atoms: C_7  and  N_8
REMARK    4  A    between atoms: C_17  and  C_19
REMARK    5  A    between atoms: C_19  and  C_20
REMARK    6  A    between atoms: C_20  and  C_22
REMARK    7  A    between atoms: C_20  and  C_23
REMARK                            x       y       z     vdW  Elec       q    Type
REMARK                         _______ _______ _______ _____ _____    ______ ____
ROOT
ATOM      1  C   UNL     1       0.053  -2.845   2.457  0.00  0.00    +0.252 C 
ATOM      2  O   UNL     1       0.051  -2.248   3.515  0.00  0.00    -0.270 OA
ATOM      3  N   UNL     1       0.072  -4.193   2.444  0.00  0.00    -0.259 N 
ATOM      4  C   UNL     1       0.087  -4.899   3.641  0.00  0.00    +0.188 A 
ATOM      5  N   UNL     1       0.082  -4.458   4.892  0.00  0.00    -0.126 NA
ATOM      6  N   UNL     1       0.098  -5.248   5.875  0.00  0.00    -0.145 NA
ATOM      7  C   UNL     1       0.121  -6.557   5.724  0.00  0.00    +0.104 A 
ATOM      8  S   UNL     1       0.113  -6.665   3.937  0.00  0.00    -0.035 S 
ATOM      9  H   UNL     1       0.074  -4.670   1.600  0.00  0.00    +0.157 HD
ENDROOT
BRANCH   1  15
ATOM     10  C   UNL     1      -0.018   1.503   0.010  0.00  0.00    +0.046 C 
ATOM     11  C   UNL     1       0.002  -0.004   0.002  0.00  0.00    -0.020 A 
ATOM     12  C   UNL     1       0.006  -0.688  -1.201  0.00  0.00    +0.005 A 
ATOM     13  C   UNL     1       0.025  -2.071  -1.218  0.00  0.00    +0.001 A 
ATOM     14  C   UNL     1       0.040  -2.778  -0.033  0.00  0.00    +0.015 A 
ATOM     15  C   UNL     1       0.037  -2.095   1.184  0.00  0.00    +0.067 A 
ATOM     16  C   UNL     1       0.023  -0.699   1.194  0.00  0.00    +0.141 A 
BRANCH  16  17
ATOM     17  N   UNL     1       0.025   0.035   2.479  0.00  0.00    +0.057 N 
ATOM     18  O   UNL     1      -1.022   0.319   3.014  0.00  0.00    -0.126 OA
ATOM     19  O   UNL     1       1.072   0.349   2.995  0.00  0.00    -0.126 OA
ENDBRANCH  16  17
ENDBRANCH   1  15
BRANCH   7  20
ATOM     20  C   UNL     1       0.143  -7.651   6.761  0.00  0.00    +0.072 C 
BRANCH  20  21
ATOM     21  C   UNL     1      -1.292  -8.048   7.114  0.00  0.00    +0.022 C 
ATOM     22  C   UNL     1      -1.996  -6.868   7.786  0.00  0.00    +0.013 C 
BRANCH  21  23
ATOM     23  C   UNL     1      -1.270  -9.223   8.057  0.00  0.00    -0.044 A 
ATOM     24  C   UNL     1      -0.647  -9.113   9.286  0.00  0.00    +0.004 A 
ATOM     25  C   UNL     1      -0.627 -10.191  10.150  0.00  0.00    +0.000 A 
ATOM     26  C   UNL     1      -1.231 -11.380   9.786  0.00  0.00    +0.000 A 
ATOM     27  C   UNL     1      -1.855 -11.490   8.558  0.00  0.00    +0.000 A 
ATOM     28  C   UNL     1      -1.878 -10.411   7.695  0.00  0.00    +0.004 A 
ENDBRANCH  21  23
ENDBRANCH  20  21
ENDBRANCH   7  20
TORSDOF 5
