REMARK  Name = ZINC33278947
REMARK  7 active torsions:
REMARK  status: ('A' for Active; 'I' for Inactive)
REMARK    1  A    between atoms: C_1  and  C_2
REMARK    2  A    between atoms: C_2  and  C_3
REMARK    3  A    between atoms: C_2  and  C_4
REMARK    4  A    between atoms: C_2  and  N_5
REMARK    5  A    between atoms: C_6  and  C_8
REMARK    6  A    between atoms: C_11  and  C_14
REMARK    7  A    between atoms: C_16  and  C_19
REMARK                            x       y       z     vdW  Elec       q    Type
REMARK                         _______ _______ _______ _____ _____    ______ ____
ROOT
ATOM      1  C   UNL     1      -2.458   0.867   0.018  0.00  0.00    +0.037 A 
ATOM      2  C   UNL     1      -2.439  -0.529   0.005  0.00  0.00    +0.014 A 
ATOM      3  C   UNL     1      -3.622  -1.234   0.013  0.00  0.00    +0.014 A 
ATOM      4  C   UNL     1      -4.841  -0.552   0.022  0.00  0.00    +0.039 A 
ATOM      5  C   UNL     1      -4.860   0.844   0.030  0.00  0.00    +0.014 A 
ATOM      6  C   UNL     1      -3.676   1.549   0.028  0.00  0.00    +0.014 A 
ENDROOT
BRANCH   4   7
ATOM      7  C   UNL     1      -6.111  -1.309   0.024  0.00  0.00    +0.259 A 
ATOM      8  N   UNL     1      -6.244  -2.621   0.012  0.00  0.00    -0.187 NA
ATOM      9  C   UNL     1      -7.574  -2.850   0.023  0.00  0.00    +0.202 A 
ATOM     10  N   UNL     1      -8.170  -1.685   0.032  0.00  0.00    -0.056 NA
ATOM     11  O   UNL     1      -7.349  -0.792   0.032  0.00  0.00    -0.332 OA
BRANCH   9  12
ATOM     12  C   UNL     1      -8.238  -4.177   0.020  0.00  0.00    +0.023 A 
ATOM     13  C   UNL     1      -7.472  -5.341   0.005  0.00  0.00    +0.014 A 
ATOM     14  C   UNL     1      -8.094  -6.573   0.008  0.00  0.00    +0.039 A 
ATOM     15  C   UNL     1      -9.477  -6.654   0.014  0.00  0.00    +0.123 A 
ATOM     16  C   UNL     1     -10.242  -5.498   0.023  0.00  0.00    +0.039 A 
ATOM     17  C   UNL     1      -9.629  -4.262   0.026  0.00  0.00    +0.014 A 
ATOM     18  F   UNL     1     -10.081  -7.862   0.011  0.00  0.00    -0.205 F 
ENDBRANCH   9  12
ENDBRANCH   4   7
BRANCH   1  20
ATOM     19  N   UNL     1      -0.011   0.966   0.007  0.00  0.00    -0.307 N 
ATOM     20  C   UNL     1      -1.187   1.624   0.017  0.00  0.00    +0.244 C 
ATOM     21  O   UNL     1      -1.204   2.839   0.023  0.00  0.00    -0.270 OA
ATOM     22  H   UNL     1       0.004  -0.134   0.006  0.00  0.00    +0.150 HD
BRANCH  19  24
ATOM     23  C   UNL     1       1.329   2.589   1.253  0.00  0.00    +0.031 C 
ATOM     24  C   UNL     1       1.248   1.716  -0.001  0.00  0.00    +0.026 C 
ATOM     25  C   UNL     1       2.424   0.737  -0.017  0.00  0.00    +0.031 C 
ATOM     26  C   UNL     1       1.305   2.603  -1.246  0.00  0.00    +0.031 C 
ENDBRANCH  19  24
ENDBRANCH   1  20
TORSDOF 4
