REMARK  Name = ZINC39494872
REMARK  11 active torsions:
REMARK  status: ('A' for Active; 'I' for Inactive)
REMARK    1  A    between atoms: C_1  and  C_2
REMARK    2  A    between atoms: C_2  and  C_4
REMARK    3  A    between atoms: C_4  and  C_6
REMARK    4  A    between atoms: C_4  and  S_27
REMARK    5  A    between atoms: C_6  and  C_8
REMARK    6  A    between atoms: C_6  and  N_14
REMARK    7  A    between atoms: C_15  and  S_17
REMARK    8  A    between atoms: S_17  and  O_20
REMARK    9  A    between atoms: O_20  and  C_21
REMARK   10  A    between atoms: S_27  and  O_30
REMARK   11  A    between atoms: O_30  and  C_31
REMARK                            x       y       z     vdW  Elec       q    Type
REMARK                         _______ _______ _______ _____ _____    ______ ____
ROOT
ATOM      1  C   UNL     1      -1.440  -0.913  -1.799  0.00  0.00    +0.140 C 
ENDROOT
BRANCH   1   2
ATOM      2  C   UNL     1      -1.442  -1.660  -3.108  0.00  0.00    -0.025 A 
ATOM      3  C   UNL     1      -1.147  -0.995  -4.283  0.00  0.00    +0.005 A 
ATOM      4  C   UNL     1      -1.149  -1.679  -5.484  0.00  0.00    +0.000 A 
ATOM      5  C   UNL     1      -1.446  -3.029  -5.510  0.00  0.00    +0.000 A 
ATOM      6  C   UNL     1      -1.740  -3.695  -4.334  0.00  0.00    +0.000 A 
ATOM      7  C   UNL     1      -1.734  -3.011  -3.133  0.00  0.00    +0.005 A 
ENDBRANCH   1   2
BRANCH   1   8
ATOM      8  N   UNL     1      -2.043   0.408  -1.989  0.00  0.00    -0.285 N 
ATOM      9  C   UNL     1      -3.382   0.553  -1.921  0.00  0.00    +0.391 C 
ATOM     10  O   UNL     1      -4.086  -0.409  -1.703  0.00  0.00    -0.246 OA
ATOM     11  H   UNL     1      -1.480   1.178  -2.163  0.00  0.00    +0.151 HD
BRANCH   9  12
ATOM     12  S   UNL     1      -4.108   2.143  -2.150  0.00  0.00    +0.203 S 
ATOM     13  O   UNL     1      -5.483   2.012  -1.818  0.00  0.00    -0.127 OA
ATOM     14  O   UNL     1      -3.253   3.076  -1.504  0.00  0.00    -0.127 OA
BRANCH  12  15
ATOM     15  O   UNL     1      -4.047   2.455  -3.639  0.00  0.00    -0.339 OA
BRANCH  15  16
ATOM     16  C   UNL     1      -4.956   1.773  -4.384  0.00  0.00    +0.157 A 
ATOM     17  C   UNL     1      -4.630   0.533  -4.915  0.00  0.00    +0.048 A 
ATOM     18  C   UNL     1      -5.556  -0.158  -5.671  0.00  0.00    +0.004 A 
ATOM     19  C   UNL     1      -6.807   0.385  -5.901  0.00  0.00    +0.000 A 
ATOM     20  C   UNL     1      -7.134   1.621  -5.373  0.00  0.00    +0.004 A 
ATOM     21  C   UNL     1      -6.214   2.313  -4.611  0.00  0.00    +0.048 A 
ENDBRANCH  15  16
ENDBRANCH  12  15
ENDBRANCH   9  12
ENDBRANCH   1   8
BRANCH   1  22
ATOM     22  C   UNL     1      -0.000  -0.750  -1.307  0.00  0.00    +0.261 C 
BRANCH  22  24
ATOM     23  C   UNL     1      -0.018   1.503   0.010  0.00  0.00    +0.088 C 
ATOM     24  C   UNL     1       0.002  -0.004   0.002  0.00  0.00    +0.160 C 
ATOM     25  O   UNL     1       0.020  -0.613   1.044  0.00  0.00    -0.295 OA
ENDBRANCH  22  24
BRANCH  22  26
ATOM     26  S   UNL     1       0.957   0.180  -2.535  0.00  0.00    +0.133 S 
ATOM     27  O   UNL     1       1.115  -0.590  -3.719  0.00  0.00    -0.136 OA
ATOM     28  O   UNL     1       0.494   1.522  -2.602  0.00  0.00    -0.136 OA
BRANCH  26  29
ATOM     29  O   UNL     1       2.357   0.280  -1.947  0.00  0.00    -0.346 OA
BRANCH  29  30
ATOM     30  C   UNL     1       3.070  -0.874  -2.018  0.00  0.00    +0.156 A 
ATOM     31  C   UNL     1       3.002  -1.797  -0.984  0.00  0.00    +0.048 A 
ATOM     32  C   UNL     1       3.728  -2.970  -1.058  0.00  0.00    +0.004 A 
ATOM     33  C   UNL     1       4.521  -3.225  -2.162  0.00  0.00    +0.000 A 
ATOM     34  C   UNL     1       4.590  -2.307  -3.193  0.00  0.00    +0.004 A 
ATOM     35  C   UNL     1       3.862  -1.135  -3.126  0.00  0.00    +0.048 A 
ENDBRANCH  29  30
ENDBRANCH  26  29
ENDBRANCH  22  26
ENDBRANCH   1  22
TORSDOF 10
