REMARK  Name = ZINC28907729
REMARK  8 active torsions:
REMARK  status: ('A' for Active; 'I' for Inactive)
REMARK    1  A    between atoms: C_1  and  C_2
REMARK    2  A    between atoms: C_3  and  N_15
REMARK    3  A    between atoms: N_6  and  C_9
REMARK    4  A    between atoms: N_7  and  C_8
REMARK    5  A    between atoms: C_16  and  C_18
REMARK    6  A    between atoms: C_18  and  C_20
REMARK    7  A    between atoms: C_18  and  N_21
REMARK    8  A    between atoms: N_21  and  C_22
REMARK                            x       y       z     vdW  Elec       q    Type
REMARK                         _______ _______ _______ _____ _____    ______ ____
ROOT
ATOM      1  N   UNL     1       1.344  -1.863  -1.133  0.00  0.00    -0.278 N 
ATOM      2  C   UNL     1       1.157  -0.895  -0.215  0.00  0.00    +0.237 C 
ATOM      3  O   UNL     1       2.113  -0.377   0.324  0.00  0.00    -0.273 OA
ATOM      4  H   UNL     1       0.478  -2.391  -1.561  0.00  0.00    +0.155 HD
ENDROOT
BRANCH   1   7
ATOM      5  C   UNL     1       2.566  -4.671  -0.947  0.00  0.00    +0.067 C 
ATOM      6  C   UNL     1       3.220  -3.423  -1.480  0.00  0.00    +0.059 A 
ATOM      7  C   UNL     1       2.648  -2.200  -1.547  0.00  0.00    +0.121 A 
ATOM      8  C   UNL     1       3.634  -1.292  -2.134  0.00  0.00    +0.293 A 
ATOM      9  O   UNL     1       3.483  -0.104  -2.358  0.00  0.00    -0.264 OA
ATOM     10  N   UNL     1       4.744  -2.020  -2.377  0.00  0.00    -0.216 N 
ATOM     11  N   UNL     1       4.493  -3.338  -1.979  0.00  0.00    -0.282 N 
ATOM     12  C   UNL     1       5.442  -4.450  -2.078  0.00  0.00    +0.171 C 
BRANCH  10  13
ATOM     13  C   UNL     1       5.934  -1.543  -2.935  0.00  0.00    +0.067 A 
ATOM     14  C   UNL     1       7.152  -1.849  -2.344  0.00  0.00    +0.028 A 
ATOM     15  C   UNL     1       8.326  -1.381  -2.901  0.00  0.00    +0.002 A 
ATOM     16  C   UNL     1       8.288  -0.598  -4.040  0.00  0.00    +0.000 A 
ATOM     17  C   UNL     1       7.076  -0.286  -4.628  0.00  0.00    +0.002 A 
ATOM     18  C   UNL     1       5.899  -0.756  -4.079  0.00  0.00    +0.028 A 
ENDBRANCH  10  13
ENDBRANCH   1   7
BRANCH   2  19
ATOM     19  C   UNL     1      -0.239  -0.456   0.144  0.00  0.00    +0.154 C 
ATOM     20  C   UNL     1      -1.022  -1.649   0.699  0.00  0.00    +0.038 C 
BRANCH  19  21
ATOM     21  N   UNL     1      -0.174   0.599   1.158  0.00  0.00    -0.333 N 
ATOM     22  H   UNL     1       0.697   0.668   1.825  0.00  0.00    +0.147 HD
BRANCH  21  23
ATOM     23  C   UNL     1      -1.220   1.519   1.277  0.00  0.00    +0.028 A 
ATOM     24  C   UNL     1      -2.318   1.437   0.431  0.00  0.00    +0.024 A 
ATOM     25  C   UNL     1      -3.353   2.343   0.555  0.00  0.00    +0.022 A 
ATOM     26  C   UNL     1      -3.290   3.340   1.513  0.00  0.00    +0.041 A 
ATOM     27  C   UNL     1      -2.194   3.428   2.353  0.00  0.00    +0.022 A 
ATOM     28  C   UNL     1      -1.160   2.520   2.237  0.00  0.00    +0.024 A 
ATOM     29 CL   UNL     1      -4.589   4.483   1.661  0.00  0.00    -0.084 Cl
ENDBRANCH  21  23
ENDBRANCH  19  21
ENDBRANCH   2  19
TORSDOF 5
