REMARK  Name = ZINC13276161
REMARK  8 active torsions:
REMARK  status: ('A' for Active; 'I' for Inactive)
REMARK    1  A    between atoms: C_1  and  C_2
REMARK    2  A    between atoms: C_6  and  N_9
REMARK    3  A    between atoms: C_7  and  C_8
REMARK    4  A    between atoms: C_10  and  S_14
REMARK    5  A    between atoms: S_14  and  C_15
REMARK    6  A    between atoms: C_18  and  C_24
REMARK    7  A    between atoms: C_20  and  N_21
REMARK    8  A    between atoms: C_25  and  C_26
REMARK                            x       y       z     vdW  Elec       q    Type
REMARK                         _______ _______ _______ _____ _____    ______ ____
ROOT
ATOM      1  S   UNL     1      -0.461   2.235  -0.887  0.00  0.00    -0.046 S 
ENDROOT
BRANCH   1   2
ATOM      2  C   UNL     1       1.151   2.802  -1.320  0.00  0.00    +0.046 A 
ATOM      3  C   UNL     1       1.423   3.187  -2.631  0.00  0.00    +0.018 A 
ATOM      4  C   UNL     1       2.670   3.627  -2.971  0.00  0.00    +0.009 A 
ATOM      5  C   UNL     1       3.677   3.692  -1.999  0.00  0.00    -0.023 A 
ATOM      6  C   UNL     1       3.399   3.304  -0.682  0.00  0.00    +0.041 A 
ATOM      7  C   UNL     1       2.147   2.870  -0.349  0.00  0.00    +0.140 A 
BRANCH   7   8
ATOM      8  N   UNL     1       1.850   2.466   1.044  0.00  0.00    +0.058 N 
ATOM      9  O   UNL     1       2.721   2.525   1.893  0.00  0.00    -0.126 OA
ATOM     10  O   UNL     1       0.736   2.074   1.340  0.00  0.00    -0.126 OA
ENDBRANCH   7   8
BRANCH   5  11
ATOM     11  C   UNL     1       5.019   4.165  -2.359  0.00  0.00    +0.015 C 
ATOM     12  C   UNL     1       5.285   4.539  -3.631  0.00  0.00    +0.096 C 
BRANCH  12  13
ATOM     13  C   UNL     1       6.580   4.996  -3.978  0.00  0.00    +0.380 C 
ATOM     14  O   UNL     1       7.453   5.051  -3.133  0.00  0.00    -0.241 OA
ATOM     15  O   UNL     1       6.846   5.369  -5.248  0.00  0.00    -0.241 OA
ENDBRANCH  12  13
ENDBRANCH   5  11
ENDBRANCH   1   2
BRANCH   1  17
ATOM     16  N   UNL     1      -1.066  -0.460  -0.487  0.00  0.00    -0.187 N 
ATOM     17  C   UNL     1      -0.166   0.499  -0.820  0.00  0.00    +0.219 A 
ATOM     18  N   UNL     1       0.968  -0.113  -1.088  0.00  0.00    -0.101 NA
ATOM     19  N   UNL     1       0.840  -1.382  -0.938  0.00  0.00    -0.022 NA
ATOM     20  N   UNL     1      -0.362  -1.673  -0.578  0.00  0.00    -0.038 NA
BRANCH  16  26
ATOM     21  C   UNL     1      -5.794  -1.714  -1.008  0.00  0.00    +0.044 C 
ATOM     22  C   UNL     1      -4.720  -0.874  -0.365  0.00  0.00    -0.046 A 
ATOM     23  C   UNL     1      -5.060   0.077   0.579  0.00  0.00    +0.004 A 
ATOM     24  C   UNL     1      -4.079   0.851   1.171  0.00  0.00    +0.002 A 
ATOM     25  C   UNL     1      -2.753   0.671   0.824  0.00  0.00    +0.028 A 
ATOM     26  C   UNL     1      -2.410  -0.279  -0.128  0.00  0.00    +0.073 A 
ATOM     27  C   UNL     1      -3.398  -1.054  -0.721  0.00  0.00    -0.022 A 
ATOM     28  C   UNL     1      -3.028  -2.089  -1.751  0.00  0.00    +0.046 C 
ENDBRANCH  16  26
ENDBRANCH   1  17
TORSDOF 6
