REMARK  Name = ZINC63502687
REMARK  5 active torsions:
REMARK  status: ('A' for Active; 'I' for Inactive)
REMARK    1  A    between atoms: C_1  and  C_2
REMARK    2  A    between atoms: C_2  and  C_4
REMARK    3  A    between atoms: C_2  and  N_10
REMARK    4  A    between atoms: C_11  and  C_13
REMARK    5  A    between atoms: N_18  and  C_20
REMARK                            x       y       z     vdW  Elec       q    Type
REMARK                         _______ _______ _______ _____ _____    ______ ____
ROOT
ATOM      1  C   UNL     1       0.712  -1.094  -3.598  0.00  0.00    +0.089 C 
ATOM      2  C   UNL     1       1.849  -0.131  -3.950  0.00  0.00    +0.015 C 
ATOM      3  C   UNL     1       2.522  -0.599  -5.244  0.00  0.00    +0.016 C 
ATOM      4  C   UNL     1       1.477  -0.669  -6.359  0.00  0.00    +0.088 C 
ATOM      5  N   UNL     1       0.411  -1.604  -5.976  0.00  0.00    -0.265 NA
ATOM      6  C   UNL     1      -0.281  -1.151  -4.762  0.00  0.00    +0.100 C 
ENDROOT
BRANCH   5   7
ATOM      7  C   UNL     1      -0.538  -1.802  -7.079  0.00  0.00    +0.252 C 
ATOM      8  N   UNL     1       0.167  -2.305  -8.265  0.00  0.00    -0.351 N 
ATOM      9  C   UNL     1       0.002  -1.432  -9.217  0.00  0.00    +0.061 A 
ATOM     10  C   UNL     1       0.460  -1.377 -10.612  0.00  0.00    +0.027 A 
ATOM     11  C   UNL     1       0.126  -0.321 -11.380  0.00  0.00    +0.002 A 
ATOM     12  C   UNL     1      -0.653   0.748 -10.902  0.00  0.00    +0.002 A 
ATOM     13  C   UNL     1      -1.124   0.797  -9.640  0.00  0.00    +0.027 A 
ATOM     14  C   UNL     1      -0.823  -0.301  -8.711  0.00  0.00    +0.061 A 
ATOM     15  N   UNL     1      -1.137  -0.518  -7.466  0.00  0.00    -0.351 N 
ATOM     16  H   UNL     1       0.664  -3.135  -8.328  0.00  0.00    +0.163 HD
ATOM     17  H   UNL     1      -1.668   0.061  -6.899  0.00  0.00    +0.163 HD
ENDBRANCH   5   7
BRANCH   1  19
ATOM     18  N   UNL     1       0.688  -0.476  -1.203  0.00  0.00    -0.308 N 
ATOM     19  C   UNL     1       0.006  -0.608  -2.358  0.00  0.00    +0.218 C 
ATOM     20  O   UNL     1      -1.175  -0.336  -2.400  0.00  0.00    -0.275 OA
ATOM     21  H   UNL     1       1.632  -0.695  -1.170  0.00  0.00    +0.149 HD
BRANCH  18  23
ATOM     22  C   UNL     1      -0.019   1.526   0.010  0.00  0.00    +0.033 C 
ATOM     23  C   UNL     1       0.002  -0.004   0.002  0.00  0.00    +0.100 C 
BRANCH  23  24
ATOM     24  C   UNL     1       0.731  -0.503   1.223  0.00  0.00    -0.027 A 
ATOM     25  C   UNL     1       2.113  -0.514   1.247  0.00  0.00    +0.005 A 
ATOM     26  C   UNL     1       2.782  -0.972   2.366  0.00  0.00    +0.000 A 
ATOM     27  C   UNL     1       2.068  -1.419   3.463  0.00  0.00    +0.000 A 
ATOM     28  C   UNL     1       0.686  -1.407   3.439  0.00  0.00    +0.000 A 
ATOM     29  C   UNL     1       0.017  -0.945   2.321  0.00  0.00    +0.005 A 
ENDBRANCH  23  24
ENDBRANCH  18  23
ENDBRANCH   1  19
TORSDOF 4
