REMARK  Name = ZINC38994717
REMARK  9 active torsions:
REMARK  status: ('A' for Active; 'I' for Inactive)
REMARK    1  A    between atoms: C_1  and  O_2
REMARK    2  A    between atoms: O_2  and  C_3
REMARK    3  A    between atoms: C_5  and  C_17
REMARK    4  A    between atoms: C_8  and  O_9
REMARK    5  A    between atoms: O_9  and  C_10
REMARK    6  A    between atoms: C_10  and  C_11
REMARK    7  A    between atoms: C_19  and  C_23
REMARK    8  A    between atoms: N_25  and  N_26
REMARK    9  A    between atoms: C_27  and  C_28
REMARK                            x       y       z     vdW  Elec       q    Type
REMARK                         _______ _______ _______ _____ _____    ______ ____
ROOT
ATOM      1  C   UNL     1      -4.859   0.231   0.038  0.00  0.00    +0.047 C 
ATOM      2  C   UNL     1      -6.079  -0.303   0.051  0.00  0.00    +0.027 C 
ATOM      3  C   UNL     1      -7.059   0.851   0.059  0.00  0.00    +0.184 C 
ATOM      4  N   UNL     1      -6.207   2.057   0.048  0.00  0.00    -0.227 NA
ATOM      5  N   UNL     1      -4.915   1.618   0.041  0.00  0.00    -0.279 N 
ATOM      6  H   UNL     1      -6.386   2.632   0.857  0.00  0.00    +0.145 HD
ATOM      7  H   UNL     1      -4.138   2.198   0.037  0.00  0.00    +0.166 HD
ENDROOT
BRANCH   1  10
ATOM      8  C   UNL     1      -1.201  -0.638   0.010  0.00  0.00    +0.162 A 
ATOM      9  C   UNL     1      -2.371   0.099   0.019  0.00  0.00    +0.059 A 
ATOM     10  C   UNL     1      -3.604  -0.554   0.027  0.00  0.00    +0.000 A 
ATOM     11  C   UNL     1      -3.651  -1.948   0.026  0.00  0.00    +0.013 A 
ATOM     12  C   UNL     1      -2.481  -2.678   0.017  0.00  0.00    +0.050 A 
ATOM     13  C   UNL     1      -1.255  -2.030   0.003  0.00  0.00    +0.162 A 
BRANCH   8  15
ATOM     14  C   UNL     1      -0.017   1.425   0.010  0.00  0.00    +0.277 C 
ATOM     15  O   UNL     1       0.002  -0.004   0.002  0.00  0.00    -0.491 OA
ENDBRANCH   8  15
BRANCH  13  16
ATOM     16  O   UNL     1      -0.105  -2.753  -0.011  0.00  0.00    -0.484 OA
BRANCH  16  17
ATOM     17  C   UNL     1      -0.233  -4.176  -0.018  0.00  0.00    +0.264 C 
BRANCH  17  18
ATOM     18  C   UNL     1       1.136  -4.805  -0.034  0.00  0.00    -0.010 A 
ATOM     19  C   UNL     1       1.756  -5.081  -1.238  0.00  0.00    +0.007 A 
ATOM     20  C   UNL     1       3.012  -5.658  -1.252  0.00  0.00    +0.000 A 
ATOM     21  C   UNL     1       3.649  -5.957  -0.063  0.00  0.00    +0.000 A 
ATOM     22  C   UNL     1       3.030  -5.680   1.142  0.00  0.00    +0.000 A 
ATOM     23  C   UNL     1       1.775  -5.099   1.156  0.00  0.00    +0.007 A 
ENDBRANCH  17  18
ENDBRANCH  16  17
ENDBRANCH  13  16
ENDBRANCH   1  10
BRANCH   3  24
ATOM     24  C   UNL     1      -7.906   0.813   1.304  0.00  0.00    +0.255 C 
ATOM     25  O   UNL     1      -7.640   1.535   2.241  0.00  0.00    -0.272 OA
ATOM     26  N   UNL     1      -8.961  -0.023   1.376  0.00  0.00    -0.205 N 
ATOM     27  H   UNL     1      -9.174  -0.600   0.627  0.00  0.00    +0.177 HD
BRANCH  26  28
ATOM     28  N   UNL     1      -9.749  -0.058   2.534  0.00  0.00    -0.188 NA
ATOM     29  C   UNL     1     -10.774  -0.871   2.604  0.00  0.00    +0.136 C 
BRANCH  29  30
ATOM     30  C   UNL     1     -11.562  -0.906   3.763  0.00  0.00    +0.000 C 
ATOM     31  C   UNL     1     -12.675  -1.710   4.000  0.00  0.00    +0.004 A 
ATOM     32  C   UNL     1     -13.333  -2.683   3.217  0.00  0.00    +0.010 A 
ATOM     33  C   UNL     1     -14.420  -3.325   3.715  0.00  0.00    +0.001 A 
ATOM     34  C   UNL     1     -14.913  -3.047   4.993  0.00  0.00    +0.002 A 
ATOM     35  C   UNL     1     -14.333  -2.126   5.799  0.00  0.00    +0.026 A 
ATOM     36  C   UNL     1     -13.190  -1.413   5.348  0.00  0.00    +0.043 A 
ATOM     37  N   UNL     1     -12.457  -0.486   5.928  0.00  0.00    -0.380 N 
ATOM     38  C   UNL     1     -11.379  -0.083   5.019  0.00  0.00    +0.150 C 
ATOM     39  H   UNL     1     -12.604  -0.129   6.818  0.00  0.00    +0.160 HD
ENDBRANCH  29  30
ENDBRANCH  26  28
ENDBRANCH   3  24
TORSDOF 8
