REMARK  Name = ZINC67015902
REMARK  6 active torsions:
REMARK  status: ('A' for Active; 'I' for Inactive)
REMARK    1  A    between atoms: C_3  and  N_25
REMARK    2  A    between atoms: C_6  and  O_7
REMARK    3  A    between atoms: O_7  and  C_8
REMARK    4  A    between atoms: C_8  and  C_9
REMARK    5  A    between atoms: N_11  and  C_12
REMARK    6  A    between atoms: C_13  and  C_22
REMARK                            x       y       z     vdW  Elec       q    Type
REMARK                         _______ _______ _______ _____ _____    ______ ____
ROOT
ATOM      1  C   UNL     1      -2.454  -2.722   0.012  0.00  0.00    +0.255 C 
ATOM      2  O   UNL     1      -3.426  -1.997   0.025  0.00  0.00    -0.272 OA
ATOM      3  N   UNL     1      -2.611  -4.061   0.006  0.00  0.00    -0.276 N 
ATOM      4  H   UNL     1      -1.834  -4.640  -0.005  0.00  0.00    +0.155 HD
ENDROOT
BRANCH   3   5
ATOM      5  C   UNL     1      -3.886  -4.609   0.016  0.00  0.00    +0.090 A 
ATOM      6  C   UNL     1      -4.236  -5.948   0.018  0.00  0.00    +0.084 A 
ATOM      7  C   UNL     1      -5.656  -6.269   0.029  0.00  0.00    -0.018 A 
ATOM      8  C   UNL     1      -6.462  -5.186   0.030  0.00  0.00    -0.004 A 
ATOM      9  S   UNL     1      -5.357  -3.802   0.035  0.00  0.00    -0.077 S 
ATOM     10  C   UNL     1      -7.959  -5.160   0.020  0.00  0.00    +0.043 C 
ATOM     11  C   UNL     1      -8.485  -6.113   1.102  0.00  0.00    +0.005 C 
ATOM     12  C   UNL     1      -8.648  -7.501   0.491  0.00  0.00    +0.001 C 
ATOM     13  C   UNL     1      -7.578  -7.739  -0.573  0.00  0.00    +0.005 C 
ATOM     14  C   UNL     1      -6.187  -7.696   0.051  0.00  0.00    +0.037 C 
BRANCH   6  15
ATOM     15  C   UNL     1      -3.241  -6.977   0.009  0.00  0.00    +0.102 C 
ATOM     16  N   UNL     1      -2.451  -7.793   0.003  0.00  0.00    -0.191 NA
ENDBRANCH   6  15
ENDBRANCH   3   5
BRANCH   1  17
ATOM     17  C   UNL     1      -1.070  -2.126   0.001  0.00  0.00    +0.324 C 
BRANCH  17  18
ATOM     18  O   UNL     1      -1.165  -0.700   0.010  0.00  0.00    -0.483 OA
BRANCH  18  24
ATOM     19  C   UNL     1      -0.017   1.383   0.010  0.00  0.00    +0.048 A 
ATOM     20  C   UNL     1       1.171   2.090   0.002  0.00  0.00    +0.039 A 
ATOM     21  C   UNL     1       2.377   1.417  -0.013  0.00  0.00    +0.161 A 
ATOM     22  C   UNL     1       2.400   0.032  -0.021  0.00  0.00    +0.157 A 
ATOM     23  C   UNL     1       1.214  -0.679  -0.014  0.00  0.00    +0.086 A 
ATOM     24  C   UNL     1       0.002  -0.004   0.002  0.00  0.00    +0.124 A 
ATOM     25  F   UNL     1       3.581  -0.624  -0.035  0.00  0.00    -0.203 F 
BRANCH  21  26
ATOM     26  N   UNL     1       3.647   2.177  -0.022  0.00  0.00    +0.059 N 
ATOM     27  O   UNL     1       3.629   3.386  -0.015  0.00  0.00    -0.126 OA
ATOM     28  O   UNL     1       4.704   1.589  -0.035  0.00  0.00    -0.126 OA
ENDBRANCH  21  26
ENDBRANCH  18  24
ENDBRANCH  17  18
ENDBRANCH   1  17
TORSDOF 6
