REMARK  Name = ZINC09135772
REMARK  9 active torsions:
REMARK  status: ('A' for Active; 'I' for Inactive)
REMARK    1  A    between atoms: C_1  and  C_2
REMARK    2  A    between atoms: C_5  and  C_32
REMARK    3  A    between atoms: C_6  and  N_8
REMARK    4  A    between atoms: C_9  and  C_11
REMARK    5  A    between atoms: N_13  and  C_14
REMARK    6  A    between atoms: C_14  and  C_15
REMARK    7  A    between atoms: C_15  and  C_17
REMARK    8  A    between atoms: C_15  and  N_66
REMARK    9  A    between atoms: N_26  and  C_27
REMARK                            x       y       z     vdW  Elec       q    Type
REMARK                         _______ _______ _______ _____ _____    ______ ____
ROOT
ATOM      1  C   UNL     1       3.023  -2.430   4.391  0.00  0.00    -0.020 C 
ENDROOT
BRANCH   1   2
ATOM      2  C   UNL     1       2.594  -1.616   3.198  0.00  0.00    -0.059 A 
ATOM      3  C   UNL     1       2.120  -2.248   2.063  0.00  0.00    +0.004 A 
ATOM      4  C   UNL     1       1.731  -1.502   0.971  0.00  0.00    +0.023 A 
ATOM      5  C   UNL     1       1.812  -0.109   1.003  0.00  0.00    +0.033 A 
ATOM      6  C   UNL     1       2.283   0.519   2.143  0.00  0.00    -0.026 A 
ATOM      7  C   UNL     1       2.675  -0.239   3.235  0.00  0.00    +0.007 A 
ATOM      8  C   UNL     1       2.385   2.020   2.245  0.00  0.00    +0.038 C 
ATOM      9  C   UNL     1       2.282   2.639   0.849  0.00  0.00    +0.024 C 
ATOM     10  C   UNL     1       1.089   1.992   0.133  0.00  0.00    +0.105 C 
ATOM     11  N   UNL     1       1.409   0.589  -0.135  0.00  0.00    -0.333 N 
ATOM     12  C   UNL     1       0.287  -0.089  -0.798  0.00  0.00    +0.129 C 
ENDBRANCH   1   2
BRANCH   1  17
ATOM     13  C   UNL     1       2.174  -3.999   6.049  0.00  0.00    -0.078 C 
ATOM     14  C   UNL     1       0.786  -4.614   6.356  0.00  0.00    -0.020 C 
ATOM     15  C   UNL     1      -0.190  -3.611   5.698  0.00  0.00    -0.020 C 
ATOM     16  C   UNL     1       0.647  -2.873   4.637  0.00  0.00    -0.078 C 
ATOM     17  N   UNL     1       1.986  -3.462   4.692  0.00  0.00    +0.385 N 
ATOM     18  H   UNL     1       2.058  -4.222   4.005  0.00  0.00    -0.081 HD
ENDBRANCH   1  17
BRANCH   1  19
ATOM     19  C   UNL     1       4.360  -3.110   4.091  0.00  0.00    +0.094 C 
BRANCH  19  22
ATOM     20  C   UNL     1       6.070  -4.360   5.297  0.00  0.00    +0.299 C 
ATOM     21  O   UNL     1       6.667  -4.497   4.249  0.00  0.00    -0.265 OA
ATOM     22  N   UNL     1       4.906  -3.681   5.325  0.00  0.00    -0.309 N 
ATOM     23  H   UNL     1       4.429  -3.571   6.163  0.00  0.00    +0.149 HD
BRANCH  20  25
ATOM     24  N   UNL     1       7.790  -5.620   6.527  0.00  0.00    -0.278 N 
ATOM     25  C   UNL     1       6.626  -4.942   6.555  0.00  0.00    +0.303 C 
ATOM     26  O   UNL     1       6.029  -4.804   7.603  0.00  0.00    -0.265 OA
ATOM     27  H   UNL     1       8.300  -5.674   5.703  0.00  0.00    +0.155 HD
BRANCH  24  33
ATOM     28  C   UNL     1       7.994  -5.845  11.432  0.00  0.00    +0.044 C 
ATOM     29  C   UNL     1       8.377  -6.376  10.075  0.00  0.00    -0.049 A 
ATOM     30  C   UNL     1       9.199  -7.484   9.973  0.00  0.00    +0.004 A 
ATOM     31  C   UNL     1       9.555  -7.974   8.730  0.00  0.00    +0.005 A 
ATOM     32  C   UNL     1       9.089  -7.358   7.585  0.00  0.00    -0.029 A 
ATOM     33  C   UNL     1       8.263  -6.245   7.683  0.00  0.00    +0.037 A 
ATOM     34  C   UNL     1       7.912  -5.753   8.934  0.00  0.00    +0.027 A 
ATOM     35  C   UNL     1       9.476  -7.893   6.230  0.00  0.00    +0.045 C 
ENDBRANCH  24  33
ENDBRANCH  20  25
ENDBRANCH  19  22
ENDBRANCH   1  19
TORSDOF 6
