REMARK  Name = ZINC24775611
REMARK  4 active torsions:
REMARK  status: ('A' for Active; 'I' for Inactive)
REMARK    1  A    between atoms: C_1  and  N_2
REMARK    2  A    between atoms: C_6  and  S_8
REMARK    3  A    between atoms: S_8  and  C_9
REMARK    4  A    between atoms: C_17  and  C_19
REMARK                            x       y       z     vdW  Elec       q    Type
REMARK                         _______ _______ _______ _____ _____    ______ ____
ROOT
ATOM      1  C   UNL     1       2.369   3.960  -0.000  0.00  0.00    +0.115 A 
ATOM      2  C   UNL     1       1.145   3.162   0.008  0.00  0.00    +0.033 A 
ATOM      3  C   UNL     1       1.166   1.765   0.000  0.00  0.00    +0.012 A 
ATOM      4  C   UNL     1      -0.013   1.076   0.008  0.00  0.00    +0.001 A 
ATOM      5  C   UNL     1      -1.232   1.746   0.017  0.00  0.00    +0.002 A 
ATOM      6  C   UNL     1      -1.286   3.108   0.030  0.00  0.00    +0.028 A 
ATOM      7  C   UNL     1      -0.096   3.848   0.023  0.00  0.00    +0.076 A 
ATOM      8  N   UNL     1      -0.090   5.187   0.029  0.00  0.00    -0.227 NA
ATOM      9  C   UNL     1       1.046   5.863   0.021  0.00  0.00    +0.168 A 
ATOM     10  N   UNL     1       2.245   5.281   0.007  0.00  0.00    -0.219 NA
ENDROOT
BRANCH   9  11
ATOM     11  C   UNL     1       0.984   7.336   0.029  0.00  0.00    +0.056 A 
ATOM     12  C   UNL     1       2.011   8.244   0.029  0.00  0.00    +0.019 A 
ATOM     13  C   UNL     1       1.707   9.586   0.033  0.00  0.00    +0.008 A 
ATOM     14  C   UNL     1       0.403   9.970   0.048  0.00  0.00    +0.046 A 
ATOM     15  S   UNL     1      -0.449   8.401   0.048  0.00  0.00    -0.094 S 
ENDBRANCH   9  11
BRANCH   1  16
ATOM     16  S   UNL     1       3.956   3.194  -0.018  0.00  0.00    -0.041 S 
BRANCH  16  22
ATOM     17  C   UNL     1       7.895   8.777  -0.033  0.00  0.00    +0.127 C 
ATOM     18  N   UNL     1       8.030   7.319  -0.040  0.00  0.00    -0.325 N 
ATOM     19  C   UNL     1       6.895   6.516  -0.032  0.00  0.00    +0.182 A 
ATOM     20  N   UNL     1       5.623   6.867  -0.019  0.00  0.00    -0.125 NA
ATOM     21  N   UNL     1       4.647   5.898  -0.019  0.00  0.00    -0.133 NA
ATOM     22  C   UNL     1       4.986   4.624  -0.022  0.00  0.00    +0.166 A 
ATOM     23  S   UNL     1       6.769   4.735  -0.038  0.00  0.00    -0.024 S 
ATOM     24  H   UNL     1       9.029   6.858  -0.051  0.00  0.00    +0.148 HD
ENDBRANCH  16  22
ENDBRANCH   1  16
TORSDOF 3
