REMARK  Name = ZINC22374742
REMARK  12 active torsions:
REMARK  status: ('A' for Active; 'I' for Inactive)
REMARK    1  A    between atoms: C_1  and  C_2
REMARK    2  A    between atoms: C_5  and  C_30
REMARK    3  A    between atoms: C_6  and  C_8
REMARK    4  A    between atoms: C_8  and  C_10
REMARK    5  A    between atoms: C_8  and  N_11
REMARK    6  A    between atoms: C_12  and  C_14
REMARK    7  A    between atoms: C_14  and  N_15
REMARK    8  A    between atoms: N_15  and  C_16
REMARK    9  A    between atoms: N_15  and  S_26
REMARK   10  A    between atoms: C_18  and  N_23
REMARK   11  A    between atoms: C_21  and  C_22
REMARK   12  A    between atoms: S_26  and  C_29
REMARK                            x       y       z     vdW  Elec       q    Type
REMARK                         _______ _______ _______ _____ _____    ______ ____
ROOT
ATOM      1  C   UNL     1       0.706   0.157  -0.463  0.00  0.00    +0.226 C 
ENDROOT
BRANCH   1   3
ATOM      2  N   UNL     1       1.745  -1.780   0.671  0.00  0.00    -0.307 N 
ATOM      3  C   UNL     1       1.450  -0.465   0.690  0.00  0.00    +0.233 C 
ATOM      4  O   UNL     1       1.786   0.218   1.635  0.00  0.00    -0.274 OA
ATOM      5  H   UNL     1       1.441  -2.399  -0.185  0.00  0.00    +0.149 HD
BRANCH   2   6
ATOM      6  C   UNL     1       2.469  -2.384   1.792  0.00  0.00    +0.100 C 
ATOM      7  C   UNL     1       3.973  -2.195   1.589  0.00  0.00    +0.033 C 
BRANCH   6  13
ATOM      8  C   UNL     1       1.019  -6.612  -0.458  0.00  0.00    +0.044 C 
ATOM      9  C   UNL     1       1.459  -5.879   0.782  0.00  0.00    -0.050 A 
ATOM     10  C   UNL     1       1.573  -6.557   1.982  0.00  0.00    +0.003 A 
ATOM     11  C   UNL     1       1.977  -5.884   3.120  0.00  0.00    +0.004 A 
ATOM     12  C   UNL     1       2.271  -4.535   3.058  0.00  0.00    -0.046 A 
ATOM     13  C   UNL     1       2.153  -3.856   1.859  0.00  0.00    -0.024 A 
ATOM     14  C   UNL     1       1.749  -4.529   0.721  0.00  0.00    +0.009 A 
ATOM     15  C   UNL     1       2.717  -3.803   4.297  0.00  0.00    +0.044 C 
ENDBRANCH   6  13
ENDBRANCH   2   6
ENDBRANCH   1   3
BRANCH   1  16
ATOM     16  N   UNL     1       0.481   1.579  -0.189  0.00  0.00    -0.198 N 
BRANCH  16  17
ATOM     17  C   UNL     1       1.461   2.517  -0.519  0.00  0.00    +0.056 A 
ATOM     18  C   UNL     1       2.497   2.783   0.368  0.00  0.00    +0.057 A 
ATOM     19  C   UNL     1       3.468   3.707   0.036  0.00  0.00    +0.128 A 
ATOM     20  C   UNL     1       3.404   4.376  -1.173  0.00  0.00    +0.033 A 
ATOM     21  C   UNL     1       2.371   4.118  -2.055  0.00  0.00    +0.007 A 
ATOM     22  C   UNL     1       1.400   3.191  -1.732  0.00  0.00    -0.028 A 
ATOM     23  C   UNL     1       0.275   2.910  -2.695  0.00  0.00    +0.046 C 
BRANCH  19  24
ATOM     24  N   UNL     1       4.575   3.987   0.978  0.00  0.00    +0.056 N 
ATOM     25  O   UNL     1       5.429   4.806   0.688  0.00  0.00    -0.126 OA
ATOM     26  O   UNL     1       4.632   3.398   2.042  0.00  0.00    -0.126 OA
ENDBRANCH  19  24
ENDBRANCH  16  17
BRANCH  16  27
ATOM     27  S   UNL     1      -0.939   2.074   0.505  0.00  0.00    +0.043 S 
ATOM     28  O   UNL     1      -1.171   3.370  -0.028  0.00  0.00    -0.155 OA
ATOM     29  O   UNL     1      -1.853   1.014   0.257  0.00  0.00    -0.155 OA
ATOM     30  C   UNL     1      -0.576   2.184   2.279  0.00  0.00    +0.218 C 
ENDBRANCH  16  27
ENDBRANCH   1  16
TORSDOF 7
