REMARK  Name = ZINC15175562
REMARK  4 active torsions:
REMARK  status: ('A' for Active; 'I' for Inactive)
REMARK    1  A    between atoms: C_1  and  C_2
REMARK    2  A    between atoms: C_10  and  C_16
REMARK    3  A    between atoms: C_21  and  C_24
REMARK    4  A    between atoms: N_26  and  C_27
REMARK                            x       y       z     vdW  Elec       q    Type
REMARK                         _______ _______ _______ _____ _____    ______ ____
ROOT
ATOM      1  C   UNL     1       3.292   2.116   0.098  0.00  0.00    +0.247 C 
ATOM      2  O   UNL     1       4.287   1.448   0.308  0.00  0.00    -0.270 OA
ATOM      3  N   UNL     1       3.389   3.457   0.002  0.00  0.00    -0.297 N 
ATOM      4  C   UNL     1       2.184   4.286  -0.133  0.00  0.00    +0.109 C 
ATOM      5  C   UNL     1       2.205   5.361   0.965  0.00  0.00    +0.032 C 
ATOM      6  C   UNL     1       3.518   6.142   0.881  0.00  0.00    +0.078 C 
ATOM      7  C   UNL     1       4.695   5.192   1.114  0.00  0.00    +0.032 C 
ATOM      8  C   UNL     1       4.702   4.116   0.024  0.00  0.00    +0.109 C 
ENDROOT
BRANCH   1  17
ATOM      9  C   UNL     1      -0.366  -4.106   3.902  0.00  0.00    +0.008 C 
ATOM     10  C   UNL     1      -0.899  -3.017   2.967  0.00  0.00    -0.009 C 
ATOM     11  C   UNL     1      -1.730  -3.661   1.854  0.00  0.00    +0.009 C 
ATOM     12  C   UNL     1      -2.464  -2.570   1.067  0.00  0.00    +0.054 C 
ATOM     13  C   UNL     1      -1.465  -1.507   0.673  0.00  0.00    +0.020 A 
ATOM     14  C   UNL     1      -0.252  -1.376   1.244  0.00  0.00    -0.019 A 
ATOM     15  C   UNL     1       0.412  -0.246   0.598  0.00  0.00    +0.004 A 
ATOM     16  C   UNL     1       1.654   0.366   0.748  0.00  0.00    +0.023 A 
ATOM     17  C   UNL     1       1.979   1.458  -0.052  0.00  0.00    +0.038 A 
ATOM     18  C   UNL     1       1.061   1.933  -0.999  0.00  0.00    +0.015 A 
ATOM     19  C   UNL     1      -0.155   1.335  -1.149  0.00  0.00    +0.027 A 
ATOM     20  C   UNL     1      -0.502   0.241  -0.359  0.00  0.00    +0.047 A 
ATOM     21  N   UNL     1      -1.627  -0.547  -0.286  0.00  0.00    -0.358 N 
ATOM     22  H   UNL     1      -2.419  -0.438  -0.835  0.00  0.00    +0.166 HD
ATOM     23  C   UNL     1       0.279  -2.256   2.345  0.00  0.00    +0.040 C 
ENDBRANCH   1  17
BRANCH   6  24
ATOM     24  C   UNL     1       3.528   7.222   1.932  0.00  0.00    +0.220 C 
ATOM     25  O   UNL     1       4.391   7.230   2.784  0.00  0.00    -0.275 OA
ATOM     26  N   UNL     1       2.578   8.177   1.925  0.00  0.00    -0.285 N 
ATOM     27  H   UNL     1       1.845   8.128   1.292  0.00  0.00    +0.155 HD
BRANCH  26  28
ATOM     28  C   UNL     1       2.650   9.243   2.832  0.00  0.00    +0.037 A 
ATOM     29  C   UNL     1       3.886   9.736   3.228  0.00  0.00    +0.027 A 
ATOM     30  C   UNL     1       3.958  10.786   4.122  0.00  0.00    +0.051 A 
ATOM     31  C   UNL     1       2.798  11.351   4.628  0.00  0.00    +0.166 A 
ATOM     32  C   UNL     1       1.556  10.858   4.233  0.00  0.00    +0.168 A 
ATOM     33  C   UNL     1       1.485   9.809   3.331  0.00  0.00    +0.072 A 
ATOM     34  O   UNL     1       0.582  11.575   4.864  0.00  0.00    -0.453 OA
ATOM     35  C   UNL     1       1.228  12.774   5.331  0.00  0.00    +0.466 C 
ATOM     36  O   UNL     1       2.600  12.377   5.507  0.00  0.00    -0.453 OA
ENDBRANCH  26  28
ENDBRANCH   6  24
TORSDOF 3
