REMARK  Name = ZINC10694094
REMARK  6 active torsions:
REMARK  status: ('A' for Active; 'I' for Inactive)
REMARK    1  A    between atoms: C_1  and  C_2
REMARK    2  A    between atoms: C_2  and  O_3
REMARK    3  A    between atoms: O_3  and  C_4
REMARK    4  A    between atoms: C_15  and  C_17
REMARK    5  A    between atoms: C_18  and  C_19
REMARK    6  A    between atoms: C_22  and  N_25
REMARK                            x       y       z     vdW  Elec       q    Type
REMARK                         _______ _______ _______ _____ _____    ______ ____
ROOT
ATOM      1  C   UNL     1      -2.121  11.285   0.458  0.00  0.00    +0.403 C 
ATOM      2  O   UNL     1      -3.077  12.019   0.612  0.00  0.00    -0.226 OA
ATOM      3  N   UNL     1      -2.030  10.140   1.163  0.00  0.00    -0.262 N 
ATOM      4  C   UNL     1      -3.071   9.750   2.126  0.00  0.00    +0.117 C 
ATOM      5  C   UNL     1      -3.755   8.464   1.659  0.00  0.00    +0.075 C 
ATOM      6  C   UNL     1      -2.692   7.442   1.275  0.00  0.00    +0.057 A 
ATOM      7  C   UNL     1      -1.424   7.837   0.988  0.00  0.00    +0.032 A 
ATOM      8  S   UNL     1      -0.612   6.308   0.612  0.00  0.00    -0.055 S 
ATOM      9  C   UNL     1      -1.986   5.272   0.859  0.00  0.00    +0.165 A 
ATOM     10  N   UNL     1      -2.925   6.134   1.191  0.00  0.00    -0.229 NA
ATOM     11  N   UNL     1      -2.073   3.892   0.732  0.00  0.00    -0.261 N 
ATOM     12  C   UNL     1      -0.987   3.179   0.373  0.00  0.00    +0.243 C 
ATOM     13  O   UNL     1       0.069   3.744   0.158  0.00  0.00    -0.270 OA
ATOM     14  C   UNL     1      -0.880   9.226   0.999  0.00  0.00    +0.155 C 
ATOM     15  H   UNL     1      -2.915   3.441   0.903  0.00  0.00    +0.157 HD
ENDROOT
BRANCH  12  16
ATOM     16  C   UNL     1      -1.079   1.724   0.239  0.00  0.00    +0.068 C 
ATOM     17  C   UNL     1      -0.035   1.025  -0.251  0.00  0.00    +0.013 C 
BRANCH  17  18
ATOM     18  C   UNL     1       1.091   1.731  -0.884  0.00  0.00    -0.025 A 
ATOM     19  C   UNL     1       0.851   2.719  -1.843  0.00  0.00    +0.010 A 
ATOM     20  C   UNL     1       1.911   3.379  -2.428  0.00  0.00    +0.033 A 
ATOM     21  C   UNL     1       3.210   3.058  -2.076  0.00  0.00    +0.126 A 
ATOM     22  C   UNL     1       3.457   2.077  -1.131  0.00  0.00    +0.033 A 
ATOM     23  C   UNL     1       2.407   1.412  -0.533  0.00  0.00    +0.010 A 
BRANCH  21  24
ATOM     24  N   UNL     1       4.343   3.768  -2.712  0.00  0.00    +0.056 N 
ATOM     25  O   UNL     1       5.487   3.487  -2.405  0.00  0.00    -0.126 OA
ATOM     26  O   UNL     1       4.130   4.632  -3.544  0.00  0.00    -0.126 OA
ENDBRANCH  21  24
ENDBRANCH  17  18
ENDBRANCH  12  16
BRANCH   1  27
ATOM     27  O   UNL     1      -1.153  11.616  -0.417  0.00  0.00    -0.451 OA
BRANCH  27  29
ATOM     28  C   UNL     1      -0.127  13.067  -2.081  0.00  0.00    +0.048 C 
ATOM     29  C   UNL     1      -1.317  12.863  -1.141  0.00  0.00    +0.230 C 
ENDBRANCH  27  29
ENDBRANCH   1  27
TORSDOF 5
