REMARK  Name = ZINC06938713
REMARK  6 active torsions:
REMARK  status: ('A' for Active; 'I' for Inactive)
REMARK    1  A    between atoms: C_4  and  C_7
REMARK    2  A    between atoms: C_7  and  C_8
REMARK    3  A    between atoms: C_8  and  N_9
REMARK    4  A    between atoms: C_12  and  N_24
REMARK    5  A    between atoms: C_13  and  C_15
REMARK    6  A    between atoms: C_15  and  C_17
REMARK                            x       y       z     vdW  Elec       q    Type
REMARK                         _______ _______ _______ _____ _____    ______ ____
ROOT
ATOM      1  N   UNL     1       5.487  -1.708  -0.895  0.00  0.00    -0.287 N 
ATOM      2  C   UNL     1       5.476  -3.058  -1.091  0.00  0.00    +0.099 A 
ATOM      3  C   UNL     1       6.638  -3.750  -1.468  0.00  0.00    +0.092 A 
ATOM      4  C   UNL     1       6.498  -5.137  -1.639  0.00  0.00    +0.057 A 
ATOM      5  C   UNL     1       5.244  -5.693  -1.422  0.00  0.00    +0.083 A 
ATOM      6  S   UNL     1       4.260  -4.274  -0.979  0.00  0.00    -0.065 S 
ATOM      7  C   UNL     1       7.851  -2.915  -1.635  0.00  0.00    +0.264 A 
ATOM      8  O   UNL     1       8.908  -3.423  -1.960  0.00  0.00    -0.267 OA
ATOM      9  N   UNL     1       7.770  -1.590  -1.421  0.00  0.00    -0.274 N 
ATOM     10  H   UNL     1       8.591  -1.030  -1.531  0.00  0.00    +0.173 HD
ATOM     11  C   UNL     1       6.619  -0.998  -1.065  0.00  0.00    +0.330 A 
ATOM     12  O   UNL     1       6.598   0.205  -0.889  0.00  0.00    -0.246 OA
ENDROOT
BRANCH   4  13
ATOM     13  N   UNL     1       7.576  -5.925  -2.011  0.00  0.00    -0.356 N 
ATOM     14  H   UNL     1       7.461  -6.881  -2.124  0.00  0.00    +0.142 HD
ATOM     15  H   UNL     1       8.445  -5.519  -2.158  0.00  0.00    +0.142 HD
ENDBRANCH   4  13
BRANCH   5  16
ATOM     16  C   UNL     1       4.848  -7.043  -1.526  0.00  0.00    +0.204 C 
ATOM     17  O   UNL     1       5.683  -7.910  -1.719  0.00  0.00    -0.286 OA
BRANCH  16  18
ATOM     18  C   UNL     1       3.420  -7.406  -1.401  0.00  0.00    +0.058 A 
ATOM     19  C   UNL     1       2.442  -6.410  -1.385  0.00  0.00    +0.014 A 
ATOM     20  C   UNL     1       1.112  -6.755  -1.269  0.00  0.00    +0.001 A 
ATOM     21  C   UNL     1       0.744  -8.086  -1.169  0.00  0.00    +0.003 A 
ATOM     22  C   UNL     1       1.705  -9.079  -1.184  0.00  0.00    +0.039 A 
ATOM     23  C   UNL     1       3.043  -8.748  -1.305  0.00  0.00    +0.134 A 
ATOM     24  F   UNL     1       3.982  -9.719  -1.325  0.00  0.00    -0.205 F 
ENDBRANCH  16  18
ENDBRANCH   5  16
BRANCH   1  25
ATOM     25  C   UNL     1       4.254  -1.023  -0.502  0.00  0.00    +0.132 C 
BRANCH  25  26
ATOM     26  C   UNL     1       4.154  -0.988   1.025  0.00  0.00    +0.057 C 
BRANCH  26  30
ATOM     27  C   UNL     1       0.557   1.010   2.172  0.00  0.00    +0.000 A 
ATOM     28  C   UNL     1       1.724   1.731   2.001  0.00  0.00    +0.000 A 
ATOM     29  C   UNL     1       2.888   1.085   1.630  0.00  0.00    +0.004 A 
ATOM     30  C   UNL     1       2.885  -0.283   1.429  0.00  0.00    -0.046 A 
ATOM     31  C   UNL     1       1.718  -1.004   1.600  0.00  0.00    +0.004 A 
ATOM     32  C   UNL     1       0.554  -0.357   1.972  0.00  0.00    +0.000 A 
ENDBRANCH  26  30
ENDBRANCH  25  26
ENDBRANCH   1  25
TORSDOF 6
