REMARK  Name = ZINC03306347
REMARK  5 active torsions:
REMARK  status: ('A' for Active; 'I' for Inactive)
REMARK    1  A    between atoms: C_1  and  C_2
REMARK    2  A    between atoms: C_9  and  N_14
REMARK    3  A    between atoms: C_10  and  C_11
REMARK    4  A    between atoms: C_15  and  C_17
REMARK    5  A    between atoms: C_17  and  N_18
REMARK                            x       y       z     vdW  Elec       q    Type
REMARK                         _______ _______ _______ _____ _____    ______ ____
ROOT
ATOM      1  N   UNL     1      -4.199   0.911   1.691  0.00  0.00    -0.278 N 
ATOM      2  C   UNL     1      -2.950   1.351   1.442  0.00  0.00    +0.236 C 
ATOM      3  O   UNL     1      -2.203   1.607   2.362  0.00  0.00    -0.274 OA
ATOM      4  H   UNL     1      -4.797   0.707   0.955  0.00  0.00    +0.155 HD
ENDROOT
BRANCH   1  12
ATOM      5  C   UNL     1      -6.271   0.229   9.203  0.00  0.00    +0.008 C 
ATOM      6  C   UNL     1      -6.338   0.520   7.702  0.00  0.00    -0.009 C 
ATOM      7  C   UNL     1      -7.074  -0.620   6.991  0.00  0.00    +0.008 C 
ATOM      8  C   UNL     1      -7.364  -0.227   5.541  0.00  0.00    +0.037 C 
ATOM      9  C   UNL     1      -6.066   0.234   4.889  0.00  0.00    -0.023 A 
ATOM     10  C   UNL     1      -5.003   0.601   5.638  0.00  0.00    -0.004 A 
ATOM     11  S   UNL     1      -3.753   1.041   4.465  0.00  0.00    -0.077 S 
ATOM     12  C   UNL     1      -4.630   0.751   2.999  0.00  0.00    +0.084 A 
ATOM     13  C   UNL     1      -5.867   0.315   3.453  0.00  0.00    +0.068 A 
ATOM     14  C   UNL     1      -4.916   0.622   7.133  0.00  0.00    +0.046 C 
BRANCH  13  15
ATOM     15  C   UNL     1      -6.934  -0.052   2.516  0.00  0.00    +0.244 C 
ATOM     16  O   UNL     1      -7.028  -1.199   2.119  0.00  0.00    -0.270 OA
ATOM     17  N   UNL     1      -7.810   0.881   2.094  0.00  0.00    -0.325 N 
ATOM     18  H   UNL     1      -7.734   1.795   2.409  0.00  0.00    +0.145 HD
ATOM     19  H   UNL     1      -8.515   0.639   1.474  0.00  0.00    +0.145 HD
ENDBRANCH  13  15
ENDBRANCH   1  12
BRANCH   2  20
ATOM     20  C   UNL     1      -2.482   1.525   0.020  0.00  0.00    +0.214 C 
BRANCH  20  21
ATOM     21  N   UNL     1      -1.099   2.010   0.017  0.00  0.00    -0.215 N 
ATOM     22  C   UNL     1      -0.014   1.208   0.009  0.00  0.00    +0.247 C 
ATOM     23  O   UNL     1       0.002  -0.004   0.002  0.00  0.00    -0.273 OA
ATOM     24  C   UNL     1       1.176   2.139   0.002  0.00  0.00    +0.113 C 
ATOM     25  C   UNL     1       2.005   1.935  -1.261  0.00  0.00    +0.035 C 
ATOM     26  C   UNL     1       3.187   2.907  -1.262  0.00  0.00    +0.003 C 
ATOM     27  C   UNL     1       4.049   2.661  -0.022  0.00  0.00    +0.000 C 
ATOM     28  C   UNL     1       3.211   2.893   1.237  0.00  0.00    +0.003 C 
ATOM     29  C   UNL     1       2.028   1.921   1.248  0.00  0.00    +0.035 C 
ATOM     30  N   UNL     1       0.579   3.481   0.015  0.00  0.00    -0.285 N 
ATOM     31  C   UNL     1      -0.756   3.304   0.027  0.00  0.00    +0.310 C 
ATOM     32  O   UNL     1      -1.558   4.216   0.039  0.00  0.00    -0.252 OA
ATOM     33  H   UNL     1       1.053   4.327   0.015  0.00  0.00    +0.151 HD
ENDBRANCH  20  21
ENDBRANCH   2  20
TORSDOF 4
