REMARK  Name = ZINC12007189
REMARK  10 active torsions:
REMARK  status: ('A' for Active; 'I' for Inactive)
REMARK    1  A    between atoms: C_1  and  C_2
REMARK    2  A    between atoms: C_2  and  C_3
REMARK    3  A    between atoms: C_3  and  C_4
REMARK    4  A    between atoms: C_13  and  N_22
REMARK    5  A    between atoms: C_15  and  C_17
REMARK    6  A    between atoms: C_23  and  C_25
REMARK    7  A    between atoms: C_28  and  O_31
REMARK    8  A    between atoms: O_31  and  C_32
REMARK    9  A    between atoms: C_32  and  C_33
REMARK   10  A    between atoms: C_32  and  C_34
REMARK                            x       y       z     vdW  Elec       q    Type
REMARK                         _______ _______ _______ _____ _____    ______ ____
ROOT
ATOM      1  C   UNL     1       0.509   6.870  -0.502  0.00  0.00    +0.050 A 
ATOM      2  C   UNL     1       0.238   8.206  -0.538  0.00  0.00    +0.093 A 
ATOM      3  C   UNL     1      -1.085   8.625  -0.773  0.00  0.00    +0.253 A 
ATOM      4  O   UNL     1      -1.364   9.812  -0.812  0.00  0.00    -0.268 OA
ATOM      5  N   UNL     1      -2.038   7.687  -0.962  0.00  0.00    -0.291 N 
ATOM      6  H   UNL     1      -2.956   7.953  -1.129  0.00  0.00    +0.172 HD
ATOM      7  C   UNL     1      -1.708   6.369  -0.909  0.00  0.00    +0.234 A 
ATOM      8  N   UNL     1      -0.469   5.985  -0.689  0.00  0.00    -0.217 NA
ATOM      9  N   UNL     1      -2.690   5.416  -1.097  0.00  0.00    -0.184 N 
ATOM     10  C   UNL     1      -2.509   4.062  -1.078  0.00  0.00    +0.133 A 
ATOM     11  C   UNL     1      -3.717   3.482  -1.296  0.00  0.00    +0.077 A 
ATOM     12  C   UNL     1      -4.667   4.512  -1.460  0.00  0.00    +0.130 A 
ATOM     13  N   UNL     1      -4.045   5.668  -1.343  0.00  0.00    -0.159 NA
ENDROOT
BRANCH  12  14
ATOM     14  C   UNL     1      -6.110   4.327  -1.719  0.00  0.00    +0.155 A 
ATOM     15  C   UNL     1      -7.027   5.318  -1.871  0.00  0.00    +0.051 A 
ATOM     16  C   UNL     1      -8.269   4.692  -2.101  0.00  0.00    +0.042 A 
ATOM     17  C   UNL     1      -8.051   3.362  -2.069  0.00  0.00    +0.196 A 
ATOM     18  O   UNL     1      -6.746   3.145  -1.838  0.00  0.00    -0.461 OA
ENDBRANCH  12  14
BRANCH  10  19
ATOM     19  N   UNL     1      -1.304   3.397  -0.867  0.00  0.00    -0.266 N 
ATOM     20  C   UNL     1      -1.269   2.050  -0.868  0.00  0.00    +0.249 C 
ATOM     21  O   UNL     1      -2.290   1.415  -1.054  0.00  0.00    -0.270 OA
ATOM     22  H   UNL     1      -0.490   3.903  -0.719  0.00  0.00    +0.157 HD
BRANCH  20  23
ATOM     23  C   UNL     1       0.007   1.345  -0.644  0.00  0.00    +0.037 A 
ATOM     24  C   UNL     1       1.183   2.072  -0.437  0.00  0.00    +0.016 A 
ATOM     25  C   UNL     1       2.373   1.411  -0.234  0.00  0.00    +0.046 A 
ATOM     26  C   UNL     1       2.407   0.021  -0.236  0.00  0.00    +0.121 A 
ATOM     27  C   UNL     1       1.241  -0.706  -0.442  0.00  0.00    +0.046 A 
ATOM     28  C   UNL     1       0.046  -0.052  -0.645  0.00  0.00    +0.016 A 
BRANCH  26  29
ATOM     29  O   UNL     1       3.582  -0.627  -0.035  0.00  0.00    -0.489 OA
BRANCH  29  30
ATOM     30  C   UNL     1       3.528  -2.052   0.068  0.00  0.00    +0.167 C 
ATOM     31  C   UNL     1       3.559  -2.667  -1.332  0.00  0.00    +0.051 C 
ATOM     32  C   UNL     1       4.731  -2.550   0.871  0.00  0.00    +0.051 C 
ENDBRANCH  29  30
ENDBRANCH  26  29
ENDBRANCH  20  23
ENDBRANCH  10  19
BRANCH   1  33
ATOM     33  C   UNL     1       1.917   6.394  -0.252  0.00  0.00    +0.055 C 
BRANCH  33  35
ATOM     34  C   UNL     1       3.527   5.616   1.492  0.00  0.00    +0.004 C 
ATOM     35  C   UNL     1       2.098   6.099   1.238  0.00  0.00    +0.003 C 
ENDBRANCH  33  35
ENDBRANCH   1  33
TORSDOF 7
