REMARK  Name = ZINC63751699
REMARK  5 active torsions:
REMARK  status: ('A' for Active; 'I' for Inactive)
REMARK    1  A    between atoms: C_8  and  C_13
REMARK    2  A    between atoms: C_13  and  S_14
REMARK    3  A    between atoms: S_14  and  C_15
REMARK    4  A    between atoms: C_18  and  N_21
REMARK    5  A    between atoms: C_22  and  C_24
REMARK                            x       y       z     vdW  Elec       q    Type
REMARK                         _______ _______ _______ _____ _____    ______ ____
ROOT
ATOM      1  S   UNL     1       1.431  -4.748   1.156  0.00  0.00    -0.123 S 
ENDROOT
BRANCH   1   2
ATOM      2  C   UNL     1       1.669  -5.704   2.618  0.00  0.00    +0.008 A 
ATOM      3  C   UNL     1       2.826  -5.546   3.370  0.00  0.00    +0.016 A 
ATOM      4  C   UNL     1       3.012  -6.295   4.515  0.00  0.00    +0.024 A 
ATOM      5  C   UNL     1       2.042  -7.205   4.915  0.00  0.00    +0.034 A 
ATOM      6  C   UNL     1       0.885  -7.363   4.163  0.00  0.00    +0.024 A 
ATOM      7  C   UNL     1       0.696  -6.611   3.021  0.00  0.00    +0.016 A 
BRANCH   5   8
ATOM      8  N   UNL     1       2.231  -7.965   6.076  0.00  0.00    -0.279 N 
ATOM      9  C   UNL     1       2.897  -7.440   7.124  0.00  0.00    +0.284 C 
ATOM     10  O   UNL     1       3.250  -6.275   7.099  0.00  0.00    -0.266 OA
ATOM     11  H   UNL     1       1.883  -8.869   6.127  0.00  0.00    +0.155 HD
BRANCH   9  12
ATOM     12  C   UNL     1       3.196  -8.271   8.294  0.00  0.00    +0.189 A 
ATOM     13  C   UNL     1       3.855  -7.866   9.419  0.00  0.00    +0.054 A 
ATOM     14  C   UNL     1       3.916  -8.978  10.273  0.00  0.00    +0.042 A 
ATOM     15  C   UNL     1       3.300 -10.001   9.640  0.00  0.00    +0.196 A 
ATOM     16  O   UNL     1       2.863  -9.569   8.450  0.00  0.00    -0.458 OA
ENDBRANCH   9  12
ENDBRANCH   5   8
ENDBRANCH   1   2
BRANCH   1  17
ATOM     17  C   UNL     1       2.931  -3.735   1.046  0.00  0.00    +0.108 C 
BRANCH  17  25
ATOM     18  C   UNL     1       0.679   1.448  -0.053  0.00  0.00    +0.002 A 
ATOM     19  C   UNL     1       1.944   2.047  -0.170  0.00  0.00    +0.002 A 
ATOM     20  C   UNL     1       3.088   1.330  -0.263  0.00  0.00    +0.025 A 
ATOM     21  C   UNL     1       3.052  -0.082  -0.244  0.00  0.00    +0.057 A 
ATOM     22  N   UNL     1       4.173  -0.777  -0.335  0.00  0.00    -0.282 N 
ATOM     23  C   UNL     1       4.171  -2.112  -0.320  0.00  0.00    +0.240 C 
ATOM     24  O   UNL     1       5.215  -2.729  -0.404  0.00  0.00    -0.273 OA
ATOM     25  C   UNL     1       2.855  -2.845  -0.197  0.00  0.00    +0.176 C 
ATOM     26  N   UNL     1       1.626  -2.042  -0.098  0.00  0.00    -0.372 N 
ATOM     27  C   UNL     1       1.729  -0.745  -0.121  0.00  0.00    +0.057 A 
ATOM     28  C   UNL     1       0.530   0.105  -0.025  0.00  0.00    +0.027 A 
ATOM     29  H   UNL     1       0.759  -2.470  -0.018  0.00  0.00    +0.160 HD
ATOM     30  H   UNL     1       5.016  -0.306  -0.414  0.00  0.00    +0.155 HD
ENDBRANCH  17  25
ENDBRANCH   1  17
TORSDOF 5
