REMARK  Name = ZINC37326196
REMARK  5 active torsions:
REMARK  status: ('A' for Active; 'I' for Inactive)
REMARK    1  A    between atoms: C_1  and  C_2
REMARK    2  A    between atoms: C_8  and  N_10
REMARK    3  A    between atoms: N_10  and  S_11
REMARK    4  A    between atoms: S_11  and  C_14
REMARK    5  A    between atoms: C_18  and  N_20
REMARK                            x       y       z     vdW  Elec       q    Type
REMARK                         _______ _______ _______ _____ _____    ______ ____
ROOT
ATOM      1  S   UNL     1       0.932   0.360   3.795  0.00  0.00    +0.059 S 
ATOM      2  O   UNL     1      -0.003   0.801   4.770  0.00  0.00    -0.153 OA
ATOM      3  O   UNL     1       1.827  -0.718   4.031  0.00  0.00    -0.153 OA
ENDROOT
BRANCH   1   4
ATOM      4  C   UNL     1       1.922   1.756   3.379  0.00  0.00    +0.107 A 
ATOM      5  C   UNL     1       3.189   1.574   2.855  0.00  0.00    +0.030 A 
ATOM      6  C   UNL     1       3.966   2.668   2.528  0.00  0.00    +0.024 A 
ATOM      7  C   UNL     1       3.477   3.948   2.726  0.00  0.00    +0.071 A 
ATOM      8  C   UNL     1       2.210   4.130   3.250  0.00  0.00    +0.146 A 
ATOM      9  C   UNL     1       1.431   3.034   3.571  0.00  0.00    +0.062 A 
ATOM     10 CL   UNL     1       4.453   5.324   2.316  0.00  0.00    -0.081 Cl
BRANCH   8  11
ATOM     11  N   UNL     1       1.686   5.498   3.461  0.00  0.00    +0.058 N 
ATOM     12  O   UNL     1       0.578   5.657   3.920  0.00  0.00    -0.126 OA
ATOM     13  O   UNL     1       2.365   6.456   3.176  0.00  0.00    -0.126 OA
ENDBRANCH   8  11
ENDBRANCH   1   4
BRANCH   1  14
ATOM     14  N   UNL     1       0.056  -0.038   2.447  0.00  0.00    -0.187 NA
ATOM     15  H   UNL     1      -0.910   0.041   2.455  0.00  0.00    +0.148 HD
BRANCH  14  22
ATOM     16  C   UNL     1      -0.019   1.526   0.010  0.00  0.00    +0.009 C 
ATOM     17  C   UNL     1       0.002  -0.004   0.002  0.00  0.00    +0.005 C 
ATOM     18  C   UNL     1       0.718  -0.497  -1.257  0.00  0.00    +0.005 C 
ATOM     19  C   UNL     1       0.739  -2.027  -1.265  0.00  0.00    +0.000 C 
ATOM     20  C   UNL     1       1.479  -2.534  -0.026  0.00  0.00    +0.002 C 
ATOM     21  C   UNL     1       0.763  -2.041   1.233  0.00  0.00    +0.020 C 
ATOM     22  C   UNL     1       0.742  -0.511   1.242  0.00  0.00    +0.079 C 
ENDBRANCH  14  22
ENDBRANCH   1  14
TORSDOF 4
