REMARK  Name = ZINC29568985
REMARK  8 active torsions:
REMARK  status: ('A' for Active; 'I' for Inactive)
REMARK    1  A    between atoms: C_1  and  C_2
REMARK    2  A    between atoms: C_2  and  C_3
REMARK    3  A    between atoms: C_2  and  C_4
REMARK    4  A    between atoms: C_2  and  O_5
REMARK    5  A    between atoms: O_5  and  C_6
REMARK    6  A    between atoms: C_17  and  C_19
REMARK    7  A    between atoms: C_19  and  C_20
REMARK    8  A    between atoms: C_20  and  N_21
REMARK                            x       y       z     vdW  Elec       q    Type
REMARK                         _______ _______ _______ _____ _____    ______ ____
ROOT
ATOM      1  C   UNL     1      -1.165  -3.197  -1.045  0.00  0.00    +0.404 C 
ATOM      2  O   UNL     1      -0.674  -4.294  -1.223  0.00  0.00    -0.226 OA
ATOM      3  N   UNL     1      -0.562  -2.313  -0.226  0.00  0.00    -0.262 N 
ATOM      4  C   UNL     1       0.693  -2.645   0.466  0.00  0.00    +0.117 C 
ATOM      5  C   UNL     1       1.816  -1.732  -0.029  0.00  0.00    +0.075 C 
ATOM      6  C   UNL     1       1.331  -0.287  -0.013  0.00  0.00    +0.057 A 
ATOM      7  C   UNL     1       0.002  -0.004   0.002  0.00  0.00    +0.032 A 
ATOM      8  S   UNL     1      -0.022   1.767   0.012  0.00  0.00    -0.055 S 
ATOM      9  C   UNL     1       1.701   2.002  -0.003  0.00  0.00    +0.165 A 
ATOM     10  N   UNL     1       2.148   0.764  -0.014  0.00  0.00    -0.229 NA
ATOM     11  N   UNL     1       2.420   3.192  -0.004  0.00  0.00    -0.265 N 
ATOM     12  C   UNL     1       1.771   4.372   0.009  0.00  0.00    +0.220 C 
ATOM     13  O   UNL     1       0.558   4.397   0.021  0.00  0.00    -0.275 OA
ATOM     14  C   UNL     1      -1.134  -0.971   0.011  0.00  0.00    +0.155 C 
ATOM     15  H   UNL     1       3.520   3.169  -0.015  0.00  0.00    +0.157 HD
ENDROOT
BRANCH   1  16
ATOM     16  O   UNL     1      -2.313  -2.865  -1.665  0.00  0.00    -0.445 OA
BRANCH  16  18
ATOM     17  C   UNL     1      -3.229  -5.121  -1.718  0.00  0.00    +0.055 C 
ATOM     18  C   UNL     1      -2.907  -3.867  -2.533  0.00  0.00    +0.107 C 
ATOM     19  C   UNL     1      -4.195  -3.312  -3.145  0.00  0.00    +0.055 C 
ATOM     20  C   UNL     1      -1.924  -4.222  -3.650  0.00  0.00    +0.055 C 
ENDBRANCH  16  18
ENDBRANCH   1  16
BRANCH  12  21
ATOM     21  C   UNL     1       2.551   5.662   0.008  0.00  0.00    +0.115 C 
BRANCH  21  22
ATOM     22  C   UNL     1       1.581   6.845   0.025  0.00  0.00    +0.127 C 
BRANCH  22  23
ATOM     23  N   UNL     1       2.340   8.098   0.024  0.00  0.00    -0.224 N 
ATOM     24  C   UNL     1       2.722   8.754  -1.093  0.00  0.00    +0.247 C 
ATOM     25  O   UNL     1       2.512   8.432  -2.243  0.00  0.00    -0.273 OA
ATOM     26  C   UNL     1       3.465   9.971  -0.605  0.00  0.00    +0.113 C 
ATOM     27  C   UNL     1       2.789  11.261  -1.089  0.00  0.00    +0.035 C 
ATOM     28  C   UNL     1       3.971  12.232  -1.341  0.00  0.00    +0.003 C 
ATOM     29  C   UNL     1       5.066  11.300  -1.919  0.00  0.00    +0.003 C 
ATOM     30  C   UNL     1       4.906   9.987  -1.121  0.00  0.00    +0.035 C 
ATOM     31  N   UNL     1       3.421   9.867   0.855  0.00  0.00    -0.285 N 
ATOM     32  C   UNL     1       2.736   8.739   1.131  0.00  0.00    +0.309 C 
ATOM     33  O   UNL     1       2.506   8.347   2.258  0.00  0.00    -0.252 OA
ATOM     34  H   UNL     1       3.901  10.637   1.476  0.00  0.00    +0.151 HD
ENDBRANCH  22  23
ENDBRANCH  21  22
ENDBRANCH  12  21
TORSDOF 5
