REMARK  Name = ZINC63991028
REMARK  10 active torsions:
REMARK  status: ('A' for Active; 'I' for Inactive)
REMARK    1  A    between atoms: C_1  and  C_2
REMARK    2  A    between atoms: C_4  and  C_36
REMARK    3  A    between atoms: C_8  and  C_12
REMARK    4  A    between atoms: C_12  and  S_13
REMARK    5  A    between atoms: S_13  and  C_14
REMARK    6  A    between atoms: C_14  and  C_16
REMARK    7  A    between atoms: C_14  and  C_17
REMARK    8  A    between atoms: N_19  and  C_20
REMARK    9  A    between atoms: C_25  and  N_26
REMARK   10  A    between atoms: C_29  and  C_32
REMARK                            x       y       z     vdW  Elec       q    Type
REMARK                         _______ _______ _______ _____ _____    ______ ____
ROOT
ATOM      1  C   UNL     1      -5.435  -5.748   6.481  0.00  0.00    +0.230 C 
ATOM      2  O   UNL     1      -6.184  -5.890   5.537  0.00  0.00    -0.274 OA
ATOM      3  N   UNL     1      -5.864  -6.020   7.729  0.00  0.00    -0.283 N 
ATOM      4  H   UNL     1      -5.247  -5.969   8.476  0.00  0.00    +0.155 HD
ENDROOT
BRANCH   3   5
ATOM      5  C   UNL     1      -7.202  -6.376   7.948  0.00  0.00    +0.055 A 
ATOM      6  C   UNL     1      -7.886  -7.125   7.003  0.00  0.00    +0.025 A 
ATOM      7  C   UNL     1      -9.205  -7.475   7.220  0.00  0.00    +0.002 A 
ATOM      8  C   UNL     1      -9.848  -7.080   8.380  0.00  0.00    +0.002 A 
ATOM      9  C   UNL     1      -9.174  -6.333   9.328  0.00  0.00    +0.025 A 
ATOM     10  C   UNL     1      -7.848  -5.983   9.120  0.00  0.00    +0.051 A 
BRANCH  10  11
ATOM     11  N   UNL     1      -7.162  -5.232  10.081  0.00  0.00    -0.328 N 
ATOM     12  C   UNL     1      -7.176  -3.764  10.033  0.00  0.00    +0.106 C 
ATOM     13  C   UNL     1      -5.731  -3.256  10.049  0.00  0.00    +0.031 C 
ATOM     14  C   UNL     1      -5.003  -3.838  11.263  0.00  0.00    +0.078 C 
ATOM     15  C   UNL     1      -4.977  -5.365  11.160  0.00  0.00    +0.031 C 
ATOM     16  C   UNL     1      -6.418  -5.897  11.160  0.00  0.00    +0.106 C 
BRANCH  14  17
ATOM     17  C   UNL     1      -3.591  -3.313  11.300  0.00  0.00    +0.214 C 
ATOM     18  O   UNL     1      -3.205  -2.549  10.442  0.00  0.00    -0.276 OA
ATOM     19  N   UNL     1      -2.757  -3.694  12.289  0.00  0.00    -0.329 N 
ATOM     20  H   UNL     1      -3.066  -4.305  12.976  0.00  0.00    +0.145 HD
ATOM     21  H   UNL     1      -1.848  -3.356  12.313  0.00  0.00    +0.145 HD
ENDBRANCH  14  17
ENDBRANCH  10  11
ENDBRANCH   3   5
BRANCH   1  22
ATOM     22  C   UNL     1      -4.024  -5.267   6.257  0.00  0.00    +0.130 C 
ATOM     23  C   UNL     1      -3.085  -6.471   6.160  0.00  0.00    +0.029 C 
BRANCH  22  24
ATOM     24  S   UNL     1      -3.947  -4.315   4.715  0.00  0.00    -0.141 S 
BRANCH  24  25
ATOM     25  C   UNL     1      -2.245  -3.688   4.671  0.00  0.00    +0.143 C 
BRANCH  25  32
ATOM     26  C   UNL     1       0.035   1.463  -0.010  0.00  0.00    +0.024 C 
ATOM     27  C   UNL     1       0.044  -0.067  -0.015  0.00  0.00    +0.076 C 
ATOM     28  C   UNL     1      -1.362  -0.617   0.074  0.00  0.00    -0.045 C 
ATOM     29  C   UNL     1      -1.671  -1.368   1.142  0.00  0.00    +0.071 C 
ATOM     30  C   UNL     1      -0.614  -1.599   2.149  0.00  0.00    +0.111 C 
ATOM     31  N   UNL     1      -0.856  -2.324   3.215  0.00  0.00    -0.227 NA
ATOM     32  C   UNL     1      -2.044  -2.868   3.423  0.00  0.00    +0.133 C 
ATOM     33  N   UNL     1      -3.056  -2.731   2.600  0.00  0.00    -0.161 NA
ATOM     34  C   UNL     1      -2.978  -2.025   1.468  0.00  0.00    +0.271 C 
ATOM     35  O   UNL     1      -3.938  -1.918   0.725  0.00  0.00    -0.268 OA
ATOM     36  S   UNL     1       0.802  -0.726   1.526  0.00  0.00    -0.098 S 
ATOM     37  C   UNL     1      -2.380  -0.331  -0.999  0.00  0.00    +0.041 C 
ENDBRANCH  25  32
ENDBRANCH  24  25
ENDBRANCH  22  24
ENDBRANCH   1  22
TORSDOF 7
