REMARK  Name = ZINC13153929
REMARK  9 active torsions:
REMARK  status: ('A' for Active; 'I' for Inactive)
REMARK    1  A    between atoms: C_1  and  C_2
REMARK    2  A    between atoms: C_2  and  O_3
REMARK    3  A    between atoms: O_3  and  C_4
REMARK    4  A    between atoms: C_6  and  C_11
REMARK    5  A    between atoms: C_9  and  O_10
REMARK    6  A    between atoms: C_13  and  C_25
REMARK    7  A    between atoms: C_15  and  C_20
REMARK    8  A    between atoms: C_15  and  O_24
REMARK    9  A    between atoms: C_25  and  C_27
REMARK                            x       y       z     vdW  Elec       q    Type
REMARK                         _______ _______ _______ _____ _____    ______ ____
ROOT
ATOM      1  C   UNL     1      -0.010   1.202   0.085  0.00  0.00    +0.120 C 
ATOM      2  C   UNL     1      -0.691   2.050  -0.994  0.00  0.00    +0.144 C 
ATOM      3  C   UNL     1      -0.853   3.478  -0.462  0.00  0.00    +0.243 C 
ATOM      4  N   UNL     1      -1.583   3.438   0.806  0.00  0.00    -0.264 N 
ATOM      5  C   UNL     1      -1.511   2.374   1.619  0.00  0.00    +0.302 C 
ATOM      6  O   UNL     1      -2.129   2.397   2.667  0.00  0.00    -0.253 OA
ATOM      7  N   UNL     1      -0.784   1.285   1.324  0.00  0.00    -0.292 N 
ATOM      8  H   UNL     1      -2.128   4.198   1.064  0.00  0.00    +0.153 HD
ATOM      9  H   UNL     1      -0.772   0.539   1.943  0.00  0.00    +0.151 HD
ENDROOT
BRANCH   1  12
ATOM     10  C   UNL     1       3.693   1.840  -0.310  0.00  0.00    +0.162 A 
ATOM     11  C   UNL     1       2.411   1.361  -0.528  0.00  0.00    +0.055 A 
ATOM     12  C   UNL     1       1.385   1.719   0.326  0.00  0.00    -0.023 A 
ATOM     13  C   UNL     1       1.636   2.546   1.405  0.00  0.00    +0.009 A 
ATOM     14  C   UNL     1       2.914   3.024   1.631  0.00  0.00    +0.049 A 
ATOM     15  C   UNL     1       3.946   2.673   0.775  0.00  0.00    +0.158 A 
BRANCH  15  16
ATOM     16  O   UNL     1       5.203   3.142   0.997  0.00  0.00    -0.503 OA
ATOM     17  H   UNL     1       5.742   2.571   1.561  0.00  0.00    +0.292 HD
ENDBRANCH  15  16
BRANCH  10  18
ATOM     18  O   UNL     1       4.702   1.493  -1.153  0.00  0.00    -0.489 OA
BRANCH  18  20
ATOM     19  C   UNL     1       5.623   0.357  -3.077  0.00  0.00    +0.048 C 
ATOM     20  C   UNL     1       4.369   0.635  -2.246  0.00  0.00    +0.226 C 
ENDBRANCH  18  20
ENDBRANCH  10  18
ENDBRANCH   1  12
BRANCH   3  21
ATOM     21  C   UNL     1      -1.634   4.316  -1.476  0.00  0.00    +0.436 C 
ATOM     22  F   UNL     1      -2.954   3.857  -1.542  0.00  0.00    -0.166 F 
ATOM     23  F   UNL     1      -1.626   5.657  -1.077  0.00  0.00    -0.166 F 
ATOM     24  F   UNL     1      -1.036   4.201  -2.735  0.00  0.00    -0.166 F 
ENDBRANCH   3  21
BRANCH   3  25
ATOM     25  O   UNL     1       0.437   4.058  -0.253  0.00  0.00    -0.364 OA
ATOM     26  H   UNL     1       0.410   4.964   0.084  0.00  0.00    +0.212 HD
ENDBRANCH   3  25
BRANCH   2  27
ATOM     27  C   UNL     1      -2.045   1.470  -1.314  0.00  0.00    +0.173 C 
ATOM     28  O   UNL     1      -2.908   1.439  -0.464  0.00  0.00    -0.292 OA
BRANCH  27  29
ATOM     29  C   UNL     1      -2.318   0.940  -2.659  0.00  0.00    +0.018 A 
ATOM     30  C   UNL     1      -1.369   1.081  -3.677  0.00  0.00    +0.013 A 
ATOM     31  C   UNL     1      -1.630   0.579  -4.933  0.00  0.00    +0.020 A 
ATOM     32  C   UNL     1      -2.833  -0.057  -5.192  0.00  0.00    +0.041 A 
ATOM     33  C   UNL     1      -3.780  -0.197  -4.190  0.00  0.00    +0.020 A 
ATOM     34  C   UNL     1      -3.531   0.297  -2.928  0.00  0.00    +0.013 A 
ATOM     35 CL   UNL     1      -3.156  -0.681  -6.779  0.00  0.00    -0.084 Cl
ENDBRANCH  27  29
ENDBRANCH   2  27
TORSDOF 8
