REMARK  Name = ZINC17208498
REMARK  11 active torsions:
REMARK  status: ('A' for Active; 'I' for Inactive)
REMARK    1  A    between atoms: C_1  and  C_2
REMARK    2  A    between atoms: C_2  and  C_3
REMARK    3  A    between atoms: C_2  and  C_4
REMARK    4  A    between atoms: C_4  and  C_5
REMARK    5  A    between atoms: C_5  and  C_7
REMARK    6  A    between atoms: C_5  and  N_14
REMARK    7  A    between atoms: N_9  and  C_10
REMARK    8  A    between atoms: C_10  and  C_11
REMARK    9  A    between atoms: C_15  and  C_17
REMARK   10  A    between atoms: C_23  and  C_25
REMARK   11  A    between atoms: C_25  and  C_30
REMARK                            x       y       z     vdW  Elec       q    Type
REMARK                         _______ _______ _______ _____ _____    ______ ____
ROOT
ATOM      1  C   UNL     1       8.429   1.420   0.427  0.00  0.00    +0.162 C 
ATOM      2  C   UNL     1       8.179   2.619   1.366  0.00  0.00    +0.033 C 
ATOM      3  C   UNL     1       9.512   2.731   2.151  0.00  0.00    +0.021 C 
ATOM      4  C   UNL     1       9.914   1.242   2.295  0.00  0.00    +0.108 C 
ATOM      5  N   UNL     1       9.505   0.616   1.024  0.00  0.00    -0.289 N 
ATOM      6  C   UNL     1      10.030  -0.508   0.498  0.00  0.00    +0.227 C 
ATOM      7  O   UNL     1       9.557  -0.983  -0.513  0.00  0.00    -0.275 OA
ENDROOT
BRANCH   6   8
ATOM      8  C   UNL     1      11.206  -1.175   1.165  0.00  0.00    +0.069 C 
ATOM      9  C   UNL     1      11.581  -2.443   0.392  0.00  0.00    +0.002 C 
ATOM     10  C   UNL     1      10.407  -3.424   0.430  0.00  0.00    -0.081 C 
ATOM     11  C   UNL     1       9.680  -2.560   2.575  0.00  0.00    -0.081 C 
ATOM     12  C   UNL     1      10.833  -1.553   2.601  0.00  0.00    +0.002 C 
ATOM     13  N   UNL     1      10.090  -3.766   1.830  0.00  0.00    +0.379 N 
ATOM     14  H   UNL     1      10.921  -4.173   2.275  0.00  0.00    -0.086 HD
ATOM     15  H   UNL     1       9.324  -4.450   1.845  0.00  0.00    -0.086 HD
BRANCH   8  16
ATOM     16  C   UNL     1      12.379  -0.228   1.182  0.00  0.00    -0.033 A 
ATOM     17  C   UNL     1      13.015   0.062   2.374  0.00  0.00    +0.004 A 
ATOM     18  C   UNL     1      14.093   0.927   2.389  0.00  0.00    +0.000 A 
ATOM     19  C   UNL     1      14.530   1.508   1.214  0.00  0.00    +0.000 A 
ATOM     20  C   UNL     1      13.890   1.222   0.022  0.00  0.00    +0.000 A 
ATOM     21  C   UNL     1      12.815   0.353   0.006  0.00  0.00    +0.004 A 
ENDBRANCH   8  16
ENDBRANCH   6   8
BRANCH   1  23
ATOM     22  N   UNL     1       6.054   1.137  -0.203  0.00  0.00    -0.302 N 
ATOM     23  C   UNL     1       7.176   0.592   0.307  0.00  0.00    +0.234 C 
ATOM     24  O   UNL     1       7.177  -0.565   0.670  0.00  0.00    -0.274 OA
ATOM     25  H   UNL     1       6.053   2.063  -0.493  0.00  0.00    +0.150 HD
BRANCH  22  26
ATOM     26  C   UNL     1       4.836   0.332  -0.319  0.00  0.00    +0.159 C 
BRANCH  26  27
ATOM     27  C   UNL     1       3.632   1.239  -0.313  0.00  0.00    +0.234 C 
ATOM     28  O   UNL     1       3.778   2.439  -0.220  0.00  0.00    -0.274 OA
ATOM     29  N   UNL     1       2.394   0.716  -0.410  0.00  0.00    -0.305 N 
ATOM     30  H   UNL     1       2.277  -0.245  -0.484  0.00  0.00    +0.149 HD
BRANCH  29  31
ATOM     31  C   UNL     1       1.224   1.597  -0.404  0.00  0.00    +0.199 C 
BRANCH  31  32
ATOM     32  C   UNL     1      -0.030   0.769  -0.523  0.00  0.00    +0.228 C 
ATOM     33  O   UNL     1       0.047  -0.439  -0.606  0.00  0.00    -0.274 OA
ATOM     34  N   UNL     1      -1.236   1.370  -0.545  0.00  0.00    -0.328 N 
ATOM     35  H   UNL     1      -2.042   0.838  -0.626  0.00  0.00    +0.145 HD
ATOM     36  H   UNL     1      -1.297   2.336  -0.479  0.00  0.00    +0.145 HD
ENDBRANCH  31  32
ENDBRANCH  29  31
ENDBRANCH  26  27
BRANCH  26  37
ATOM     37  C   UNL     1       4.871  -0.460  -1.628  0.00  0.00    +0.034 C 
BRANCH  37  39
ATOM     38  C   UNL     1       5.747  -2.504  -0.490  0.00  0.00    +0.007 C 
ATOM     39  C   UNL     1       6.020  -1.469  -1.583  0.00  0.00    -0.015 C 
ATOM     40  C   UNL     1       6.134  -2.173  -2.936  0.00  0.00    +0.007 C 
ENDBRANCH  37  39
ENDBRANCH  26  37
ENDBRANCH  22  26
ENDBRANCH   1  23
TORSDOF 9
