REMARK  Name = ZINC39225694
REMARK  12 active torsions:
REMARK  status: ('A' for Active; 'I' for Inactive)
REMARK    1  A    between atoms: C_1  and  C_2
REMARK    2  A    between atoms: C_2  and  N_3
REMARK    3  A    between atoms: C_7  and  C_9
REMARK    4  A    between atoms: C_9  and  N_10
REMARK    5  A    between atoms: C_11  and  C_13
REMARK    6  A    between atoms: C_13  and  N_14
REMARK    7  A    between atoms: N_18  and  C_32
REMARK    8  A    between atoms: C_24  and  C_28
REMARK    9  A    between atoms: C_28  and  C_29
REMARK   10  A    between atoms: C_29  and  C_30
REMARK   11  A    between atoms: C_29  and  C_31
REMARK   12  A    between atoms: C_32  and  C_33
REMARK                            x       y       z     vdW  Elec       q    Type
REMARK                         _______ _______ _______ _____ _____    ______ ____
ROOT
ATOM      1  N   UNL     1      -4.554  -2.527   1.966  0.00  0.00    -0.288 N 
ATOM      2  C   UNL     1      -5.216  -3.821   1.882  0.00  0.00    +0.147 C 
ATOM      3  C   UNL     1      -5.418  -4.421   3.277  0.00  0.00    +0.165 C 
ATOM      4  N   UNL     1      -6.289  -5.586   3.183  0.00  0.00    -0.278 NA
ATOM      5  C   UNL     1      -6.996  -5.886   4.432  0.00  0.00    +0.096 C 
ATOM      6  C   UNL     1      -7.940  -4.716   4.741  0.00  0.00    +0.111 C 
ATOM      7  C   UNL     1      -7.108  -3.460   4.804  0.00  0.00    +0.219 C 
ATOM      8  O   UNL     1      -7.507  -2.510   5.442  0.00  0.00    -0.275 OA
ATOM      9  N   UNL     1      -5.954  -3.387   4.158  0.00  0.00    -0.273 N 
ATOM     10  C   UNL     1      -5.130  -2.181   4.369  0.00  0.00    +0.164 C 
ATOM     11  C   UNL     1      -4.538  -1.757   3.054  0.00  0.00    +0.237 C 
ATOM     12  O   UNL     1      -4.024  -0.661   2.979  0.00  0.00    -0.274 OA
ENDROOT
BRANCH   1  13
ATOM     13  C   UNL     1      -3.853  -2.041   0.775  0.00  0.00    +0.203 C 
BRANCH  13  15
ATOM     14  N   UNL     1      -1.583  -2.190  -0.197  0.00  0.00    -0.316 N 
ATOM     15  C   UNL     1      -2.423  -2.518   0.804  0.00  0.00    +0.230 C 
ATOM     16  O   UNL     1      -2.029  -3.197   1.729  0.00  0.00    -0.274 OA
ATOM     17  H   UNL     1      -1.898  -1.646  -0.936  0.00  0.00    +0.149 HD
BRANCH  14  18
ATOM     18  C   UNL     1      -0.193  -2.653  -0.168  0.00  0.00    +0.089 C 
BRANCH  18  23
ATOM     19  N   UNL     1       1.986  -2.457  -1.292  0.00  0.00    +0.382 N 
ATOM     20  C   UNL     1       2.298  -3.232  -2.511  0.00  0.00    -0.078 C 
ATOM     21  C   UNL     1       1.256  -2.763  -3.556  0.00  0.00    -0.020 C 
ATOM     22  C   UNL     1      -0.007  -2.574  -2.676  0.00  0.00    -0.016 C 
ATOM     23  C   UNL     1       0.571  -2.046  -1.346  0.00  0.00    -0.051 C 
ATOM     24  H   UNL     1       2.576  -1.639  -1.251  0.00  0.00    -0.081 HD
BRANCH  19  26
ATOM     25  C   UNL     1       3.700  -3.634   0.002  0.00  0.00    -0.017 C 
ATOM     26  C   UNL     1       2.213  -3.291  -0.104  0.00  0.00    -0.082 C 
ENDBRANCH  19  26
ENDBRANCH  18  23
ENDBRANCH  14  18
ENDBRANCH  13  15
ENDBRANCH   1  13
BRANCH  10  27
ATOM     27  C   UNL     1      -4.006  -2.495   5.357  0.00  0.00    +0.035 C 
BRANCH  27  28
ATOM     28  C   UNL     1      -4.606  -2.819   6.727  0.00  0.00    -0.015 C 
ATOM     29  C   UNL     1      -3.492  -3.254   7.681  0.00  0.00    +0.007 C 
ATOM     30  C   UNL     1      -5.300  -1.575   7.286  0.00  0.00    +0.007 C 
ENDBRANCH  27  28
ENDBRANCH  10  27
BRANCH   4  31
ATOM     31  C   UNL     1      -5.548  -6.760   2.703  0.00  0.00    +0.130 C 
BRANCH  31  32
ATOM     32  C   UNL     1      -6.516  -7.870   2.385  0.00  0.00    +0.023 A 
ATOM     33  C   UNL     1      -7.149  -8.161   1.220  0.00  0.00    +0.123 A 
ATOM     34  N   UNL     1      -7.954  -9.205   1.222  0.00  0.00    -0.255 NA
ATOM     35  C   UNL     1      -8.132  -9.926   2.301  0.00  0.00    +0.156 A 
ATOM     36  S   UNL     1      -7.143  -9.172   3.435  0.00  0.00    -0.079 S 
ENDBRANCH  31  32
ENDBRANCH   4  31
TORSDOF 9
