REMARK  Name = ZINC32127696
REMARK  9 active torsions:
REMARK  status: ('A' for Active; 'I' for Inactive)
REMARK    1  A    between atoms: C_1  and  C_2
REMARK    2  A    between atoms: C_2  and  C_3
REMARK    3  A    between atoms: C_2  and  C_4
REMARK    4  A    between atoms: N_9  and  C_12
REMARK    5  A    between atoms: C_17  and  N_18
REMARK    6  A    between atoms: C_19  and  C_21
REMARK    7  A    between atoms: C_21  and  O_22
REMARK    8  A    between atoms: O_22  and  C_23
REMARK    9  A    between atoms: C_26  and  N_29
REMARK                            x       y       z     vdW  Elec       q    Type
REMARK                         _______ _______ _______ _____ _____    ______ ____
ROOT
ATOM      1  C   UNL     1       4.081   8.721  -0.191  0.00  0.00    +0.051 A 
ATOM      2  C   UNL     1       3.830  10.082  -0.280  0.00  0.00    +0.025 A 
ATOM      3  C   UNL     1       2.528  10.547  -0.261  0.00  0.00    +0.002 A 
ATOM      4  C   UNL     1       1.474   9.659  -0.154  0.00  0.00    +0.002 A 
ATOM      5  C   UNL     1       1.715   8.300  -0.070  0.00  0.00    +0.025 A 
ATOM      6  C   UNL     1       3.018   7.825  -0.083  0.00  0.00    +0.055 A 
ENDROOT
BRANCH   1  12
ATOM      7  C   UNL     1       9.439   8.746  -0.342  0.00  0.00    +0.218 C 
ATOM      8  O   UNL     1       9.940   9.015  -1.413  0.00  0.00    -0.275 OA
ATOM      9  N   UNL     1       8.183   8.260  -0.289  0.00  0.00    -0.298 N 
ATOM     10  C   UNL     1       7.444   7.942  -1.520  0.00  0.00    +0.126 C 
ATOM     11  C   UNL     1       6.075   8.627  -1.458  0.00  0.00    +0.124 C 
ATOM     12  N   UNL     1       5.397   8.248  -0.211  0.00  0.00    -0.325 N 
ATOM     13  C   UNL     1       6.143   8.717   0.965  0.00  0.00    +0.124 C 
ATOM     14  C   UNL     1       7.515   8.035   1.002  0.00  0.00    +0.126 C 
BRANCH   7  16
ATOM     15  C   UNL     1      11.699   8.656   0.674  0.00  0.00    +0.017 C 
ATOM     16  C   UNL     1      10.221   8.955   0.929  0.00  0.00    +0.069 C 
ATOM     17  C   UNL     1      10.066  10.405   1.391  0.00  0.00    +0.017 C 
ENDBRANCH   7  16
ENDBRANCH   1  12
BRANCH   6  18
ATOM     18  N   UNL     1       3.264   6.449   0.007  0.00  0.00    -0.281 N 
ATOM     19  C   UNL     1       2.358   5.638   0.589  0.00  0.00    +0.255 C 
ATOM     20  O   UNL     1       1.377   6.110   1.124  0.00  0.00    -0.272 OA
ATOM     21  H   UNL     1       4.198   6.030  -0.397  0.00  0.00    +0.155 HD
BRANCH  19  22
ATOM     22  C   UNL     1       2.564   4.145   0.575  0.00  0.00    +0.324 C 
BRANCH  22  23
ATOM     23  O   UNL     1       1.477   3.508   1.249  0.00  0.00    -0.483 OA
BRANCH  23  24
ATOM     24  C   UNL     1       1.508   2.152   1.326  0.00  0.00    +0.121 A 
ATOM     25  C   UNL     1       0.485   1.469   1.967  0.00  0.00    +0.048 A 
ATOM     26  C   UNL     1       0.519   0.090   2.044  0.00  0.00    +0.036 A 
ATOM     27  C   UNL     1       1.573  -0.609   1.484  0.00  0.00    +0.126 A 
ATOM     28  C   UNL     1       2.594   0.070   0.846  0.00  0.00    +0.036 A 
ATOM     29  C   UNL     1       2.564   1.448   0.766  0.00  0.00    +0.048 A 
BRANCH  27  30
ATOM     30  N   UNL     1       1.607  -2.086   1.569  0.00  0.00    +0.056 N 
ATOM     31  O   UNL     1       0.708  -2.685   2.131  0.00  0.00    -0.126 OA
ATOM     32  O   UNL     1       2.534  -2.703   1.075  0.00  0.00    -0.126 OA
ENDBRANCH  27  30
ENDBRANCH  23  24
ENDBRANCH  22  23
ENDBRANCH  19  22
ENDBRANCH   6  18
TORSDOF 7
