REMARK  Name = ZINC14723278
REMARK  10 active torsions:
REMARK  status: ('A' for Active; 'I' for Inactive)
REMARK    1  A    between atoms: C_1  and  C_2
REMARK    2  A    between atoms: C_3  and  C_4
REMARK    3  A    between atoms: C_10  and  C_29
REMARK    4  A    between atoms: C_10  and  O_30
REMARK    5  A    between atoms: C_11  and  O_17
REMARK    6  A    between atoms: O_17  and  C_18
REMARK    7  A    between atoms: C_18  and  C_20
REMARK    8  A    between atoms: C_21  and  C_28
REMARK    9  A    between atoms: C_23  and  O_27
REMARK   10  A    between atoms: C_25  and  O_26
REMARK                            x       y       z     vdW  Elec       q    Type
REMARK                         _______ _______ _______ _____ _____    ______ ____
ROOT
ATOM      1  C   UNL     1       0.764  -2.888   0.295  0.00  0.00    +0.120 C 
ATOM      2  C   UNL     1       1.470  -3.523  -0.704  0.00  0.00    +0.050 C 
ATOM      3  C   UNL     1       1.327  -4.902  -0.895  0.00  0.00    -0.031 C 
ATOM      4  C   UNL     1       2.003  -5.536  -1.911  0.00  0.00    +0.053 C 
ATOM      5  C   UNL     1       1.843  -6.898  -2.153  0.00  0.00    +0.191 C 
ATOM      6  O   UNL     1       2.463  -7.424  -3.057  0.00  0.00    -0.289 OA
ATOM      7  C   UNL     1       0.911  -7.728  -1.310  0.00  0.00    +0.162 C 
ATOM      8  C   UNL     1      -0.216  -6.838  -0.775  0.00  0.00    +0.226 C 
ATOM      9  C   UNL     1       0.404  -5.680   0.011  0.00  0.00    +0.101 C 
ATOM     10  C   UNL     1      -0.700  -4.742   0.510  0.00  0.00    +0.241 C 
ATOM     11  O   UNL     1      -0.087  -3.583   1.085  0.00  0.00    -0.491 OA
ATOM     12  C   UNL     1       0.314  -8.850  -2.162  0.00  0.00    +0.054 C 
ENDROOT
BRANCH   1  15
ATOM     13  C   UNL     1       0.419   0.657   1.671  0.00  0.00    +0.035 C 
ATOM     14  C   UNL     1       0.246  -0.825   1.461  0.00  0.00    -0.027 C 
ATOM     15  C   UNL     1       0.931  -1.446   0.499  0.00  0.00    +0.041 C 
ENDBRANCH   1  15
BRANCH   7  16
ATOM     16  O   UNL     1       1.634  -8.292  -0.214  0.00  0.00    -0.377 OA
ATOM     17  H   UNL     1       2.365  -8.866  -0.480  0.00  0.00    +0.211 HD
ENDBRANCH   7  16
BRANCH   8  18
ATOM     18  O   UNL     1      -0.991  -6.313  -1.885  0.00  0.00    -0.454 OA
BRANCH  18  19
ATOM     19  C   UNL     1      -2.145  -6.944  -2.178  0.00  0.00    +0.343 C 
ATOM     20  O   UNL     1      -2.446  -7.965  -1.590  0.00  0.00    -0.245 OA
BRANCH  19  21
ATOM     21  C   UNL     1      -3.041  -6.399  -3.210  0.00  0.00    +0.103 A 
ATOM     22  C   UNL     1      -2.812  -6.682  -4.561  0.00  0.00    -0.029 A 
ATOM     23  C   UNL     1      -3.648  -6.181  -5.517  0.00  0.00    +0.049 A 
ATOM     24  C   UNL     1      -4.724  -5.374  -5.158  0.00  0.00    +0.121 A 
ATOM     25  C   UNL     1      -4.962  -5.079  -3.824  0.00  0.00    +0.091 A 
ATOM     26  C   UNL     1      -4.126  -5.587  -2.844  0.00  0.00    +0.135 A 
ATOM     27  C   UNL     1      -1.645  -7.549  -4.960  0.00  0.00    +0.045 C 
BRANCH  26  28
ATOM     28  O   UNL     1      -4.353  -5.300  -1.538  0.00  0.00    -0.506 OA
ATOM     29  H   UNL     1      -3.906  -4.502  -1.226  0.00  0.00    +0.292 HD
ENDBRANCH  26  28
BRANCH  24  30
ATOM     30  O   UNL     1      -5.544  -4.876  -6.117  0.00  0.00    -0.507 OA
ATOM     31  H   UNL     1      -5.269  -4.016  -6.462  0.00  0.00    +0.292 HD
ENDBRANCH  24  30
ENDBRANCH  19  21
ENDBRANCH  18  19
ENDBRANCH   8  18
TORSDOF 7
