REMARK  Name = ZINC64905035
REMARK  6 active torsions:
REMARK  status: ('A' for Active; 'I' for Inactive)
REMARK    1  A    between atoms: C_1  and  C_2
REMARK    2  A    between atoms: C_2  and  C_3
REMARK    3  A    between atoms: C_3  and  N_4
REMARK    4  A    between atoms: C_5  and  C_7
REMARK    5  A    between atoms: C_7  and  N_8
REMARK    6  A    between atoms: C_20  and  C_23
REMARK                            x       y       z     vdW  Elec       q    Type
REMARK                         _______ _______ _______ _____ _____    ______ ____
ROOT
ATOM      1  N   UNL     1      -3.926  -4.711   0.020  0.00  0.00    -0.291 NA
ATOM      2  C   UNL     1      -4.618  -4.360  -1.228  0.00  0.00    +0.104 C 
ATOM      3  C   UNL     1      -6.098  -4.739  -1.111  0.00  0.00    +0.122 C 
ATOM      4  N   UNL     1      -6.190  -6.155  -0.726  0.00  0.00    -0.311 N 
ATOM      5  C   UNL     1      -5.413  -6.612   0.437  0.00  0.00    +0.122 C 
ATOM      6  C   UNL     1      -3.959  -6.160   0.259  0.00  0.00    +0.104 C 
ATOM      7  C   UNL     1      -6.989  -7.039  -1.442  0.00  0.00    +0.142 A 
ATOM      8  C   UNL     1      -7.808  -6.553  -2.480  0.00  0.00    +0.049 A 
ATOM      9  C   UNL     1      -8.594  -7.408  -3.186  0.00  0.00    +0.053 A 
ATOM     10  C   UNL     1      -8.577  -8.779  -2.866  0.00  0.00    +0.178 A 
ATOM     11  N   UNL     1      -9.207  -9.839  -3.351  0.00  0.00    -0.128 NA
ATOM     12  N   UNL     1      -8.842 -10.891  -2.706  0.00  0.00    -0.127 NA
ATOM     13  C   UNL     1      -7.962 -10.569  -1.776  0.00  0.00    +0.185 A 
ATOM     14  N   UNL     1      -7.768  -9.221  -1.850  0.00  0.00    -0.191 N 
ATOM     15  N   UNL     1      -6.969  -8.318  -1.146  0.00  0.00    -0.148 NA
ENDROOT
BRANCH  13  16
ATOM     16  C   UNL     1      -7.308 -11.497  -0.830  0.00  0.00    +0.021 A 
ATOM     17  C   UNL     1      -6.650 -11.001   0.297  0.00  0.00    +0.011 A 
ATOM     18  C   UNL     1      -6.042 -11.873   1.177  0.00  0.00    +0.001 A 
ATOM     19  C   UNL     1      -6.084 -13.236   0.944  0.00  0.00    +0.000 A 
ATOM     20  C   UNL     1      -6.734 -13.734  -0.171  0.00  0.00    +0.001 A 
ATOM     21  C   UNL     1      -7.351 -12.874  -1.056  0.00  0.00    +0.011 A 
ENDBRANCH  13  16
BRANCH   1  22
ATOM     22  C   UNL     1      -2.546  -4.210   0.016  0.00  0.00    +0.180 C 
BRANCH  22  24
ATOM     23  N   UNL     1      -1.397  -2.019   0.011  0.00  0.00    -0.314 N 
ATOM     24  C   UNL     1      -2.558  -2.703   0.015  0.00  0.00    +0.227 C 
ATOM     25  O   UNL     1      -3.614  -2.105   0.018  0.00  0.00    -0.274 OA
ATOM     26  H   UNL     1      -0.553  -2.497   0.009  0.00  0.00    +0.149 HD
BRANCH  23  27
ATOM     27  C   UNL     1      -1.409  -0.554   0.011  0.00  0.00    +0.104 C 
BRANCH  27  29
ATOM     28  C   UNL     1       0.016   1.498   0.006  0.00  0.00    +0.005 C 
ATOM     29  C   UNL     1       0.029  -0.032   0.006  0.00  0.00    +0.015 C 
ENDBRANCH  27  29
ENDBRANCH  23  27
ENDBRANCH  22  24
ENDBRANCH   1  22
TORSDOF 5
