REMARK  Name = ZINC62998175
REMARK  8 active torsions:
REMARK  status: ('A' for Active; 'I' for Inactive)
REMARK    1  A    between atoms: C_1  and  C_2
REMARK    2  A    between atoms: C_4  and  C_20
REMARK    3  A    between atoms: C_7  and  O_8
REMARK    4  A    between atoms: O_8  and  C_9
REMARK    5  A    between atoms: C_11  and  C_19
REMARK    6  A    between atoms: C_12  and  N_16
REMARK    7  A    between atoms: C_14  and  C_15
REMARK    8  A    between atoms: C_20  and  O_21
REMARK                            x       y       z     vdW  Elec       q    Type
REMARK                         _______ _______ _______ _____ _____    ______ ____
ROOT
ATOM      1  O   UNL     1       0.027  -0.028   2.384  0.00  0.00    -0.455 OA
ENDROOT
BRANCH   1   2
ATOM      2  C   UNL     1      -0.058  -0.757   3.528  0.00  0.00    +0.132 A 
ATOM      3  C   UNL     1      -0.314  -2.119   3.467  0.00  0.00    +0.052 A 
ATOM      4  C   UNL     1      -0.400  -2.857   4.631  0.00  0.00    -0.017 A 
ATOM      5  C   UNL     1      -0.231  -2.240   5.857  0.00  0.00    +0.130 A 
ATOM      6  C   UNL     1       0.024  -0.882   5.921  0.00  0.00    +0.040 A 
ATOM      7  C   UNL     1       0.117  -0.141   4.759  0.00  0.00    -0.006 A 
ATOM      8  C   UNL     1       0.402   1.338   4.829  0.00  0.00    +0.047 C 
ATOM      9  C   UNL     1      -0.678  -4.337   4.566  0.00  0.00    +0.046 C 
BRANCH   5  10
ATOM     10  N   UNL     1      -0.324  -3.033   7.103  0.00  0.00    +0.057 N 
ATOM     11  O   UNL     1      -0.840  -2.556   8.087  0.00  0.00    -0.126 OA
ATOM     12  O   UNL     1       0.116  -4.159   7.138  0.00  0.00    -0.126 OA
ENDBRANCH   5  10
ENDBRANCH   1   2
BRANCH   1  19
ATOM     13  C   UNL     1      -2.676  -0.083   1.564  0.00  0.00    +0.047 C 
ATOM     14  C   UNL     1      -1.568  -0.708   0.756  0.00  0.00    -0.008 A 
ATOM     15  C   UNL     1      -1.855  -1.335  -0.442  0.00  0.00    +0.012 A 
ATOM     16  C   UNL     1      -0.840  -1.908  -1.184  0.00  0.00    -0.022 A 
ATOM     17  C   UNL     1       0.466  -1.856  -0.730  0.00  0.00    +0.009 A 
ATOM     18  C   UNL     1       0.758  -1.230   0.466  0.00  0.00    +0.047 A 
ATOM     19  C   UNL     1      -0.259  -0.649   1.210  0.00  0.00    +0.131 A 
BRANCH  16  20
ATOM     20  C   UNL     1      -1.156  -2.592  -2.489  0.00  0.00    +0.191 C 
BRANCH  20  21
ATOM     21  O   UNL     1      -1.076  -1.645  -3.555  0.00  0.00    -0.390 OA
ATOM     22  H   UNL     1      -1.268  -2.016  -4.427  0.00  0.00    +0.210 HD
ENDBRANCH  20  21
ENDBRANCH  16  20
ENDBRANCH   1  19
TORSDOF 5
