REMARK  Name = ZINC11886073
REMARK  8 active torsions:
REMARK  status: ('A' for Active; 'I' for Inactive)
REMARK    1  A    between atoms: C_1  and  C_2
REMARK    2  A    between atoms: C_3  and  C_13
REMARK    3  A    between atoms: C_4  and  C_7
REMARK    4  A    between atoms: C_16  and  C_18
REMARK    5  A    between atoms: C_18  and  S_19
REMARK    6  A    between atoms: S_19  and  C_20
REMARK    7  A    between atoms: C_23  and  C_26
REMARK    8  A    between atoms: C_26  and  C_27
REMARK                            x       y       z     vdW  Elec       q    Type
REMARK                         _______ _______ _______ _____ _____    ______ ____
ROOT
ATOM      1  C   UNL     1       3.312   4.120   1.487  0.00  0.00    +0.254 A 
ATOM      2  N   UNL     1       3.735   2.908   1.762  0.00  0.00    -0.107 NA
ATOM      3  N   UNL     1       4.795   2.984   2.489  0.00  0.00    -0.111 NA
ATOM      4  C   UNL     1       5.087   4.235   2.704  0.00  0.00    +0.228 A 
ATOM      5  O   UNL     1       4.164   4.984   2.075  0.00  0.00    -0.419 OA
ENDROOT
BRANCH   1   8
ATOM      6  C   UNL     1       2.235   7.039   0.781  0.00  0.00    +0.090 C 
ATOM      7  C   UNL     1       1.648   5.715   0.363  0.00  0.00    +0.147 A 
ATOM      8  C   UNL     1       2.127   4.472   0.678  0.00  0.00    +0.108 A 
ATOM      9  C   UNL     1       1.169   3.570   0.010  0.00  0.00    +0.126 A 
ATOM     10  N   UNL     1       0.307   4.360  -0.580  0.00  0.00    -0.077 NA
ATOM     11  O   UNL     1       0.557   5.525  -0.388  0.00  0.00    -0.359 OA
BRANCH   9  12
ATOM     12  C   UNL     1       1.182   2.086   0.002  0.00  0.00    +0.004 A 
ATOM     13  C   UNL     1      -0.017   1.376   0.010  0.00  0.00    +0.010 A 
ATOM     14  C   UNL     1       0.002  -0.004   0.002  0.00  0.00    +0.001 A 
ATOM     15  C   UNL     1       1.208  -0.682  -0.013  0.00  0.00    +0.000 A 
ATOM     16  C   UNL     1       2.401   0.018  -0.020  0.00  0.00    +0.001 A 
ATOM     17  C   UNL     1       2.394   1.398  -0.012  0.00  0.00    +0.010 A 
ENDBRANCH   9  12
ENDBRANCH   1   8
BRANCH   4  18
ATOM     18  C   UNL     1       6.253   4.750   3.509  0.00  0.00    +0.175 C 
BRANCH  18  19
ATOM     19  S   UNL     1       7.684   4.974   2.424  0.00  0.00    -0.077 S 
BRANCH  19  20
ATOM     20  C   UNL     1       8.864   5.564   3.591  0.00  0.00    +0.189 A 
ATOM     21  N   UNL     1      10.161   5.904   3.333  0.00  0.00    -0.320 N 
ATOM     22  H   UNL     1      10.616   5.870   2.478  0.00  0.00    +0.169 HD
ATOM     23  C   UNL     1      10.683   6.307   4.532  0.00  0.00    +0.132 A 
ATOM     24  N   UNL     1       9.741   6.193   5.424  0.00  0.00    -0.134 NA
ATOM     25  N   UNL     1       8.664   5.756   4.875  0.00  0.00    -0.123 NA
BRANCH  23  26
ATOM     26  C   UNL     1      12.091   6.786   4.776  0.00  0.00    +0.079 C 
BRANCH  26  27
ATOM     27  C   UNL     1      12.053   8.163   5.442  0.00  0.00    -0.004 C 
ATOM     28  C   UNL     1      11.487   9.209   4.459  0.00  0.00    +0.004 C 
ATOM     29  C   UNL     1      12.314  10.487   4.748  0.00  0.00    +0.000 C 
ATOM     30  C   UNL     1      13.732   9.924   5.015  0.00  0.00    +0.000 C 
ATOM     31  C   UNL     1      13.480   8.617   5.795  0.00  0.00    +0.004 C 
ENDBRANCH  26  27
ENDBRANCH  23  26
ENDBRANCH  19  20
ENDBRANCH  18  19
ENDBRANCH   4  18
TORSDOF 7
