REMARK  Name = ZINC04322938
REMARK  7 active torsions:
REMARK  status: ('A' for Active; 'I' for Inactive)
REMARK    1  A    between atoms: C_4  and  S_7
REMARK    2  A    between atoms: S_7  and  N_10
REMARK    3  A    between atoms: N_10  and  C_11
REMARK    4  A    between atoms: N_10  and  C_20
REMARK    5  A    between atoms: C_11  and  C_12
REMARK    6  A    between atoms: N_14  and  C_15
REMARK    7  A    between atoms: C_23  and  N_26
REMARK                            x       y       z     vdW  Elec       q    Type
REMARK                         _______ _______ _______ _____ _____    ______ ____
ROOT
ATOM      1  N   UNL     1       6.780   2.184   1.392  0.00  0.00    -0.194 N 
ENDROOT
BRANCH   1   2
ATOM      2  C   UNL     1       7.318   1.316   2.345  0.00  0.00    +0.052 A 
ATOM      3  C   UNL     1       7.933   1.825   3.482  0.00  0.00    +0.027 A 
ATOM      4  C   UNL     1       8.459   0.964   4.425  0.00  0.00    +0.034 A 
ATOM      5  C   UNL     1       8.384  -0.403   4.233  0.00  0.00    +0.126 A 
ATOM      6  C   UNL     1       7.778  -0.913   3.100  0.00  0.00    +0.034 A 
ATOM      7  C   UNL     1       7.245  -0.058   2.155  0.00  0.00    +0.027 A 
BRANCH   5   8
ATOM      8  N   UNL     1       8.954  -1.323   5.243  0.00  0.00    +0.056 N 
ATOM      9  O   UNL     1       8.888  -2.527   5.076  0.00  0.00    -0.126 OA
ATOM     10  O   UNL     1       9.488  -0.875   6.242  0.00  0.00    -0.126 OA
ENDBRANCH   5   8
ENDBRANCH   1   2
BRANCH   1  11
ATOM     11  S   UNL     1       7.778   3.180   0.523  0.00  0.00    +0.075 S 
ATOM     12  O   UNL     1       9.090   2.648   0.644  0.00  0.00    -0.150 OA
ATOM     13  O   UNL     1       7.151   3.384  -0.736  0.00  0.00    -0.150 OA
BRANCH  11  17
ATOM     14  C   UNL     1       7.811   7.194   2.615  0.00  0.00    +0.000 A 
ATOM     15  C   UNL     1       8.813   6.276   2.866  0.00  0.00    +0.002 A 
ATOM     16  C   UNL     1       8.803   5.050   2.227  0.00  0.00    +0.029 A 
ATOM     17  C   UNL     1       7.791   4.743   1.337  0.00  0.00    +0.109 A 
ATOM     18  C   UNL     1       6.792   5.664   1.082  0.00  0.00    +0.029 A 
ATOM     19  C   UNL     1       6.799   6.887   1.725  0.00  0.00    +0.002 A 
ENDBRANCH  11  17
ENDBRANCH   1  11
BRANCH   1  20
ATOM     20  C   UNL     1       5.334   2.212   1.161  0.00  0.00    +0.227 C 
BRANCH  20  21
ATOM     21  C   UNL     1       4.684   3.136   2.158  0.00  0.00    +0.232 C 
ATOM     22  O   UNL     1       5.362   3.714   2.981  0.00  0.00    -0.274 OA
ATOM     23  N   UNL     1       3.349   3.321   2.136  0.00  0.00    -0.311 N 
ATOM     24  H   UNL     1       2.807   2.858   1.478  0.00  0.00    +0.149 HD
BRANCH  23  25
ATOM     25  C   UNL     1       2.717   4.219   3.105  0.00  0.00    +0.073 C 
ATOM     26  C   UNL     1       2.611   5.655   2.535  0.00  0.00    +0.022 C 
ATOM     27  C   UNL     1       1.449   6.291   3.325  0.00  0.00    +0.002 C 
ATOM     28  C   UNL     1       0.574   5.131   3.830  0.00  0.00    +0.002 C 
ATOM     29  C   UNL     1       1.235   3.830   3.329  0.00  0.00    +0.022 C 
ENDBRANCH  23  25
ENDBRANCH  20  21
ENDBRANCH   1  20
TORSDOF 7
