REMARK  Name = ZINC66633507
REMARK  8 active torsions:
REMARK  status: ('A' for Active; 'I' for Inactive)
REMARK    1  A    between atoms: C_2  and  C_3
REMARK    2  A    between atoms: C_3  and  N_4
REMARK    3  A    between atoms: C_5  and  C_7
REMARK    4  A    between atoms: C_12  and  N_13
REMARK    5  A    between atoms: C_14  and  C_16
REMARK    6  A    between atoms: C_16  and  N_17
REMARK    7  A    between atoms: N_20  and  C_21
REMARK    8  A    between atoms: C_21  and  C_22
REMARK                            x       y       z     vdW  Elec       q    Type
REMARK                         _______ _______ _______ _____ _____    ______ ____
ROOT
ATOM      1  N   UNL     1       2.079   6.004  -0.165  0.00  0.00    -0.284 N 
ATOM      2  C   UNL     1       2.264   7.325  -0.356  0.00  0.00    +0.234 C 
ATOM      3  O   UNL     1       3.379   7.760  -0.554  0.00  0.00    -0.274 OA
ATOM      4  H   UNL     1       1.182   5.649  -0.067  0.00  0.00    +0.155 HD
ENDROOT
BRANCH   1  10
ATOM      5  C   UNL     1       3.231   4.135   0.859  0.00  0.00    +0.058 A 
ATOM      6  C   UNL     1       4.335   3.280   0.902  0.00  0.00    +0.015 A 
ATOM      7  C   UNL     1       5.364   3.440  -0.001  0.00  0.00    +0.001 A 
ATOM      8  C   UNL     1       5.310   4.446  -0.952  0.00  0.00    +0.002 A 
ATOM      9  C   UNL     1       4.226   5.299  -1.006  0.00  0.00    +0.024 A 
ATOM     10  C   UNL     1       3.177   5.149  -0.109  0.00  0.00    +0.046 A 
BRANCH   5  12
ATOM     11  N   UNL     1       2.124   2.922   2.672  0.00  0.00    -0.300 N 
ATOM     12  C   UNL     1       2.126   3.968   1.822  0.00  0.00    +0.247 C 
ATOM     13  O   UNL     1       1.216   4.775   1.849  0.00  0.00    -0.270 OA
ATOM     14  H   UNL     1       2.850   2.278   2.650  0.00  0.00    +0.150 HD
BRANCH  11  15
ATOM     15  C   UNL     1       1.027   2.756   3.628  0.00  0.00    +0.193 C 
BRANCH  15  17
ATOM     16  C   UNL     1       1.441   0.583   5.079  0.00  0.00    +0.005 C 
ATOM     17  C   UNL     1       1.257   1.548   4.435  0.00  0.00    -0.087 C 
ENDBRANCH  15  17
ENDBRANCH  11  15
ENDBRANCH   5  12
ENDBRANCH   1  10
BRANCH   2  18
ATOM     18  C   UNL     1       1.085   8.263  -0.325  0.00  0.00    +0.202 C 
BRANCH  18  19
ATOM     19  N   UNL     1       1.545   9.635  -0.557  0.00  0.00    -0.291 N 
ATOM     20  C   UNL     1       0.659  10.650  -0.573  0.00  0.00    +0.300 C 
ATOM     21  O   UNL     1      -0.523  10.427  -0.393  0.00  0.00    -0.253 OA
ATOM     22  N   UNL     1       1.082  11.911  -0.787  0.00  0.00    -0.295 N 
ATOM     23  H   UNL     1       2.488   9.812  -0.700  0.00  0.00    +0.151 HD
ATOM     24  H   UNL     1       2.025  12.088  -0.930  0.00  0.00    +0.151 HD
BRANCH  22  25
ATOM     25  C   UNL     1       0.119  13.014  -0.803  0.00  0.00    +0.141 C 
BRANCH  25  26
ATOM     26  C   UNL     1       0.843  14.310  -1.060  0.00  0.00    -0.030 A 
ATOM     27  C   UNL     1       1.331  15.051  -0.000  0.00  0.00    +0.006 A 
ATOM     28  C   UNL     1       1.996  16.240  -0.235  0.00  0.00    +0.020 A 
ATOM     29  C   UNL     1       2.173  16.689  -1.532  0.00  0.00    +0.041 A 
ATOM     30  C   UNL     1       1.684  15.947  -2.593  0.00  0.00    +0.020 A 
ATOM     31  C   UNL     1       1.025  14.755  -2.357  0.00  0.00    +0.006 A 
ATOM     32 CL   UNL     1       3.007  18.182  -1.828  0.00  0.00    -0.084 Cl
ENDBRANCH  25  26
ENDBRANCH  22  25
ENDBRANCH  18  19
ENDBRANCH   2  18
TORSDOF 8
