REMARK  Name = ZINC62371723
REMARK  13 active torsions:
REMARK  status: ('A' for Active; 'I' for Inactive)
REMARK    1  A    between atoms: C_1  and  C_2
REMARK    2  A    between atoms: C_6  and  C_9
REMARK    3  A    between atoms: C_6  and  C_10
REMARK    4  A    between atoms: C_11  and  C_13
REMARK    5  A    between atoms: C_13  and  C_15
REMARK    6  A    between atoms: C_13  and  N_18
REMARK    7  A    between atoms: C_15  and  C_16
REMARK    8  A    between atoms: C_15  and  C_17
REMARK    9  A    between atoms: C_19  and  O_21
REMARK   10  A    between atoms: O_21  and  C_22
REMARK   11  A    between atoms: C_22  and  C_23
REMARK   12  A    between atoms: C_22  and  C_24
REMARK   13  A    between atoms: C_22  and  C_25
REMARK                            x       y       z     vdW  Elec       q    Type
REMARK                         _______ _______ _______ _____ _____    ______ ____
ROOT
ATOM      1  C   UNL     1      -2.045  -1.719  -1.764  0.00  0.00    +0.165 C 
ENDROOT
BRANCH   1  11
ATOM      2  C   UNL     1       1.665   1.198   0.103  0.00  0.00    +0.039 C 
ATOM      3  C   UNL     1       1.284  -0.284   0.109  0.00  0.00    +0.133 C 
ATOM      4  C   UNL     1      -0.241  -0.421   0.036  0.00  0.00    +0.139 C 
ATOM      5  N   UNL     1      -0.589  -1.837   0.232  0.00  0.00    -0.290 N 
ATOM      6  C   UNL     1      -0.014  -2.537   1.392  0.00  0.00    +0.055 C 
ATOM      7  C   UNL     1       1.500  -2.296   1.399  0.00  0.00    +0.185 C 
ATOM      8  O   UNL     1       1.755  -0.892   1.314  0.00  0.00    -0.373 OA
ATOM      9  C   UNL     1      -0.297  -4.036   1.282  0.00  0.00    +0.034 C 
ATOM     10  C   UNL     1      -0.629  -1.989   2.681  0.00  0.00    +0.034 C 
ATOM     11  C   UNL     1      -1.412  -2.474  -0.625  0.00  0.00    +0.237 C 
ATOM     12  O   UNL     1      -1.642  -3.656  -0.479  0.00  0.00    -0.274 OA
ENDBRANCH   1  11
BRANCH   1  13
ATOM     13  N   UNL     1      -2.690  -2.664  -2.679  0.00  0.00    -0.270 N 
ATOM     14  C   UNL     1      -2.874  -2.332  -3.972  0.00  0.00    +0.401 C 
ATOM     15  O   UNL     1      -2.506  -1.248  -4.379  0.00  0.00    -0.226 OA
ATOM     16  H   UNL     1      -2.984  -3.530  -2.354  0.00  0.00    +0.153 HD
BRANCH  14  17
ATOM     17  O   UNL     1      -3.467  -3.201  -4.812  0.00  0.00    -0.445 OA
BRANCH  17  18
ATOM     18  C   UNL     1      -3.630  -2.783  -6.169  0.00  0.00    +0.107 C 
ATOM     19  C   UNL     1      -2.259  -2.489  -6.781  0.00  0.00    +0.055 C 
ATOM     20  C   UNL     1      -4.317  -3.893  -6.966  0.00  0.00    +0.055 C 
ATOM     21  C   UNL     1      -4.489  -1.517  -6.213  0.00  0.00    +0.055 C 
ENDBRANCH  17  18
ENDBRANCH  14  17
ENDBRANCH   1  13
BRANCH   1  22
ATOM     22  C   UNL     1      -3.092  -0.748  -1.213  0.00  0.00    +0.012 C 
ATOM     23  C   UNL     1      -3.637   0.115  -2.353  0.00  0.00    +0.009 C 
ATOM     24  C   UNL     1      -4.237  -1.539  -0.579  0.00  0.00    +0.009 C 
ENDBRANCH   1  22
TORSDOF 5
