REMARK  Name = ZINC39193636
REMARK  11 active torsions:
REMARK  status: ('A' for Active; 'I' for Inactive)
REMARK    1  A    between atoms: C_1  and  C_2
REMARK    2  A    between atoms: C_2  and  C_3
REMARK    3  A    between atoms: C_2  and  C_4
REMARK    4  A    between atoms: C_4  and  C_6
REMARK    5  A    between atoms: C_4  and  N_23
REMARK    6  A    between atoms: C_6  and  O_8
REMARK    7  A    between atoms: O_8  and  C_9
REMARK    8  A    between atoms: C_9  and  C_10
REMARK    9  A    between atoms: N_12  and  C_13
REMARK   10  A    between atoms: C_16  and  N_20
REMARK   11  A    between atoms: C_24  and  C_26
REMARK                            x       y       z     vdW  Elec       q    Type
REMARK                         _______ _______ _______ _____ _____    ______ ____
ROOT
ATOM      1  C   UNL     1      -2.132  -0.033  -1.224  0.00  0.00    +0.328 C 
ATOM      2  O   UNL     1      -2.584  -0.820  -2.021  0.00  0.00    -0.249 OA
ENDROOT
BRANCH   1   3
ATOM      3  C   UNL     1      -1.398  -0.531  -0.006  0.00  0.00    +0.185 C 
BRANCH   3   4
ATOM      4  N   UNL     1      -1.368  -1.996  -0.019  0.00  0.00    -0.298 N 
ATOM      5  C   UNL     1      -1.240  -2.678   1.136  0.00  0.00    +0.250 C 
ATOM      6  O   UNL     1      -1.149  -2.078   2.190  0.00  0.00    -0.270 OA
ATOM      7  H   UNL     1      -1.441  -2.475  -0.860  0.00  0.00    +0.150 HD
BRANCH   5   8
ATOM      8  C   UNL     1      -1.210  -4.153   1.123  0.00  0.00    +0.107 A 
ATOM      9  C   UNL     1       0.008  -4.830   1.004  0.00  0.00    +0.138 A 
ATOM     10  C   UNL     1       0.027  -6.213   0.993  0.00  0.00    +0.039 A 
ATOM     11  C   UNL     1      -1.153  -6.925   1.098  0.00  0.00    +0.006 A 
ATOM     12  C   UNL     1      -2.362  -6.263   1.216  0.00  0.00    +0.039 A 
ATOM     13  C   UNL     1      -2.399  -4.882   1.235  0.00  0.00    +0.138 A 
ATOM     14  F   UNL     1      -3.580  -4.237   1.355  0.00  0.00    -0.205 F 
ATOM     15  F   UNL     1       1.162  -4.136   0.900  0.00  0.00    -0.205 F 
ENDBRANCH   5   8
ENDBRANCH   3   4
BRANCH   3  17
ATOM     16  C   UNL     1       0.002   1.538  -0.003  0.00  0.00    +0.009 C 
ATOM     17  C   UNL     1       0.033   0.008  -0.017  0.00  0.00    +0.014 C 
ATOM     18  C   UNL     1       0.778  -0.498   1.220  0.00  0.00    +0.009 C 
ENDBRANCH   3  17
ENDBRANCH   1   3
BRANCH   1  19
ATOM     19  O   UNL     1      -2.284   1.286  -1.423  0.00  0.00    -0.454 OA
BRANCH  19  20
ATOM     20  C   UNL     1      -2.991   1.688  -2.599  0.00  0.00    +0.328 C 
BRANCH  20  21
ATOM     21  C   UNL     1      -3.062   3.192  -2.653  0.00  0.00    +0.255 C 
ATOM     22  O   UNL     1      -2.557   3.855  -1.771  0.00  0.00    -0.272 OA
ATOM     23  N   UNL     1      -3.686   3.801  -3.680  0.00  0.00    -0.281 N 
ATOM     24  H   UNL     1      -4.032   3.274  -4.418  0.00  0.00    +0.155 HD
BRANCH  23  25
ATOM     25  C   UNL     1      -3.834   5.192  -3.684  0.00  0.00    +0.052 A 
ATOM     26  C   UNL     1      -2.842   5.999  -3.143  0.00  0.00    +0.027 A 
ATOM     27  C   UNL     1      -2.990   7.372  -3.148  0.00  0.00    +0.034 A 
ATOM     28  C   UNL     1      -4.126   7.945  -3.692  0.00  0.00    +0.128 A 
ATOM     29  C   UNL     1      -5.117   7.145  -4.231  0.00  0.00    +0.054 A 
ATOM     30  C   UNL     1      -4.972   5.770  -4.234  0.00  0.00    +0.064 A 
ATOM     31 CL   UNL     1      -6.212   4.767  -4.918  0.00  0.00    -0.082 Cl
BRANCH  28  32
ATOM     32  N   UNL     1      -4.282   9.417  -3.695  0.00  0.00    +0.056 N 
ATOM     33  O   UNL     1      -3.417  10.117  -3.223  0.00  0.00    -0.126 OA
ATOM     34  O   UNL     1      -5.274   9.918  -4.170  0.00  0.00    -0.126 OA
ENDBRANCH  28  32
ENDBRANCH  23  25
ENDBRANCH  20  21
ENDBRANCH  19  20
ENDBRANCH   1  19
TORSDOF 9
