REMARK  Name = ZINC20290795
REMARK  7 active torsions:
REMARK  status: ('A' for Active; 'I' for Inactive)
REMARK    1  A    between atoms: C_3  and  C_8
REMARK    2  A    between atoms: C_11  and  S_14
REMARK    3  A    between atoms: N_12  and  N_13
REMARK    4  A    between atoms: S_14  and  C_15
REMARK    5  A    between atoms: C_15  and  C_16
REMARK    6  A    between atoms: C_16  and  C_17
REMARK    7  A    between atoms: N_19  and  C_20
REMARK                            x       y       z     vdW  Elec       q    Type
REMARK                         _______ _______ _______ _____ _____    ______ ____
ROOT
ATOM      1  S   UNL     1       7.512   2.675   0.355  0.00  0.00    -0.084 S 
ENDROOT
BRANCH   1   5
ATOM      2  C   UNL     1       3.657   2.162  -0.017  0.00  0.00    +0.182 A 
ATOM      3  N   UNL     1       3.805   3.438  -0.288  0.00  0.00    -0.127 NA
ATOM      4  N   UNL     1       5.046   3.762  -0.205  0.00  0.00    -0.121 NA
ATOM      5  C   UNL     1       5.766   2.713   0.125  0.00  0.00    +0.209 A 
ATOM      6  N   UNL     1       4.907   1.660   0.262  0.00  0.00    -0.224 N 
BRANCH   2   9
ATOM      7  C   UNL     1      -0.017   1.379   0.008  0.00  0.00    +0.002 A 
ATOM      8  C   UNL     1       1.167   2.089  -0.001  0.00  0.00    +0.012 A 
ATOM      9  C   UNL     1       2.385   1.408  -0.007  0.00  0.00    +0.022 A 
ATOM     10  C   UNL     1       2.398   0.012  -0.005  0.00  0.00    +0.027 A 
ATOM     11  C   UNL     1       1.207  -0.686   0.003  0.00  0.00    +0.019 A 
ATOM     12  C   UNL     1       0.002  -0.004   0.010  0.00  0.00    +0.015 A 
ATOM     13 BR   UNL     1       1.221  -2.577   0.005  0.00  0.00    -0.050 Br
ENDBRANCH   2   9
BRANCH   6  14
ATOM     14  N   UNL     1       5.224   0.376   0.602  0.00  0.00    -0.295 N 
ATOM     15  H   UNL     1       5.426  -0.176  -0.218  0.00  0.00    +0.163 HD
ATOM     16  H   UNL     1       5.995   0.353   1.252  0.00  0.00    +0.163 HD
ENDBRANCH   6  14
ENDBRANCH   1   5
BRANCH   1  17
ATOM     17  C   UNL     1       8.035   4.381   0.034  0.00  0.00    +0.086 C 
BRANCH  17  18
ATOM     18  C   UNL     1       9.552   4.490   0.202  0.00  0.00    +0.107 C 
BRANCH  18  19
ATOM     19  C   UNL     1       9.986   5.908  -0.065  0.00  0.00    +0.218 C 
ATOM     20  O   UNL     1       9.164   6.749  -0.360  0.00  0.00    -0.275 OA
ATOM     21  N   UNL     1      11.289   6.242   0.024  0.00  0.00    -0.285 N 
ATOM     22  H   UNL     1      11.938   5.587   0.325  0.00  0.00    +0.155 HD
BRANCH  21  23
ATOM     23  C   UNL     1      11.706   7.535  -0.318  0.00  0.00    +0.037 A 
ATOM     24  C   UNL     1      12.936   7.729  -0.932  0.00  0.00    +0.027 A 
ATOM     25  C   UNL     1      13.348   9.004  -1.268  0.00  0.00    +0.051 A 
ATOM     26  C   UNL     1      12.534  10.094  -0.995  0.00  0.00    +0.162 A 
ATOM     27  C   UNL     1      11.301   9.903  -0.382  0.00  0.00    +0.164 A 
ATOM     28  C   UNL     1      10.887   8.623  -0.048  0.00  0.00    +0.072 A 
ATOM     29  O   UNL     1      10.486  10.959  -0.113  0.00  0.00    -0.485 OA
ATOM     30  C   UNL     1      11.089  12.258  -0.126  0.00  0.00    +0.270 C 
ATOM     31  C   UNL     1      11.961  12.369  -1.384  0.00  0.00    +0.270 C 
ATOM     32  O   UNL     1      12.959  11.344  -1.330  0.00  0.00    -0.485 OA
ENDBRANCH  21  23
ENDBRANCH  18  19
ENDBRANCH  17  18
ENDBRANCH   1  17
TORSDOF 7
