REMARK  Name = ZINC15772081
REMARK  8 active torsions:
REMARK  status: ('A' for Active; 'I' for Inactive)
REMARK    1  A    between atoms: C_1  and  C_2
REMARK    2  A    between atoms: C_2  and  C_3
REMARK    3  A    between atoms: N_5  and  C_6
REMARK    4  A    between atoms: C_9  and  C_12
REMARK    5  A    between atoms: C_12  and  O_14
REMARK    6  A    between atoms: O_14  and  C_15
REMARK    7  A    between atoms: C_15  and  C_16
REMARK    8  A    between atoms: C_24  and  C_26
REMARK                            x       y       z     vdW  Elec       q    Type
REMARK                         _______ _______ _______ _____ _____    ______ ____
ROOT
ATOM      1  C   UNL     1       2.210   5.699  -0.125  0.00  0.00    +0.288 C 
ENDROOT
BRANCH   1   2
ATOM      2  C   UNL     1       3.578   6.294  -0.343  0.00  0.00    +0.087 A 
ATOM      3  C   UNL     1       3.846   7.039  -1.471  0.00  0.00    +0.099 A 
ATOM      4  C   UNL     1       5.119   7.582  -1.655  0.00  0.00    +0.275 A 
ATOM      5  O   UNL     1       5.363   8.243  -2.652  0.00  0.00    -0.266 OA
ATOM      6  N   UNL     1       6.090   7.373  -0.719  0.00  0.00    -0.171 N 
ATOM      7  C   UNL     1       5.737   6.622   0.370  0.00  0.00    +0.199 A 
ATOM      8  N   UNL     1       4.545   6.114   0.553  0.00  0.00    -0.223 NA
ATOM      9  S   UNL     1       7.243   6.589   1.317  0.00  0.00    -0.032 S 
ATOM     10  C   UNL     1       8.239   7.572   0.208  0.00  0.00    +0.105 A 
ATOM     11  N   UNL     1       7.401   7.838  -0.747  0.00  0.00    -0.159 NA
BRANCH  10  12
ATOM     12  C   UNL     1       9.682   7.986   0.345  0.00  0.00    +0.047 C 
ATOM     13  C   UNL     1       9.923   9.267  -0.456  0.00  0.00    +0.010 C 
ATOM     14  C   UNL     1      11.387   9.688  -0.317  0.00  0.00    +0.001 C 
ATOM     15  C   UNL     1      12.291   8.574  -0.851  0.00  0.00    +0.000 C 
ATOM     16  C   UNL     1      12.049   7.293  -0.049  0.00  0.00    +0.001 C 
ATOM     17  C   UNL     1      10.585   6.873  -0.188  0.00  0.00    +0.010 C 
ENDBRANCH  10  12
ENDBRANCH   1   2
BRANCH   1  18
ATOM     18  O   UNL     1       2.303   4.250  -0.150  0.00  0.00    -0.455 OA
BRANCH  18  19
ATOM     19  C   UNL     1       1.160   3.560   0.031  0.00  0.00    +0.340 C 
ATOM     20  O   UNL     1       0.114   4.153   0.205  0.00  0.00    -0.245 OA
BRANCH  19  24
ATOM     21  C   UNL     1       1.213  -0.685  -0.007  0.00  0.00    +0.033 A 
ATOM     22  C   UNL     1       0.014  -0.008   0.192  0.00  0.00    +0.024 A 
ATOM     23  C   UNL     1      -0.007   1.369   0.206  0.00  0.00    +0.017 A 
ATOM     24  C   UNL     1       1.179   2.086   0.018  0.00  0.00    +0.059 A 
ATOM     25  C   UNL     1       2.381   1.402  -0.182  0.00  0.00    +0.017 A 
ATOM     26  C   UNL     1       2.395   0.025  -0.195  0.00  0.00    +0.024 A 
BRANCH  21  29
ATOM     27  C   UNL     1       0.175  -2.762  -0.506  0.00  0.00    +0.217 C 
ATOM     28  O   UNL     1      -0.747  -2.167  -1.020  0.00  0.00    -0.275 OA
ATOM     29  N   UNL     1       1.230  -2.079  -0.019  0.00  0.00    -0.286 N 
ATOM     30  H   UNL     1       2.002  -2.557   0.322  0.00  0.00    +0.155 HD
BRANCH  27  32
ATOM     31  C   UNL     1      -1.155  -4.788  -1.032  0.00  0.00    +0.013 C 
ATOM     32  C   UNL     1       0.142  -4.266  -0.411  0.00  0.00    +0.093 C 
ENDBRANCH  27  32
ENDBRANCH  21  29
ENDBRANCH  19  24
ENDBRANCH  18  19
ENDBRANCH   1  18
TORSDOF 7
