REMARK  Name = ZINC08668350
REMARK  7 active torsions:
REMARK  status: ('A' for Active; 'I' for Inactive)
REMARK    1  A    between atoms: C_1  and  C_2
REMARK    2  A    between atoms: C_2  and  C_4
REMARK    3  A    between atoms: C_2  and  O_13
REMARK    4  A    between atoms: N_6  and  C_7
REMARK    5  A    between atoms: O_13  and  C_14
REMARK    6  A    between atoms: C_14  and  C_16
REMARK    7  A    between atoms: N_25  and  C_27
REMARK                            x       y       z     vdW  Elec       q    Type
REMARK                         _______ _______ _______ _____ _____    ______ ____
ROOT
ATOM      1  C   UNL     1       2.788  -1.276   2.163  0.00  0.00    +0.176 A 
ATOM      2  C   UNL     1       4.255  -1.355   2.084  0.00  0.00    +0.021 A 
ATOM      3  C   UNL     1       4.960  -1.110   0.911  0.00  0.00    +0.011 A 
ATOM      4  C   UNL     1       6.336  -1.204   0.916  0.00  0.00    +0.001 A 
ATOM      5  C   UNL     1       7.021  -1.541   2.075  0.00  0.00    +0.001 A 
ATOM      6  C   UNL     1       6.342  -1.788   3.249  0.00  0.00    +0.014 A 
ATOM      7  C   UNL     1       4.954  -1.698   3.265  0.00  0.00    +0.051 A 
ATOM      8  C   UNL     1       4.152  -1.945   4.471  0.00  0.00    +0.280 A 
ATOM      9  O   UNL     1       4.686  -2.244   5.524  0.00  0.00    -0.265 OA
ATOM     10  N   UNL     1       2.810  -1.833   4.385  0.00  0.00    -0.196 N 
ATOM     11  N   UNL     1       2.195  -1.518   3.309  0.00  0.00    -0.156 NA
ENDROOT
BRANCH  10  12
ATOM     12  C   UNL     1       2.051  -2.070   5.536  0.00  0.00    +0.069 A 
ATOM     13  C   UNL     1       2.390  -1.451   6.733  0.00  0.00    +0.028 A 
ATOM     14  C   UNL     1       1.639  -1.687   7.867  0.00  0.00    +0.002 A 
ATOM     15  C   UNL     1       0.550  -2.538   7.813  0.00  0.00    +0.000 A 
ATOM     16  C   UNL     1       0.210  -3.156   6.624  0.00  0.00    +0.002 A 
ATOM     17  C   UNL     1       0.954  -2.920   5.484  0.00  0.00    +0.028 A 
ENDBRANCH  10  12
BRANCH   1  18
ATOM     18  C   UNL     1       1.993  -0.924   0.972  0.00  0.00    +0.361 C 
ATOM     19  O   UNL     1       2.550  -0.703  -0.085  0.00  0.00    -0.243 OA
BRANCH  18  20
ATOM     20  O   UNL     1       0.650  -0.849   1.055  0.00  0.00    -0.448 OA
BRANCH  20  22
ATOM     21  C   UNL     1      -0.207   1.017  -0.218  0.00  0.00    +0.062 C 
ATOM     22  C   UNL     1      -0.055  -0.503  -0.138  0.00  0.00    +0.259 C 
BRANCH  22  23
ATOM     23  C   UNL     1      -1.419  -1.144  -0.119  0.00  0.00    +0.254 C 
ATOM     24  O   UNL     1      -1.789  -1.754   0.862  0.00  0.00    -0.272 OA
ATOM     25  N   UNL     1      -2.228  -1.039  -1.192  0.00  0.00    -0.309 N 
ATOM     26  H   UNL     1      -1.932  -0.551  -1.977  0.00  0.00    +0.149 HD
BRANCH  25  27
ATOM     27  C   UNL     1      -3.554  -1.662  -1.174  0.00  0.00    +0.073 C 
ATOM     28  C   UNL     1      -3.434  -3.129  -1.591  0.00  0.00    +0.022 C 
ATOM     29  C   UNL     1      -4.819  -3.780  -1.571  0.00  0.00    +0.002 C 
ATOM     30  C   UNL     1      -5.741  -3.046  -2.547  0.00  0.00    +0.000 C 
ATOM     31  C   UNL     1      -5.861  -1.579  -2.130  0.00  0.00    +0.002 C 
ATOM     32  C   UNL     1      -4.476  -0.928  -2.150  0.00  0.00    +0.022 C 
ENDBRANCH  25  27
ENDBRANCH  22  23
ENDBRANCH  20  22
ENDBRANCH  18  20
ENDBRANCH   1  18
TORSDOF 6
