REMARK  Name = ZINC11592034
REMARK  7 active torsions:
REMARK  status: ('A' for Active; 'I' for Inactive)
REMARK    1  A    between atoms: C_1  and  C_2
REMARK    2  A    between atoms: C_2  and  C_4
REMARK    3  A    between atoms: C_2  and  S_17
REMARK    4  A    between atoms: N_6  and  C_7
REMARK    5  A    between atoms: S_17  and  C_18
REMARK    6  A    between atoms: C_21  and  C_24
REMARK    7  A    between atoms: N_22  and  N_23
REMARK                            x       y       z     vdW  Elec       q    Type
REMARK                         _______ _______ _______ _____ _____    ______ ____
ROOT
ATOM      1  C   UNL     1       1.648   9.873  -1.102  0.00  0.00    +0.029 C 
ATOM      2  C   UNL     1       2.723   9.590  -0.051  0.00  0.00    +0.137 C 
ENDROOT
BRANCH   2   3
ATOM      3  C   UNL     1       3.755  10.688  -0.079  0.00  0.00    +0.230 C 
ATOM      4  O   UNL     1       4.768  10.551  -0.731  0.00  0.00    -0.274 OA
ATOM      5  N   UNL     1       3.552  11.821   0.622  0.00  0.00    -0.284 N 
ATOM      6  H   UNL     1       2.714  11.958   1.090  0.00  0.00    +0.155 HD
BRANCH   5   7
ATOM      7  C   UNL     1       4.548  12.798   0.672  0.00  0.00    +0.041 A 
ATOM      8  C   UNL     1       5.356  13.025  -0.421  0.00  0.00    +0.024 A 
ATOM      9  C   UNL     1       6.348  14.000  -0.383  0.00  0.00    +0.002 A 
ATOM     10  C   UNL     1       6.556  14.748   0.736  0.00  0.00    +0.008 A 
ATOM     11  C   UNL     1       5.758  14.544   1.874  0.00  0.00    -0.016 A 
ATOM     12  C   UNL     1       4.741  13.558   1.845  0.00  0.00    +0.003 A 
ATOM     13  C   UNL     1       3.945  13.355   2.984  0.00  0.00    +0.010 A 
ATOM     14  C   UNL     1       4.159  14.107   4.099  0.00  0.00    +0.001 A 
ATOM     15  C   UNL     1       5.159  15.076   4.128  0.00  0.00    +0.001 A 
ATOM     16  C   UNL     1       5.949  15.301   3.043  0.00  0.00    +0.008 A 
ENDBRANCH   5   7
ENDBRANCH   2   3
BRANCH   2  17
ATOM     17  S   UNL     1       3.519   8.005  -0.413  0.00  0.00    -0.072 S 
BRANCH  17  18
ATOM     18  C   UNL     1       2.155   6.915  -0.170  0.00  0.00    +0.209 A 
ATOM     19  N   UNL     1       0.936   7.259   0.178  0.00  0.00    -0.121 NA
ATOM     20  N   UNL     1       0.190   6.216   0.267  0.00  0.00    -0.126 NA
ATOM     21  C   UNL     1       0.888   5.140  -0.020  0.00  0.00    +0.188 A 
ATOM     22  N   UNL     1       2.171   5.555  -0.303  0.00  0.00    -0.223 N 
BRANCH  21  23
ATOM     23  C   UNL     1       0.395   3.753  -0.029  0.00  0.00    +0.058 A 
ATOM     24  C   UNL     1      -0.899   3.296  -0.027  0.00  0.00    +0.019 A 
ATOM     25  C   UNL     1      -1.119   1.937  -0.044  0.00  0.00    +0.008 A 
ATOM     26  C   UNL     1      -0.055   1.093  -0.051  0.00  0.00    +0.046 A 
ATOM     27  S   UNL     1       1.323   2.228  -0.048  0.00  0.00    -0.093 S 
ENDBRANCH  21  23
BRANCH  22  28
ATOM     28  N   UNL     1       3.235   4.771  -0.648  0.00  0.00    -0.295 N 
ATOM     29  H   UNL     1       3.287   4.651  -1.649  0.00  0.00    +0.163 HD
ATOM     30  H   UNL     1       4.096   5.150  -0.284  0.00  0.00    +0.163 HD
ENDBRANCH  22  28
ENDBRANCH  17  18
ENDBRANCH   2  17
TORSDOF 6
