REMARK  Name = ZINC20693545
REMARK  8 active torsions:
REMARK  status: ('A' for Active; 'I' for Inactive)
REMARK    1  A    between atoms: C_1  and  O_2
REMARK    2  A    between atoms: O_2  and  C_3
REMARK    3  A    between atoms: C_5  and  C_10
REMARK    4  A    between atoms: C_8  and  O_9
REMARK    5  A    between atoms: C_21  and  S_26
REMARK    6  A    between atoms: S_26  and  N_29
REMARK    7  A    between atoms: N_29  and  C_30
REMARK    8  A    between atoms: C_30  and  C_31
REMARK                            x       y       z     vdW  Elec       q    Type
REMARK                         _______ _______ _______ _____ _____    ______ ____
ROOT
ATOM      1  C   UNL     1       3.671   2.193  -0.022  0.00  0.00    +0.105 C 
ATOM      2  C   UNL     1       3.897   2.849   1.329  0.00  0.00    +0.029 C 
ATOM      3  C   UNL     1       3.838   1.943   2.566  0.00  0.00    +0.033 C 
ATOM      4  C   UNL     1       3.355   2.920   3.640  0.00  0.00    -0.030 C 
ATOM      5  C   UNL     1       2.669   3.908   3.079  0.00  0.00    -0.023 C 
ATOM      6  C   UNL     1       2.604   3.669   1.614  0.00  0.00    +0.049 C 
ATOM      7  C   UNL     1       2.545   4.781   0.641  0.00  0.00    -0.018 A 
ATOM      8  C   UNL     1       2.018   6.014   0.958  0.00  0.00    +0.034 A 
ATOM      9  C   UNL     1       1.952   7.011   0.002  0.00  0.00    +0.106 A 
ATOM     10  C   UNL     1       2.416   6.771  -1.279  0.00  0.00    +0.030 A 
ATOM     11  C   UNL     1       2.953   5.543  -1.604  0.00  0.00    +0.025 A 
ATOM     12  C   UNL     1       3.030   4.536  -0.648  0.00  0.00    +0.031 A 
ATOM     13  N   UNL     1       3.594   3.303  -0.997  0.00  0.00    -0.336 N 
ATOM     14  H   UNL     1       3.983   3.167  -2.016  0.00  0.00    +0.147 HD
ENDROOT
BRANCH   1  17
ATOM     15  C   UNL     1       1.187  -0.624   0.386  0.00  0.00    +0.162 A 
ATOM     16  C   UNL     1       2.374   0.091   0.378  0.00  0.00    +0.054 A 
ATOM     17  C   UNL     1       2.379   1.417  -0.013  0.00  0.00    -0.023 A 
ATOM     18  C   UNL     1       1.202   2.033  -0.396  0.00  0.00    +0.009 A 
ATOM     19  C   UNL     1       0.015   1.325  -0.390  0.00  0.00    +0.049 A 
ATOM     20  C   UNL     1       0.002  -0.005   0.000  0.00  0.00    +0.158 A 
BRANCH  15  22
ATOM     21  C   UNL     1       2.433  -2.499   1.152  0.00  0.00    +0.277 C 
ATOM     22  O   UNL     1       1.180  -1.929   0.769  0.00  0.00    -0.491 OA
ENDBRANCH  15  22
BRANCH  20  23
ATOM     23  O   UNL     1      -1.165  -0.702   0.007  0.00  0.00    -0.503 OA
ATOM     24  H   UNL     1      -2.101  -0.211  -0.298  0.00  0.00    +0.292 HD
ENDBRANCH  20  23
ENDBRANCH   1  17
BRANCH   9  25
ATOM     25  S   UNL     1       1.274   8.584   0.414  0.00  0.00    +0.058 S 
ATOM     26  O   UNL     1       1.412   8.729   1.821  0.00  0.00    -0.153 OA
ATOM     27  O   UNL     1       1.825   9.517  -0.506  0.00  0.00    -0.153 OA
BRANCH  25  28
ATOM     28  N   UNL     1      -0.350   8.515   0.103  0.00  0.00    -0.187 NA
ATOM     29  H   UNL     1      -0.749   9.022  -0.788  0.00  0.00    +0.148 HD
BRANCH  28  30
ATOM     30  C   UNL     1      -1.207   7.612   0.876  0.00  0.00    +0.137 C 
BRANCH  30  31
ATOM     31  C   UNL     1      -2.673   7.997   0.668  0.00  0.00    +0.134 C 
ATOM     32  C   UNL     1      -3.576   7.127   1.568  0.00  0.00    +0.035 C 
ATOM     33  C   UNL     1      -4.791   6.845   0.642  0.00  0.00    +0.031 C 
ATOM     34  C   UNL     1      -4.095   6.766  -0.740  0.00  0.00    +0.160 C 
ATOM     35  O   UNL     1      -3.051   7.752  -0.691  0.00  0.00    -0.375 OA
ENDBRANCH  30  31
ENDBRANCH  28  30
ENDBRANCH  25  28
ENDBRANCH   9  25
TORSDOF 7
