REMARK  Name = ZINC04344965
REMARK  6 active torsions:
REMARK  status: ('A' for Active; 'I' for Inactive)
REMARK    1  A    between atoms: C_1  and  S_2
REMARK    2  A    between atoms: S_2  and  C_3
REMARK    3  A    between atoms: C_7  and  N_9
REMARK    4  A    between atoms: N_14  and  C_17
REMARK    5  A    between atoms: C_17  and  C_18
REMARK    6  A    between atoms: C_21  and  C_24
REMARK                            x       y       z     vdW  Elec       q    Type
REMARK                         _______ _______ _______ _____ _____    ______ ____
ROOT
ATOM      1  N   UNL     1      -0.076   5.248   0.031  0.00  0.00    -0.245 N 
ATOM      2  C   UNL     1      -1.285   5.920  -0.064  0.00  0.00    +0.172 A 
ATOM      3  C   UNL     1      -1.284   7.309  -0.047  0.00  0.00    +0.149 A 
ATOM      4  C   UNL     1      -0.054   7.994   0.053  0.00  0.00    +0.283 A 
ATOM      5  O   UNL     1      -0.026   9.211   0.065  0.00  0.00    -0.265 OA
ATOM      6  N   UNL     1       1.091   7.284   0.137  0.00  0.00    -0.254 N 
ATOM      7  C   UNL     1       1.075   5.940   0.126  0.00  0.00    +0.338 A 
ATOM      8  O   UNL     1       2.126   5.334   0.204  0.00  0.00    -0.246 OA
ATOM      9  N   UNL     1      -2.604   7.698  -0.147  0.00  0.00    -0.339 N 
ATOM     10  H   UNL     1      -2.948   8.636  -0.167  0.00  0.00    +0.167 HD
ATOM     11  C   UNL     1      -3.342   6.572  -0.213  0.00  0.00    +0.199 A 
ATOM     12  N   UNL     1      -2.558   5.526  -0.160  0.00  0.00    -0.218 NA
ENDROOT
BRANCH   1  17
ATOM     13  C   UNL     1      -0.110   1.757   1.204  0.00  0.00    +0.010 A 
ATOM     14  C   UNL     1      -0.002   1.076  -0.004  0.00  0.00    +0.015 A 
ATOM     15  C   UNL     1       0.086   1.780  -1.189  0.00  0.00    +0.003 A 
ATOM     16  C   UNL     1       0.056   3.161  -1.180  0.00  0.00    +0.026 A 
ATOM     17  C   UNL     1      -0.051   3.848   0.023  0.00  0.00    +0.054 A 
ATOM     18  C   UNL     1      -0.134   3.145   1.216  0.00  0.00    +0.041 A 
BRANCH  13  20
ATOM     19  C   UNL     1      -0.144  -0.879   2.201  0.00  0.00    +0.090 C 
ATOM     20  S   UNL     1      -0.215   0.859   2.716  0.00  0.00    -0.129 S 
ENDBRANCH  13  20
ENDBRANCH   1  17
BRANCH   6  21
ATOM     21  C   UNL     1       2.371   7.989   0.242  0.00  0.00    +0.165 C 
BRANCH  21  22
ATOM     22  C   UNL     1       2.920   8.242  -1.138  0.00  0.00    -0.027 A 
ATOM     23  C   UNL     1       3.752   7.307  -1.729  0.00  0.00    +0.006 A 
ATOM     24  C   UNL     1       4.255   7.530  -2.995  0.00  0.00    +0.015 A 
ATOM     25  C   UNL     1       3.930   8.705  -3.675  0.00  0.00    +0.063 A 
ATOM     26  C   UNL     1       3.094   9.646  -3.070  0.00  0.00    +0.015 A 
ATOM     27  C   UNL     1       2.595   9.409  -1.806  0.00  0.00    +0.006 A 
BRANCH  25  28
ATOM     28  C   UNL     1       4.469   8.952  -5.028  0.00  0.00    +0.387 C 
ATOM     29  O   UNL     1       4.185   9.976  -5.617  0.00  0.00    -0.241 OA
ATOM     30  O   UNL     1       5.275   8.043  -5.608  0.00  0.00    -0.241 OA
ENDBRANCH  25  28
ENDBRANCH  21  22
ENDBRANCH   6  21
TORSDOF 5
