REMARK  Name = ZINC12797881
REMARK  8 active torsions:
REMARK  status: ('A' for Active; 'I' for Inactive)
REMARK    1  A    between atoms: C_1  and  C_2
REMARK    2  A    between atoms: C_2  and  C_4
REMARK    3  A    between atoms: C_2  and  S_17
REMARK    4  A    between atoms: N_6  and  C_7
REMARK    5  A    between atoms: C_10  and  N_14
REMARK    6  A    between atoms: S_17  and  C_18
REMARK    7  A    between atoms: N_22  and  C_23
REMARK    8  A    between atoms: C_23  and  C_24
REMARK                            x       y       z     vdW  Elec       q    Type
REMARK                         _______ _______ _______ _____ _____    ______ ____
ROOT
ATOM      1  C   UNL     1      -0.629   5.791  -1.287  0.00  0.00    +0.029 C 
ATOM      2  C   UNL     1       0.168   5.883   0.015  0.00  0.00    +0.137 C 
ENDROOT
BRANCH   2   3
ATOM      3  C   UNL     1       0.749   7.266   0.152  0.00  0.00    +0.230 C 
ATOM      4  O   UNL     1       1.883   7.487  -0.219  0.00  0.00    -0.274 OA
ATOM      5  N   UNL     1       0.010   8.258   0.686  0.00  0.00    -0.283 N 
ATOM      6  H   UNL     1      -0.917   8.098   0.923  0.00  0.00    +0.155 HD
BRANCH   5   7
ATOM      7  C   UNL     1       0.579   9.519   0.900  0.00  0.00    +0.052 A 
ATOM      8  C   UNL     1       1.528  10.013   0.014  0.00  0.00    +0.027 A 
ATOM      9  C   UNL     1       2.088  11.258   0.228  0.00  0.00    +0.034 A 
ATOM     10  C   UNL     1       1.706  12.011   1.322  0.00  0.00    +0.128 A 
ATOM     11  C   UNL     1       0.762  11.523   2.206  0.00  0.00    +0.054 A 
ATOM     12  C   UNL     1       0.193  10.281   1.996  0.00  0.00    +0.064 A 
ATOM     13 CL   UNL     1      -0.997   9.671   3.103  0.00  0.00    -0.082 Cl
BRANCH  10  14
ATOM     14  N   UNL     1       2.308  13.345   1.547  0.00  0.00    +0.056 N 
ATOM     15  O   UNL     1       3.140  13.776   0.769  0.00  0.00    -0.126 OA
ATOM     16  O   UNL     1       1.973  14.010   2.511  0.00  0.00    -0.126 OA
ENDBRANCH  10  14
ENDBRANCH   5   7
ENDBRANCH   2   3
BRANCH   2  17
ATOM     17  S   UNL     1       1.508   4.666  -0.011  0.00  0.00    -0.074 S 
BRANCH  17  18
ATOM     18  C   UNL     1       0.567   3.176  -0.022  0.00  0.00    +0.193 A 
ATOM     19  N   UNL     1      -0.742   3.079  -0.013  0.00  0.00    -0.123 NA
ATOM     20  N   UNL     1      -1.089   1.842  -0.032  0.00  0.00    -0.137 NA
ATOM     21  C   UNL     1      -0.031   1.081  -0.044  0.00  0.00    +0.226 A 
ATOM     22  N   UNL     1       1.062   1.903  -0.043  0.00  0.00    -0.301 N 
BRANCH  22  23
ATOM     23  C   UNL     1       2.471   1.502  -0.059  0.00  0.00    +0.199 C 
BRANCH  23  24
ATOM     24  C   UNL     1       2.999   1.466   1.352  0.00  0.00    +0.125 A 
ATOM     25  C   UNL     1       2.973   0.402   2.174  0.00  0.00    +0.046 A 
ATOM     26  C   UNL     1       3.572   0.809   3.389  0.00  0.00    +0.041 A 
ATOM     27  C   UNL     1       3.920   2.100   3.239  0.00  0.00    +0.195 A 
ATOM     28  O   UNL     1       3.571   2.492   2.003  0.00  0.00    -0.466 OA
ENDBRANCH  23  24
ENDBRANCH  22  23
ENDBRANCH  17  18
ENDBRANCH   2  17
TORSDOF 7
