REMARK  Name = ZINC25384896
REMARK  7 active torsions:
REMARK  status: ('A' for Active; 'I' for Inactive)
REMARK    1  A    between atoms: C_4  and  C_7
REMARK    2  A    between atoms: C_9  and  C_18
REMARK    3  A    between atoms: N_11  and  C_12
REMARK    4  A    between atoms: N_20  and  N_21
REMARK    5  A    between atoms: C_22  and  C_24
REMARK    6  A    between atoms: C_24  and  C_25
REMARK    7  A    between atoms: C_28  and  C_30
REMARK                            x       y       z     vdW  Elec       q    Type
REMARK                         _______ _______ _______ _____ _____    ______ ____
ROOT
ATOM      1  C   UNL     1      -3.297  -4.279  -2.593  0.00  0.00    +0.299 C 
ATOM      2  O   UNL     1      -4.292  -3.910  -1.998  0.00  0.00    -0.265 OA
ATOM      3  N   UNL     1      -2.079  -3.873  -2.184  0.00  0.00    -0.228 N 
ATOM      4  H   UNL     1      -1.179  -4.207  -2.722  0.00  0.00    +0.173 HD
ENDROOT
BRANCH   1   7
ATOM      5  C   UNL     1      -4.267  -6.402  -5.304  0.00  0.00    +0.164 A 
ATOM      6  N   UNL     1      -4.576  -5.646  -4.270  0.00  0.00    -0.202 NA
ATOM      7  C   UNL     1      -3.425  -5.173  -3.764  0.00  0.00    +0.239 A 
ATOM      8  N   UNL     1      -2.432  -5.635  -4.492  0.00  0.00    -0.139 NA
ATOM      9  N   UNL     1      -2.910  -6.385  -5.425  0.00  0.00    -0.212 N 
BRANCH   5  13
ATOM     10  C   UNL     1      -6.992  -8.501  -7.798  0.00  0.00    +0.000 A 
ATOM     11  C   UNL     1      -7.291  -8.307  -6.461  0.00  0.00    +0.001 A 
ATOM     12  C   UNL     1      -6.410  -7.626  -5.646  0.00  0.00    +0.011 A 
ATOM     13  C   UNL     1      -5.216  -7.133  -6.173  0.00  0.00    +0.019 A 
ATOM     14  C   UNL     1      -4.923  -7.327  -7.523  0.00  0.00    +0.011 A 
ATOM     15  C   UNL     1      -5.810  -8.014  -8.326  0.00  0.00    +0.001 A 
ENDBRANCH   5  13
BRANCH   9  16
ATOM     16  C   UNL     1      -2.163  -7.060  -6.399  0.00  0.00    +0.068 A 
ATOM     17  C   UNL     1      -2.462  -8.379  -6.714  0.00  0.00    +0.028 A 
ATOM     18  C   UNL     1      -1.728  -9.040  -7.679  0.00  0.00    +0.002 A 
ATOM     19  C   UNL     1      -0.689  -8.393  -8.323  0.00  0.00    +0.000 A 
ATOM     20  C   UNL     1      -0.386  -7.082  -8.008  0.00  0.00    +0.002 A 
ATOM     21  C   UNL     1      -1.119  -6.413  -7.048  0.00  0.00    +0.028 A 
ENDBRANCH   9  16
ENDBRANCH   1   7
BRANCH   3  22
ATOM     22  N   UNL     1      -1.958  -3.027  -1.075  0.00  0.00    -0.234 N 
ATOM     23  C   UNL     1      -0.739  -2.621  -0.666  0.00  0.00    +0.235 C 
ATOM     24  O   UNL     1       0.253  -2.989  -1.260  0.00  0.00    -0.274 OA
ATOM     25  H   UNL     1      -2.857  -2.693  -0.537  0.00  0.00    +0.173 HD
BRANCH  23  26
ATOM     26  C   UNL     1      -0.609  -1.710   0.527  0.00  0.00    +0.153 C 
BRANCH  26  27
ATOM     27  C   UNL     1       0.848  -1.409   0.772  0.00  0.00    +0.058 A 
ATOM     28  C   UNL     1       1.275  -0.120   0.832  0.00  0.00    +0.071 A 
ATOM     29  S   UNL     1       3.021  -0.364   1.133  0.00  0.00    -0.072 S 
ATOM     30  C   UNL     1       2.993  -2.151   1.147  0.00  0.00    +0.144 A 
ATOM     31  N   UNL     1       1.704  -2.391   0.929  0.00  0.00    -0.240 NA
BRANCH  30  32
ATOM     32  C   UNL     1       4.098  -3.101   1.345  0.00  0.00    +0.160 A 
ATOM     33  C   UNL     1       5.404  -2.776   1.559  0.00  0.00    +0.052 A 
ATOM     34  C   UNL     1       6.106  -3.988   1.696  0.00  0.00    +0.042 A 
ATOM     35  C   UNL     1       5.209  -4.984   1.552  0.00  0.00    +0.196 A 
ATOM     36  O   UNL     1       3.997  -4.445   1.341  0.00  0.00    -0.461 OA
ENDBRANCH  30  32
ENDBRANCH  26  27
ENDBRANCH  23  26
ENDBRANCH   3  22
TORSDOF 7
