REMARK  Name = ZINC32704082
REMARK  8 active torsions:
REMARK  status: ('A' for Active; 'I' for Inactive)
REMARK    1  A    between atoms: C_1  and  C_2
REMARK    2  A    between atoms: C_2  and  C_3
REMARK    3  A    between atoms: C_2  and  C_4
REMARK    4  A    between atoms: C_2  and  C_5
REMARK    5  A    between atoms: C_12  and  C_14
REMARK    6  A    between atoms: C_12  and  N_18
REMARK    7  A    between atoms: C_19  and  O_21
REMARK    8  A    between atoms: O_21  and  C_22
REMARK                            x       y       z     vdW  Elec       q    Type
REMARK                         _______ _______ _______ _____ _____    ______ ____
ROOT
ATOM      1  C   UNL     1       0.002  -0.004   0.002  0.00  0.00    -0.038 A 
ATOM      2  C   UNL     1      -0.017   1.378   0.010  0.00  0.00    +0.008 A 
ATOM      3  C   UNL     1       1.169   2.089   0.002  0.00  0.00    +0.050 A 
ATOM      4  C   UNL     1       2.380   1.416  -0.014  0.00  0.00    +0.169 A 
ATOM      5  C   UNL     1       2.399   0.024  -0.021  0.00  0.00    +0.169 A 
ATOM      6  C   UNL     1       1.207  -0.682  -0.013  0.00  0.00    +0.053 A 
ATOM      7  O   UNL     1       3.698  -0.395  -0.035  0.00  0.00    -0.426 OA
ATOM      8  C   UNL     1       4.467   0.750  -0.449  0.00  0.00    +0.437 C 
ATOM      9  O   UNL     1       3.668   1.870  -0.023  0.00  0.00    -0.426 OA
ENDROOT
BRANCH   1  11
ATOM     10  C   UNL     1      -2.469   0.206   0.027  0.00  0.00    +0.015 C 
ATOM     11  C   UNL     1      -1.294  -0.774   0.010  0.00  0.00    -0.013 C 
ATOM     12  C   UNL     1      -1.376  -1.647  -1.243  0.00  0.00    +0.015 C 
ATOM     13  C   UNL     1      -1.352  -1.661   1.255  0.00  0.00    +0.015 C 
ENDBRANCH   1  11
BRANCH   8  14
ATOM     14  C   UNL     1       5.829   0.763   0.247  0.00  0.00    +0.491 C 
ATOM     15  F   UNL     1       6.540  -0.392  -0.098  0.00  0.00    -0.162 F 
ATOM     16  F   UNL     1       6.549   1.892  -0.159  0.00  0.00    -0.162 F 
ATOM     17  F   UNL     1       5.645   0.801   1.633  0.00  0.00    -0.162 F 
ENDBRANCH   8  14
BRANCH   8  18
ATOM     18  N   UNL     1       4.633   0.760  -1.904  0.00  0.00    -0.201 N 
ATOM     19  C   UNL     1       3.550   0.793  -2.706  0.00  0.00    +0.406 C 
ATOM     20  O   UNL     1       2.436   0.815  -2.222  0.00  0.00    -0.226 OA
ATOM     21  H   UNL     1       5.642   0.740  -2.343  0.00  0.00    +0.160 HD
BRANCH  19  22
ATOM     22  O   UNL     1       3.704   0.802  -4.044  0.00  0.00    -0.454 OA
ATOM     23  C   UNL     1       2.493   0.838  -4.846  0.00  0.00    +0.282 C 
ENDBRANCH  19  22
ENDBRANCH   8  18
TORSDOF 4
