REMARK  Name = ZINC36253183
REMARK  11 active torsions:
REMARK  status: ('A' for Active; 'I' for Inactive)
REMARK    1  A    between atoms: C_1  and  C_2
REMARK    2  A    between atoms: C_5  and  S_25
REMARK    3  A    between atoms: C_7  and  C_8
REMARK    4  A    between atoms: C_8  and  O_10
REMARK    5  A    between atoms: O_10  and  C_11
REMARK    6  A    between atoms: C_11  and  C_13
REMARK    7  A    between atoms: C_11  and  C_14
REMARK    8  A    between atoms: N_16  and  C_17
REMARK    9  A    between atoms: S_25  and  N_28
REMARK   10  A    between atoms: N_28  and  C_29
REMARK   11  A    between atoms: C_29  and  C_30
REMARK                            x       y       z     vdW  Elec       q    Type
REMARK                         _______ _______ _______ _____ _____    ______ ____
ROOT
ATOM      1  C   UNL     1       0.026   1.488   0.010  0.00  0.00    +0.044 C 
ATOM      2  C   UNL     1       0.061  -0.018   0.004  0.00  0.00    -0.036 A 
ATOM      3  C   UNL     1      -0.028  -0.707  -1.189  0.00  0.00    +0.006 A 
ATOM      4  C   UNL     1       0.004  -2.090  -1.196  0.00  0.00    +0.029 A 
ATOM      5  C   UNL     1       0.124  -2.792  -0.010  0.00  0.00    +0.106 A 
ATOM      6  C   UNL     1       0.213  -2.117   1.189  0.00  0.00    +0.043 A 
ATOM      7  C   UNL     1       0.188  -0.721   1.204  0.00  0.00    +0.064 A 
ENDROOT
BRANCH   5   8
ATOM      8  S   UNL     1       0.162  -4.554  -0.032  0.00  0.00    +0.059 S 
ATOM      9  O   UNL     1      -0.268  -4.985   1.252  0.00  0.00    -0.153 OA
ATOM     10  O   UNL     1      -0.487  -4.960  -1.229  0.00  0.00    -0.153 OA
BRANCH   8  11
ATOM     11  N   UNL     1       1.748  -5.007  -0.176  0.00  0.00    -0.183 NA
ATOM     12  H   UNL     1       2.049  -5.474  -0.971  0.00  0.00    +0.148 HD
BRANCH  11  13
ATOM     13  C   UNL     1       2.698  -4.704   0.898  0.00  0.00    +0.180 C 
BRANCH  13  14
ATOM     14  C   UNL     1       3.950  -5.520   0.707  0.00  0.00    +0.120 A 
ATOM     15  C   UNL     1       5.035  -5.144   0.006  0.00  0.00    +0.046 A 
ATOM     16  C   UNL     1       5.965  -6.206   0.089  0.00  0.00    +0.041 A 
ATOM     17  C   UNL     1       5.392  -7.167   0.836  0.00  0.00    +0.195 A 
ATOM     18  O   UNL     1       4.175  -6.744   1.212  0.00  0.00    -0.466 OA
ENDBRANCH  13  14
ENDBRANCH  11  13
ENDBRANCH   8  11
ENDBRANCH   5   8
BRANCH   7  19
ATOM     19  C   UNL     1       0.289   0.010   2.483  0.00  0.00    +0.340 C 
ATOM     20  O   UNL     1       0.187   1.220   2.502  0.00  0.00    -0.245 OA
BRANCH  19  21
ATOM     21  O   UNL     1       0.494  -0.666   3.630  0.00  0.00    -0.449 OA
BRANCH  21  22
ATOM     22  C   UNL     1       0.582   0.105   4.831  0.00  0.00    +0.259 C 
ATOM     23  C   UNL     1       2.039   0.503   5.076  0.00  0.00    +0.062 C 
BRANCH  22  24
ATOM     24  C   UNL     1       0.083  -0.716   5.992  0.00  0.00    +0.258 C 
ATOM     25  O   UNL     1      -0.224  -1.878   5.826  0.00  0.00    -0.271 OA
ATOM     26  N   UNL     1      -0.023  -0.159   7.215  0.00  0.00    -0.281 N 
ATOM     27  H   UNL     1       0.145   0.789   7.332  0.00  0.00    +0.155 HD
BRANCH  26  28
ATOM     28  C   UNL     1      -0.375  -0.950   8.316  0.00  0.00    +0.052 A 
ATOM     29  C   UNL     1      -0.129  -2.316   8.298  0.00  0.00    +0.027 A 
ATOM     30  C   UNL     1      -0.477  -3.094   9.385  0.00  0.00    +0.040 A 
ATOM     31  C   UNL     1      -1.070  -2.512  10.493  0.00  0.00    +0.125 A 
ATOM     32  C   UNL     1      -1.317  -1.150  10.514  0.00  0.00    +0.060 A 
ATOM     33  C   UNL     1      -0.965  -0.367   9.431  0.00  0.00    +0.065 A 
ATOM     34 CL   UNL     1      -1.267   1.343   9.460  0.00  0.00    -0.082 Cl
ATOM     35  F   UNL     1      -1.409  -3.275  11.556  0.00  0.00    -0.205 F 
ENDBRANCH  26  28
ENDBRANCH  22  24
ENDBRANCH  21  22
ENDBRANCH  19  21
ENDBRANCH   7  19
TORSDOF 9
