REMARK  Name = ZINC36531380
REMARK  12 active torsions:
REMARK  status: ('A' for Active; 'I' for Inactive)
REMARK    1  A    between atoms: C_1  and  C_2
REMARK    2  A    between atoms: C_2  and  C_3
REMARK    3  A    between atoms: C_3  and  C_4
REMARK    4  A    between atoms: C_4  and  N_5
REMARK    5  A    between atoms: C_6  and  C_8
REMARK    6  A    between atoms: C_8  and  C_10
REMARK    7  A    between atoms: C_8  and  N_20
REMARK    8  A    between atoms: C_12  and  N_17
REMARK    9  A    between atoms: N_20  and  C_21
REMARK   10  A    between atoms: C_22  and  C_24
REMARK   11  A    between atoms: C_28  and  O_31
REMARK   12  A    between atoms: C_29  and  O_30
REMARK                            x       y       z     vdW  Elec       q    Type
REMARK                         _______ _______ _______ _____ _____    ______ ____
ROOT
ATOM      1  C   UNL     1       1.737  -4.276  -3.860  0.00  0.00    +0.194 C 
ENDROOT
BRANCH   1   2
ATOM      2  C   UNL     1       2.951  -3.582  -3.298  0.00  0.00    +0.002 A 
ATOM      3  C   UNL     1       2.938  -3.109  -1.999  0.00  0.00    +0.040 A 
ATOM      4  C   UNL     1       4.052  -2.472  -1.484  0.00  0.00    +0.127 A 
ATOM      5  C   UNL     1       5.179  -2.307  -2.268  0.00  0.00    +0.034 A 
ATOM      6  C   UNL     1       5.193  -2.779  -3.567  0.00  0.00    +0.022 A 
ATOM      7  C   UNL     1       4.080  -3.422  -4.081  0.00  0.00    +0.047 A 
ATOM      8 CL   UNL     1       4.100  -4.022  -5.710  0.00  0.00    -0.083 Cl
BRANCH   4   9
ATOM      9  N   UNL     1       4.037  -1.966  -0.093  0.00  0.00    +0.056 N 
ATOM     10  O   UNL     1       3.052  -2.110   0.592  0.00  0.00    -0.126 OA
ATOM     11  O   UNL     1       5.011  -1.409   0.357  0.00  0.00    -0.126 OA
ENDBRANCH   4   9
ENDBRANCH   1   2
BRANCH   1  13
ATOM     12  N   UNL     1      -0.051  -2.780  -3.033  0.00  0.00    -0.313 N 
ATOM     13  C   UNL     1       0.544  -3.988  -2.985  0.00  0.00    +0.238 C 
ATOM     14  O   UNL     1       0.120  -4.844  -2.237  0.00  0.00    -0.273 OA
ATOM     15  H   UNL     1       0.332  -2.072  -3.575  0.00  0.00    +0.149 HD
BRANCH  12  16
ATOM     16  C   UNL     1      -1.275  -2.535  -2.266  0.00  0.00    +0.104 C 
BRANCH  16  17
ATOM     17  C   UNL     1      -1.740  -1.095  -2.494  0.00  0.00    +0.018 C 
BRANCH  17  19
ATOM     18  C   UNL     1      -3.484   0.600  -1.922  0.00  0.00    +0.004 C 
ATOM     19  C   UNL     1      -3.019  -0.840  -1.693  0.00  0.00    -0.002 C 
ENDBRANCH  17  19
ENDBRANCH  16  17
ENDBRANCH  12  16
ENDBRANCH   1  13
BRANCH   1  20
ATOM     20  N   UNL     1       1.976  -5.721  -3.900  0.00  0.00    -0.285 N 
ATOM     21  C   UNL     1       2.388  -6.429  -2.686  0.00  0.00    +0.133 C 
ATOM     22  C   UNL     1       1.816  -6.398  -5.054  0.00  0.00    +0.251 C 
ATOM     23  O   UNL     1       1.569  -5.798  -6.082  0.00  0.00    -0.270 OA
BRANCH  22  24
ATOM     24  C   UNL     1       1.942  -7.868  -5.070  0.00  0.00    +0.082 A 
ATOM     25  C   UNL     1       1.367  -8.633  -4.051  0.00  0.00    +0.017 A 
ATOM     26  C   UNL     1       1.485 -10.006  -4.069  0.00  0.00    +0.005 A 
ATOM     27  C   UNL     1       2.173 -10.635  -5.094  0.00  0.00    +0.049 A 
ATOM     28  C   UNL     1       2.748  -9.891  -6.110  0.00  0.00    +0.159 A 
ATOM     29  C   UNL     1       2.632  -8.504  -6.108  0.00  0.00    +0.171 A 
BRANCH  29  30
ATOM     30  O   UNL     1       3.189  -7.771  -7.106  0.00  0.00    -0.503 OA
ATOM     31  H   UNL     1       4.101  -7.500  -6.932  0.00  0.00    +0.292 HD
ENDBRANCH  29  30
BRANCH  28  32
ATOM     32  O   UNL     1       3.422 -10.516  -7.113  0.00  0.00    -0.503 OA
ATOM     33  H   UNL     1       2.869 -10.755  -7.869  0.00  0.00    +0.292 HD
ENDBRANCH  28  32
ENDBRANCH  22  24
ENDBRANCH   1  20
TORSDOF 10
