REMARK  Name = ZINC23044076
REMARK  13 active torsions:
REMARK  status: ('A' for Active; 'I' for Inactive)
REMARK    1  A    between atoms: C_1  and  C_2
REMARK    2  A    between atoms: C_2  and  C_3
REMARK    3  A    between atoms: C_3  and  N_4
REMARK    4  A    between atoms: C_8  and  S_30
REMARK    5  A    between atoms: C_12  and  S_13
REMARK    6  A    between atoms: S_13  and  C_14
REMARK    7  A    between atoms: C_14  and  C_15
REMARK    8  A    between atoms: N_17  and  C_18
REMARK    9  A    between atoms: N_17  and  C_19
REMARK   10  A    between atoms: C_19  and  C_20
REMARK   11  A    between atoms: N_22  and  C_23
REMARK   12  A    between atoms: C_26  and  C_29
REMARK   13  A    between atoms: S_30  and  N_33
REMARK                            x       y       z     vdW  Elec       q    Type
REMARK                         _______ _______ _______ _____ _____    ______ ____
ROOT
ATOM      1  N   UNL     1       7.079   7.041   2.291  0.00  0.00    -0.319 N 
ATOM      2  C   UNL     1       7.889   7.810   1.471  0.00  0.00    +0.070 A 
ATOM      3  C   UNL     1       8.762   8.863   1.698  0.00  0.00    +0.030 A 
ATOM      4  C   UNL     1       9.436   9.436   0.640  0.00  0.00    +0.030 A 
ATOM      5  C   UNL     1       9.246   8.967  -0.652  0.00  0.00    +0.107 A 
ATOM      6  C   UNL     1       8.383   7.922  -0.895  0.00  0.00    +0.058 A 
ATOM      7  C   UNL     1       7.692   7.330   0.166  0.00  0.00    +0.092 A 
ATOM      8  N   UNL     1       6.797   6.311   0.244  0.00  0.00    -0.222 NA
ATOM      9  C   UNL     1       6.437   6.137   1.492  0.00  0.00    +0.170 A 
ENDROOT
BRANCH   5  10
ATOM     10  S   UNL     1      10.116   9.713  -1.990  0.00  0.00    +0.056 S 
ATOM     11  O   UNL     1       9.355   9.456  -3.162  0.00  0.00    -0.153 OA
ATOM     12  O   UNL     1      10.451  11.029  -1.573  0.00  0.00    -0.153 OA
BRANCH  10  13
ATOM     13  N   UNL     1      11.544   8.893  -2.164  0.00  0.00    -0.204 NA
ATOM     14  H   UNL     1      12.119   9.330  -2.993  0.00  0.00    +0.144 HD
ATOM     15  H   UNL     1      11.335   7.835  -2.380  0.00  0.00    +0.144 HD
ENDBRANCH  10  13
ENDBRANCH   5  10
BRANCH   1  16
ATOM     16  C   UNL     1       6.938   7.171   3.743  0.00  0.00    +0.124 C 
BRANCH  16  18
ATOM     17  C   UNL     1       7.826   6.418   5.954  0.00  0.00    +0.005 C 
ATOM     18  C   UNL     1       7.973   6.282   4.437  0.00  0.00    +0.018 C 
ENDBRANCH  16  18
ENDBRANCH   1  16
BRANCH   9  19
ATOM     19  S   UNL     1       5.292   4.922   2.055  0.00  0.00    -0.078 S 
BRANCH  19  20
ATOM     20  C   UNL     1       4.872   4.132   0.481  0.00  0.00    +0.173 C 
BRANCH  20  21
ATOM     21  C   UNL     1       3.876   3.028   0.723  0.00  0.00    +0.226 C 
ATOM     22  O   UNL     1       3.487   2.797   1.849  0.00  0.00    -0.275 OA
ATOM     23  N   UNL     1       3.416   2.296  -0.311  0.00  0.00    -0.295 N 
ATOM     24  C   UNL     1       3.885   2.575  -1.671  0.00  0.00    +0.132 C 
BRANCH  23  25
ATOM     25  C   UNL     1       2.448   1.223  -0.076  0.00  0.00    +0.203 C 
BRANCH  25  26
ATOM     26  C   UNL     1       1.050   1.777  -0.174  0.00  0.00    +0.235 C 
ATOM     27  O   UNL     1       0.879   2.953  -0.417  0.00  0.00    -0.274 OA
ATOM     28  N   UNL     1      -0.011   0.966   0.007  0.00  0.00    -0.284 N 
ATOM     29  H   UNL     1       0.140  -0.115   0.144  0.00  0.00    +0.155 HD
BRANCH  28  30
ATOM     30  C   UNL     1      -1.305   1.499   0.022  0.00  0.00    +0.033 A 
ATOM     31  C   UNL     1      -1.528   2.769   0.536  0.00  0.00    +0.023 A 
ATOM     32  C   UNL     1      -2.806   3.295   0.544  0.00  0.00    +0.005 A 
ATOM     33  C   UNL     1      -3.863   2.552   0.052  0.00  0.00    -0.050 A 
ATOM     34  C   UNL     1      -3.645   1.284  -0.456  0.00  0.00    +0.005 A 
ATOM     35  C   UNL     1      -2.369   0.756  -0.472  0.00  0.00    +0.023 A 
ATOM     36  C   UNL     1      -5.257   3.126   0.068  0.00  0.00    +0.044 C 
ENDBRANCH  28  30
ENDBRANCH  25  26
ENDBRANCH  23  25
ENDBRANCH  20  21
ENDBRANCH  19  20
ENDBRANCH   9  19
TORSDOF 10
