REMARK  Name = ZINC39894165
REMARK  8 active torsions:
REMARK  status: ('A' for Active; 'I' for Inactive)
REMARK    1  A    between atoms: C_1  and  C_2
REMARK    2  A    between atoms: C_3  and  C_32
REMARK    3  A    between atoms: N_6  and  C_25
REMARK    4  A    between atoms: C_9  and  C_10
REMARK    5  A    between atoms: N_11  and  C_12
REMARK    6  A    between atoms: C_15  and  C_21
REMARK    7  A    between atoms: C_17  and  N_18
REMARK    8  A    between atoms: C_25  and  C_26
REMARK                            x       y       z     vdW  Elec       q    Type
REMARK                         _______ _______ _______ _____ _____    ______ ____
ROOT
ATOM      1  C   UNL     1       0.146   1.490   0.003  0.00  0.00    +0.046 C 
ATOM      2  C   UNL     1      -0.128   0.007   0.008  0.00  0.00    -0.014 A 
ATOM      3  C   UNL     1      -0.347  -0.675  -1.184  0.00  0.00    +0.120 A 
ATOM      4  C   UNL     1      -0.602  -2.070  -1.149  0.00  0.00    +0.272 A 
ATOM      5  O   UNL     1      -0.796  -2.676  -2.189  0.00  0.00    -0.266 OA
ATOM      6  N   UNL     1      -0.630  -2.729   0.023  0.00  0.00    -0.272 N 
ATOM      7  C   UNL     1      -0.419  -2.084   1.196  0.00  0.00    +0.263 A 
ATOM      8  O   UNL     1      -0.454  -2.774   2.353  0.00  0.00    -0.267 OA
ATOM      9  C   UNL     1      -0.159  -0.709   1.217  0.00  0.00    +0.062 A 
ENDROOT
BRANCH   9  10
ATOM     10  C   UNL     1       0.075  -0.020   2.491  0.00  0.00    +0.125 C 
ATOM     11  N   UNL     1       0.045  -0.691   3.611  0.00  0.00    -0.253 NA
BRANCH  11  12
ATOM     12  C   UNL     1       0.150  -0.032   4.806  0.00  0.00    +0.094 A 
ATOM     13  C   UNL     1      -0.624   1.104   5.051  0.00  0.00    +0.030 A 
ATOM     14  C   UNL     1      -0.513   1.763   6.258  0.00  0.00    +0.014 A 
ATOM     15  C   UNL     1       0.363   1.301   7.224  0.00  0.00    +0.057 A 
ATOM     16  C   UNL     1       1.134   0.176   6.988  0.00  0.00    +0.047 A 
ATOM     17  C   UNL     1       1.028  -0.496   5.788  0.00  0.00    +0.152 A 
BRANCH  15  18
ATOM     18  C   UNL     1       0.479   2.026   8.540  0.00  0.00    +0.417 C 
ATOM     19  F   UNL     1      -0.389   3.123   8.546  0.00  0.00    -0.166 F 
ATOM     20  F   UNL     1       0.141   1.157   9.583  0.00  0.00    -0.166 F 
ATOM     21  F   UNL     1       1.794   2.472   8.713  0.00  0.00    -0.166 F 
ENDBRANCH  15  18
BRANCH  17  22
ATOM     22  N   UNL     1       1.848  -1.704   5.540  0.00  0.00    +0.059 N 
ATOM     23  O   UNL     1       2.607  -2.104   6.391  0.00  0.00    -0.126 OA
ATOM     24  O   UNL     1       1.758  -2.289   4.486  0.00  0.00    -0.126 OA
ENDBRANCH  17  22
ENDBRANCH  11  12
ENDBRANCH   9  10
BRANCH   3  25
ATOM     25  C   UNL     1      -0.318   0.024  -2.433  0.00  0.00    +0.105 C 
ATOM     26  N   UNL     1      -0.295   0.578  -3.425  0.00  0.00    -0.191 NA
ENDBRANCH   3  25
BRANCH   6  27
ATOM     27  C   UNL     1      -0.894  -4.170   0.032  0.00  0.00    +0.160 C 
BRANCH  27  28
ATOM     28  C   UNL     1       0.428  -4.932  -0.077  0.00  0.00    +0.138 C 
ATOM     29  C   UNL     1       0.152  -6.447  -0.189  0.00  0.00    +0.035 C 
ATOM     30  C   UNL     1       1.285  -7.054   0.682  0.00  0.00    +0.031 C 
ATOM     31  C   UNL     1       1.423  -5.971   1.781  0.00  0.00    +0.160 C 
ATOM     32  O   UNL     1       1.210  -4.720   1.105  0.00  0.00    -0.375 OA
ENDBRANCH  27  28
ENDBRANCH   6  27
TORSDOF 7
