REMARK  Name = ZINC07963091
REMARK  7 active torsions:
REMARK  status: ('A' for Active; 'I' for Inactive)
REMARK    1  A    between atoms: C_1  and  C_2
REMARK    2  A    between atoms: C_2  and  C_4
REMARK    3  A    between atoms: C_2  and  C_23
REMARK    4  A    between atoms: C_4  and  N_5
REMARK    5  A    between atoms: C_6  and  C_8
REMARK    6  A    between atoms: C_8  and  N_9
REMARK    7  A    between atoms: C_12  and  N_20
REMARK                            x       y       z     vdW  Elec       q    Type
REMARK                         _______ _______ _______ _____ _____    ______ ____
ROOT
ATOM      1  C   UNL     1       4.402   0.000  -2.171  0.00  0.00    +0.209 C 
ENDROOT
BRANCH   1   2
ATOM      2  N   UNL     1       5.088  -0.472  -3.376  0.00  0.00    -0.256 N 
ATOM      3  C   UNL     1       5.695  -1.736  -3.400  0.00  0.00    +0.081 A 
ATOM      4  C   UNL     1       5.399  -2.682  -2.433  0.00  0.00    +0.060 A 
ATOM      5  C   UNL     1       6.010  -3.922  -2.475  0.00  0.00    +0.128 A 
ATOM      6  C   UNL     1       6.914  -4.219  -3.478  0.00  0.00    +0.036 A 
ATOM      7  C   UNL     1       7.213  -3.278  -4.448  0.00  0.00    +0.050 A 
ATOM      8  C   UNL     1       6.605  -2.035  -4.413  0.00  0.00    +0.143 A 
ATOM      9  O   UNL     1       6.885  -1.100  -5.359  0.00  0.00    -0.481 OA
ATOM     10  C   UNL     1       5.821  -0.217  -5.724  0.00  0.00    +0.325 C 
ATOM     11  C   UNL     1       5.140   0.300  -4.483  0.00  0.00    +0.258 C 
ATOM     12  O   UNL     1       4.644   1.407  -4.477  0.00  0.00    -0.271 OA
BRANCH   5  13
ATOM     13  N   UNL     1       5.696  -4.934  -1.442  0.00  0.00    +0.056 N 
ATOM     14  O   UNL     1       4.906  -4.677  -0.564  0.00  0.00    -0.126 OA
ATOM     15  O   UNL     1       6.229  -6.019  -1.477  0.00  0.00    -0.126 OA
ENDBRANCH   5  13
ENDBRANCH   1   2
BRANCH   1  17
ATOM     16  N   UNL     1       2.125  -0.091  -1.209  0.00  0.00    -0.313 N 
ATOM     17  C   UNL     1       2.955  -0.418  -2.220  0.00  0.00    +0.231 C 
ATOM     18  O   UNL     1       2.538  -1.048  -3.168  0.00  0.00    -0.274 OA
ATOM     19  H   UNL     1       2.459   0.413  -0.451  0.00  0.00    +0.149 HD
BRANCH  16  20
ATOM     20  C   UNL     1       0.718  -0.497  -1.257  0.00  0.00    +0.112 C 
BRANCH  20  22
ATOM     21  C   UNL     1      -0.019   1.526   0.010  0.00  0.00    +0.014 C 
ATOM     22  C   UNL     1       0.002  -0.004   0.002  0.00  0.00    +0.033 C 
BRANCH  22  23
ATOM     23  C   UNL     1      -1.412  -0.526   0.013  0.00  0.00    -0.043 A 
ATOM     24  C   UNL     1      -2.276  -0.202  -1.017  0.00  0.00    +0.004 A 
ATOM     25  C   UNL     1      -3.572  -0.681  -1.007  0.00  0.00    +0.000 A 
ATOM     26  C   UNL     1      -4.005  -1.483   0.032  0.00  0.00    +0.000 A 
ATOM     27  C   UNL     1      -3.141  -1.807   1.061  0.00  0.00    +0.000 A 
ATOM     28  C   UNL     1      -1.843  -1.332   1.049  0.00  0.00    +0.004 A 
ENDBRANCH  22  23
ENDBRANCH  20  22
ENDBRANCH  16  20
ENDBRANCH   1  17
TORSDOF 6
