REMARK  Name = ZINC14382868
REMARK  9 active torsions:
REMARK  status: ('A' for Active; 'I' for Inactive)
REMARK    1  A    between atoms: C_4  and  C_7
REMARK    2  A    between atoms: C_7  and  N_8
REMARK    3  A    between atoms: C_9  and  N_37
REMARK    4  A    between atoms: C_10  and  N_17
REMARK    5  A    between atoms: N_17  and  C_18
REMARK    6  A    between atoms: C_18  and  C_19
REMARK    7  A    between atoms: C_25  and  C_27
REMARK    8  A    between atoms: C_30  and  O_33
REMARK    9  A    between atoms: O_33  and  C_34
REMARK                            x       y       z     vdW  Elec       q    Type
REMARK                         _______ _______ _______ _____ _____    ______ ____
ROOT
ATOM      1  N   UNL     1       3.617  -0.919  -1.562  0.00  0.00    -0.256 N 
ATOM      2  C   UNL     1       3.575  -2.197  -1.988  0.00  0.00    +0.251 C 
ATOM      3  O   UNL     1       3.334  -3.093  -1.202  0.00  0.00    -0.270 OA
ENDROOT
BRANCH   1   6
ATOM      4  N   UNL     1       5.458   1.847  -3.130  0.00  0.00    -0.276 N 
ATOM      5  C   UNL     1       5.125   0.852  -2.240  0.00  0.00    +0.128 A 
ATOM      6  C   UNL     1       3.982   0.110  -2.455  0.00  0.00    +0.140 A 
ATOM      7  C   UNL     1       3.184   0.401  -3.577  0.00  0.00    +0.277 A 
ATOM      8  O   UNL     1       2.167  -0.236  -3.789  0.00  0.00    -0.266 OA
ATOM      9  N   UNL     1       3.552   1.389  -4.416  0.00  0.00    -0.273 N 
ATOM     10  H   UNL     1       2.986   1.597  -5.214  0.00  0.00    +0.173 HD
ATOM     11  C   UNL     1       4.673   2.099  -4.193  0.00  0.00    +0.331 A 
ATOM     12  O   UNL     1       4.981   2.986  -4.966  0.00  0.00    -0.246 OA
BRANCH   5  13
ATOM     13  N   UNL     1       5.925   0.598  -1.151  0.00  0.00    -0.343 N 
ATOM     14  H   UNL     1       5.722  -0.146  -0.563  0.00  0.00    +0.144 HD
ATOM     15  H   UNL     1       6.692   1.163  -0.970  0.00  0.00    +0.144 HD
ENDBRANCH   5  13
BRANCH   4  16
ATOM     16  C   UNL     1       6.671   2.640  -2.916  0.00  0.00    +0.163 C 
BRANCH  16  20
ATOM     17  C   UNL     1       5.739   6.053  -0.522  0.00  0.00    +0.000 A 
ATOM     18  C   UNL     1       6.127   4.871   0.081  0.00  0.00    +0.000 A 
ATOM     19  C   UNL     1       6.428   3.766  -0.694  0.00  0.00    +0.005 A 
ATOM     20  C   UNL     1       6.342   3.844  -2.071  0.00  0.00    -0.028 A 
ATOM     21  C   UNL     1       5.959   5.027  -2.675  0.00  0.00    +0.005 A 
ATOM     22  C   UNL     1       5.652   6.130  -1.900  0.00  0.00    +0.000 A 
ENDBRANCH  16  20
ENDBRANCH   4  16
ENDBRANCH   1   6
BRANCH   2  23
ATOM     23  C   UNL     1       3.821  -2.510  -3.410  0.00  0.00    +0.037 A 
ATOM     24  C   UNL     1       4.651  -1.686  -4.175  0.00  0.00    +0.016 A 
ATOM     25  C   UNL     1       4.882  -1.984  -5.499  0.00  0.00    +0.046 A 
ATOM     26  C   UNL     1       4.282  -3.096  -6.078  0.00  0.00    +0.127 A 
ATOM     27  C   UNL     1       3.453  -3.916  -5.322  0.00  0.00    +0.046 A 
ATOM     28  C   UNL     1       3.221  -3.628  -3.995  0.00  0.00    +0.016 A 
BRANCH  26  29
ATOM     29  O   UNL     1       4.508  -3.383  -7.385  0.00  0.00    -0.434 OA
BRANCH  29  30
ATOM     30  C   UNL     1       5.371  -2.499  -8.104  0.00  0.00    +0.541 C 
ATOM     31  F   UNL     1       4.832  -1.208  -8.090  0.00  0.00    -0.166 F 
ATOM     32  F   UNL     1       6.632  -2.484  -7.499  0.00  0.00    -0.166 F 
ENDBRANCH  29  30
ENDBRANCH  26  29
ENDBRANCH   2  23
BRANCH   1  33
ATOM     33  C   UNL     1       3.283  -0.599  -0.172  0.00  0.00    +0.149 C 
BRANCH  33  34
ATOM     34  C   UNL     1       1.815  -0.271  -0.071  0.00  0.00    -0.030 A 
ATOM     35  C   UNL     1       0.900  -1.272   0.197  0.00  0.00    +0.005 A 
ATOM     36  C   UNL     1      -0.446  -0.971   0.290  0.00  0.00    +0.000 A 
ATOM     37  C   UNL     1      -0.876   0.331   0.115  0.00  0.00    +0.000 A 
ATOM     38  C   UNL     1       0.039   1.331  -0.151  0.00  0.00    +0.000 A 
ATOM     39  C   UNL     1       1.385   1.031  -0.245  0.00  0.00    +0.005 A 
ENDBRANCH  33  34
ENDBRANCH   1  33
TORSDOF 9
