REMARK  Name = ZINC22502813
REMARK  3 active torsions:
REMARK  status: ('A' for Active; 'I' for Inactive)
REMARK    1  A    between atoms: C_4  and  C_7
REMARK    2  A    between atoms: C_9  and  C_13
REMARK    3  A    between atoms: C_19  and  C_21
REMARK                            x       y       z     vdW  Elec       q    Type
REMARK                         _______ _______ _______ _____ _____    ______ ____
ROOT
ATOM      1  C   UNL     1       5.757   5.232  -0.025  0.00  0.00    +0.203 A 
ATOM      2  N   UNL     1       7.055   5.022  -0.040  0.00  0.00    -0.125 NA
ATOM      3  N   UNL     1       7.294   3.757  -0.049  0.00  0.00    -0.120 NA
ATOM      4  C   UNL     1       6.171   3.100  -0.042  0.00  0.00    +0.219 A 
ATOM      5  N   UNL     1       5.128   3.994  -0.026  0.00  0.00    -0.184 N 
ATOM      6  N   UNL     1       3.849   3.454  -0.022  0.00  0.00    -0.155 NA
ATOM      7  C   UNL     1       3.659   2.159  -0.022  0.00  0.00    +0.133 A 
ATOM      8  S   UNL     1       5.332   1.535  -0.043  0.00  0.00    -0.026 S 
ENDROOT
BRANCH   7   9
ATOM      9  C   UNL     1       2.386   1.406  -0.013  0.00  0.00    +0.023 A 
ATOM     10  C   UNL     1       2.397   0.011  -0.021  0.00  0.00    +0.012 A 
ATOM     11  C   UNL     1       1.206  -0.686  -0.013  0.00  0.00    +0.001 A 
ATOM     12  C   UNL     1       0.002  -0.004   0.002  0.00  0.00    +0.001 A 
ATOM     13  C   UNL     1      -0.017   1.379   0.010  0.00  0.00    +0.016 A 
ATOM     14  C   UNL     1       1.168   2.088   0.002  0.00  0.00    +0.028 A 
ATOM     15 BR   UNL     1       1.141   3.979   0.013  0.00  0.00    -0.050 Br
ENDBRANCH   7   9
BRANCH   1  18
ATOM     16  C   UNL     1       4.686   8.745   0.174  0.00  0.00    +0.093 A 
ATOM     17  C   UNL     1       5.677   7.756   0.282  0.00  0.00    +0.061 A 
ATOM     18  C   UNL     1       5.090   6.545  -0.011  0.00  0.00    +0.105 A 
ATOM     19  N   UNL     1       3.773   6.787  -0.282  0.00  0.00    -0.273 N 
ATOM     20  H   UNL     1       3.103   5.954  -0.540  0.00  0.00    +0.189 HD
ATOM     21  N   UNL     1       3.552   8.164  -0.158  0.00  0.00    -0.173 NA
BRANCH  16  25
ATOM     22  C   UNL     1       5.247  12.910   0.828  0.00  0.00    +0.000 A 
ATOM     23  C   UNL     1       3.997  12.429   0.482  0.00  0.00    +0.001 A 
ATOM     24  C   UNL     1       3.810  11.078   0.269  0.00  0.00    +0.010 A 
ATOM     25  C   UNL     1       4.882  10.199   0.403  0.00  0.00    +0.002 A 
ATOM     26  C   UNL     1       6.137  10.688   0.757  0.00  0.00    +0.010 A 
ATOM     27  C   UNL     1       6.315  12.041   0.962  0.00  0.00    +0.001 A 
ENDBRANCH  16  25
ENDBRANCH   1  18
TORSDOF 3
