REMARK  Name = ZINC22147585
REMARK  6 active torsions:
REMARK  status: ('A' for Active; 'I' for Inactive)
REMARK    1  A    between atoms: C_1  and  C_2
REMARK    2  A    between atoms: C_2  and  O_3
REMARK    3  A    between atoms: O_3  and  C_4
REMARK    4  A    between atoms: C_10  and  C_11
REMARK    5  A    between atoms: N_22  and  C_23
REMARK    6  A    between atoms: C_26  and  N_29
REMARK                            x       y       z     vdW  Elec       q    Type
REMARK                         _______ _______ _______ _____ _____    ______ ____
ROOT
ATOM      1  C   UNL     1      -1.579  -1.932   0.956  0.00  0.00    +0.346 C 
ATOM      2  O   UNL     1      -0.504  -2.736   0.968  0.00  0.00    -0.245 OA
ATOM      3  C   UNL     1      -2.836  -2.446   0.595  0.00  0.00    +0.139 C 
ATOM      4  C   UNL     1      -3.042  -3.848   0.220  0.00  0.00    +0.120 C 
ATOM      5  S   UNL     1      -4.785  -3.930  -0.129  0.00  0.00    -0.065 S 
ATOM      6  C   UNL     1      -5.234  -2.342   0.166  0.00  0.00    +0.062 C 
ATOM      7  C   UNL     1      -6.513  -1.784   0.058  0.00  0.00    +0.027 C 
ATOM      8  C   UNL     1      -3.995  -1.662   0.568  0.00  0.00    +0.209 C 
ATOM      9  O   UNL     1      -3.977  -0.478   0.860  0.00  0.00    -0.286 OA
ATOM     10  N   UNL     1      -2.143  -4.824   0.157  0.00  0.00    -0.240 NA
ENDROOT
BRANCH   7  11
ATOM     11  C   UNL     1      -6.687  -0.392   0.174  0.00  0.00    -0.020 A 
ATOM     12  C   UNL     1      -5.768   0.491  -0.437  0.00  0.00    +0.012 A 
ATOM     13  C   UNL     1      -5.941   1.837  -0.322  0.00  0.00    +0.050 A 
ATOM     14  C   UNL     1      -7.023   2.349   0.397  0.00  0.00    +0.166 A 
ATOM     15  C   UNL     1      -7.941   1.478   1.008  0.00  0.00    +0.167 A 
ATOM     16  C   UNL     1      -7.782   0.128   0.895  0.00  0.00    +0.057 A 
ATOM     17  O   UNL     1      -8.890   2.227   1.641  0.00  0.00    -0.453 OA
ATOM     18  C   UNL     1      -8.322   3.545   1.760  0.00  0.00    +0.466 C 
ATOM     19  O   UNL     1      -7.407   3.628   0.652  0.00  0.00    -0.453 OA
ENDBRANCH   7  11
BRANCH  10  20
ATOM     20  C   UNL     1      -2.516  -6.055  -0.208  0.00  0.00    +0.065 A 
ATOM     21  C   UNL     1      -3.689  -6.633   0.330  0.00  0.00    +0.030 A 
ATOM     22  C   UNL     1      -4.059  -7.890  -0.051  0.00  0.00    +0.035 A 
ATOM     23  C   UNL     1      -3.290  -8.600  -0.964  0.00  0.00    +0.126 A 
ATOM     24  C   UNL     1      -2.135  -8.044  -1.500  0.00  0.00    +0.035 A 
ATOM     25  C   UNL     1      -1.745  -6.787  -1.141  0.00  0.00    +0.030 A 
BRANCH  23  26
ATOM     26  N   UNL     1      -3.704  -9.963  -1.368  0.00  0.00    +0.056 N 
ATOM     27  O   UNL     1      -4.797 -10.496  -0.863  0.00  0.00    -0.126 OA
ATOM     28  O   UNL     1      -2.979 -10.642  -2.233  0.00  0.00    -0.126 OA
ENDBRANCH  23  26
ENDBRANCH  10  20
BRANCH   1  29
ATOM     29  O   UNL     1      -1.453  -0.639   1.289  0.00  0.00    -0.461 OA
BRANCH  29  31
ATOM     30  C   UNL     1      -0.200   1.305   1.992  0.00  0.00    +0.048 C 
ATOM     31  C   UNL     1      -0.146  -0.185   1.646  0.00  0.00    +0.229 C 
ENDBRANCH  29  31
ENDBRANCH   1  29
TORSDOF 5
