REMARK  Name = ZINC00951788
REMARK  7 active torsions:
REMARK  status: ('A' for Active; 'I' for Inactive)
REMARK    1  A    between atoms: C_1  and  C_2
REMARK    2  A    between atoms: C_2  and  O_3
REMARK    3  A    between atoms: O_3  and  C_4
REMARK    4  A    between atoms: C_6  and  C_11
REMARK    5  A    between atoms: C_9  and  O_10
REMARK    6  A    between atoms: C_29  and  C_31
REMARK    7  A    between atoms: C_29  and  C_32
REMARK                            x       y       z     vdW  Elec       q    Type
REMARK                         _______ _______ _______ _____ _____    ______ ____
ROOT
ATOM      1  C   UNL     1      -2.557   4.152   0.048  0.00  0.00    +0.092 C 
ATOM      2  C   UNL     1      -2.660   5.000  -1.186  0.00  0.00    +0.067 A 
ATOM      3  C   UNL     1      -2.452   6.344  -1.131  0.00  0.00    +0.113 A 
ATOM      4  N   UNL     1      -2.545   7.093  -2.280  0.00  0.00    -0.295 N 
ATOM      5  H   UNL     1      -2.391   8.080  -2.244  0.00  0.00    +0.172 HD
ATOM      6  C   UNL     1      -2.843   6.504  -3.453  0.00  0.00    +0.328 A 
ATOM      7  O   UNL     1      -2.921   7.180  -4.460  0.00  0.00    -0.247 OA
ATOM      8  N   UNL     1      -3.057   5.177  -3.526  0.00  0.00    -0.275 N 
ATOM      9  H   UNL     1      -3.279   4.760  -4.407  0.00  0.00    +0.173 HD
ATOM     10  C   UNL     1      -2.975   4.407  -2.424  0.00  0.00    +0.260 A 
ATOM     11  O   UNL     1      -3.171   3.207  -2.497  0.00  0.00    -0.267 OA
ATOM     12  N   UNL     1      -2.151   6.947   0.064  0.00  0.00    -0.303 N 
ATOM     13  C   UNL     1      -2.436   6.325   1.250  0.00  0.00    +0.017 C 
ATOM     14  C   UNL     1      -2.638   4.992   1.297  0.00  0.00    +0.024 C 
ATOM     15  C   UNL     1      -2.928   4.344   2.511  0.00  0.00    +0.162 C 
ATOM     16  O   UNL     1      -3.121   3.145   2.516  0.00  0.00    -0.292 OA
ATOM     17  C   UNL     1      -3.004   5.109   3.804  0.00  0.00    +0.086 C 
ATOM     18  C   UNL     1      -2.092   6.338   3.710  0.00  0.00    -0.023 C 
ATOM     19  C   UNL     1      -2.522   7.168   2.499  0.00  0.00    +0.058 C 
ATOM     20  C   UNL     1      -0.640   5.888   3.537  0.00  0.00    +0.011 C 
ATOM     21  C   UNL     1      -2.222   7.178   4.982  0.00  0.00    +0.011 C 
ATOM     22  H   UNL     1      -1.731   7.821   0.069  0.00  0.00    +0.153 HD
ENDROOT
BRANCH   1  25
ATOM     23  C   UNL     1      -0.016   1.356   0.009  0.00  0.00    +0.162 A 
ATOM     24  C   UNL     1      -1.225   2.034   0.019  0.00  0.00    +0.054 A 
ATOM     25  C   UNL     1      -1.242   3.416   0.032  0.00  0.00    -0.032 A 
ATOM     26  C   UNL     1      -0.055   4.125   0.025  0.00  0.00    +0.008 A 
ATOM     27  C   UNL     1       1.154   3.455   0.010  0.00  0.00    +0.049 A 
ATOM     28  C   UNL     1       1.178   2.069   0.002  0.00  0.00    +0.158 A 
BRANCH  28  29
ATOM     29  O   UNL     1       2.367   1.409  -0.013  0.00  0.00    -0.503 OA
ATOM     30  H   UNL     1       2.702   1.222  -0.901  0.00  0.00    +0.292 HD
ENDBRANCH  28  29
BRANCH  23  31
ATOM     31  O   UNL     1       0.002  -0.004   0.002  0.00  0.00    -0.489 OA
BRANCH  31  33
ATOM     32  C   UNL     1      -1.041  -2.184   0.000  0.00  0.00    +0.048 C 
ATOM     33  C   UNL     1      -1.262  -0.670   0.011  0.00  0.00    +0.226 C 
ENDBRANCH  31  33
ENDBRANCH  23  31
ENDBRANCH   1  25
TORSDOF 4
