REMARK  Name = ZINC62320764
REMARK  6 active torsions:
REMARK  status: ('A' for Active; 'I' for Inactive)
REMARK    1  A    between atoms: C_1  and  C_2
REMARK    2  A    between atoms: C_2  and  C_3
REMARK    3  A    between atoms: C_2  and  C_4
REMARK    4  A    between atoms: C_4  and  C_5
REMARK    5  A    between atoms: C_5  and  N_6
REMARK    6  A    between atoms: C_12  and  C_15
REMARK                            x       y       z     vdW  Elec       q    Type
REMARK                         _______ _______ _______ _____ _____    ______ ____
ROOT
ATOM      1  N   UNL     1      -3.510  -0.638  -1.275  0.00  0.00    -0.299 N 
ATOM      2  C   UNL     1      -4.323  -0.403  -2.324  0.00  0.00    +0.302 C 
ATOM      3  O   UNL     1      -3.915   0.230  -3.279  0.00  0.00    -0.253 OA
ATOM      4  N   UNL     1      -5.587  -0.870  -2.315  0.00  0.00    -0.285 N 
ATOM      5  C   UNL     1      -6.208  -1.640  -1.227  0.00  0.00    +0.110 C 
ATOM      6  C   UNL     1      -7.648  -1.976  -1.668  0.00  0.00    +0.029 C 
ATOM      7  C   UNL     1      -7.574  -1.863  -3.214  0.00  0.00    +0.038 C 
ATOM      8  C   UNL     1      -6.579  -0.686  -3.390  0.00  0.00    +0.117 C 
ATOM      9  H   UNL     1      -3.834  -1.143  -0.513  0.00  0.00    +0.150 HD
ENDROOT
BRANCH   7  10
ATOM     10  C   UNL     1      -8.921  -1.522  -3.796  0.00  0.00    -0.039 A 
ATOM     11  C   UNL     1      -9.552  -0.347  -3.432  0.00  0.00    +0.008 A 
ATOM     12  C   UNL     1     -10.787  -0.029  -3.964  0.00  0.00    +0.050 A 
ATOM     13  C   UNL     1     -11.397  -0.888  -4.863  0.00  0.00    +0.166 A 
ATOM     14  C   UNL     1     -10.762  -2.072  -5.230  0.00  0.00    +0.166 A 
ATOM     15  C   UNL     1      -9.521  -2.381  -4.697  0.00  0.00    +0.053 A 
ATOM     16  O   UNL     1     -11.557  -2.737  -6.117  0.00  0.00    -0.453 OA
ATOM     17  C   UNL     1     -12.864  -2.149  -5.978  0.00  0.00    +0.466 C 
ATOM     18  O   UNL     1     -12.591  -0.811  -5.521  0.00  0.00    -0.453 OA
ENDBRANCH   7  10
BRANCH   1  19
ATOM     19  C   UNL     1      -2.135  -0.131  -1.286  0.00  0.00    +0.106 C 
BRANCH  19  20
ATOM     20  C   UNL     1      -1.433  -0.534   0.013  0.00  0.00    +0.022 C 
BRANCH  20  22
ATOM     21  C   UNL     1      -0.019   1.526   0.010  0.00  0.00    +0.007 C 
ATOM     22  C   UNL     1       0.002  -0.004   0.002  0.00  0.00    -0.016 C 
ATOM     23  C   UNL     1       0.742  -0.511   1.242  0.00  0.00    +0.007 C 
ENDBRANCH  20  22
ENDBRANCH  19  20
ENDBRANCH   1  19
TORSDOF 4
