REMARK  Name = ZINC12751920
REMARK  8 active torsions:
REMARK  status: ('A' for Active; 'I' for Inactive)
REMARK    1  A    between atoms: C_1  and  C_2
REMARK    2  A    between atoms: C_2  and  C_4
REMARK    3  A    between atoms: C_2  and  N_14
REMARK    4  A    between atoms: C_7  and  S_10
REMARK    5  A    between atoms: S_10  and  N_13
REMARK    6  A    between atoms: N_17  and  C_18
REMARK    7  A    between atoms: C_18  and  C_20
REMARK    8  A    between atoms: C_18  and  C_21
REMARK                            x       y       z     vdW  Elec       q    Type
REMARK                         _______ _______ _______ _____ _____    ______ ____
ROOT
ATOM      1  N   UNL     1      -6.522  -0.262   2.302  0.00  0.00    -0.293 N 
ATOM      2  C   UNL     1      -5.643  -0.864   1.476  0.00  0.00    +0.301 C 
ATOM      3  O   UNL     1      -5.749  -2.051   1.236  0.00  0.00    -0.253 OA
ATOM      4  N   UNL     1      -4.647  -0.149   0.915  0.00  0.00    -0.293 N 
ATOM      5  H   UNL     1      -6.438   0.685   2.493  0.00  0.00    +0.151 HD
ATOM      6  H   UNL     1      -4.563   0.798   1.107  0.00  0.00    +0.151 HD
ENDROOT
BRANCH   1   8
ATOM      7  C   UNL     1      -8.788  -1.111   1.943  0.00  0.00    +0.033 C 
ATOM      8  C   UNL     1      -7.605  -1.039   2.911  0.00  0.00    +0.102 C 
BRANCH   8   9
ATOM      9  C   UNL     1      -8.042  -0.374   4.190  0.00  0.00    -0.027 A 
ATOM     10  C   UNL     1      -8.130   1.004   4.258  0.00  0.00    +0.007 A 
ATOM     11  C   UNL     1      -8.536   1.614   5.430  0.00  0.00    +0.029 A 
ATOM     12  C   UNL     1      -8.844   0.847   6.538  0.00  0.00    +0.105 A 
ATOM     13  C   UNL     1      -8.751  -0.530   6.472  0.00  0.00    +0.029 A 
ATOM     14  C   UNL     1      -8.350  -1.141   5.298  0.00  0.00    +0.007 A 
BRANCH  12  15
ATOM     15  S   UNL     1      -9.354   1.625   8.034  0.00  0.00    +0.056 S 
ATOM     16  O   UNL     1      -9.885   2.893   7.672  0.00  0.00    -0.153 OA
ATOM     17  O   UNL     1     -10.109   0.661   8.756  0.00  0.00    -0.153 OA
BRANCH  15  18
ATOM     18  N   UNL     1      -7.989   1.920   8.923  0.00  0.00    -0.204 NA
ATOM     19  H   UNL     1      -7.120   1.665   8.576  0.00  0.00    +0.144 HD
ATOM     20  H   UNL     1      -8.058   2.349   9.790  0.00  0.00    +0.144 HD
ENDBRANCH  15  18
ENDBRANCH  12  15
ENDBRANCH   8   9
ENDBRANCH   1   8
BRANCH   4  21
ATOM     21  C   UNL     1      -3.692  -0.803   0.018  0.00  0.00    +0.102 C 
ATOM     22  C   UNL     1      -4.266  -0.838  -1.400  0.00  0.00    +0.033 C 
BRANCH  21  23
ATOM     23  C   UNL     1      -2.397  -0.033   0.016  0.00  0.00    -0.024 A 
ATOM     24  C   UNL     1      -2.415   1.349   0.025  0.00  0.00    +0.009 A 
ATOM     25  C   UNL     1      -1.229   2.059   0.019  0.00  0.00    +0.050 A 
ATOM     26  C   UNL     1      -0.017   1.385   0.010  0.00  0.00    +0.162 A 
ATOM     27  C   UNL     1       0.002  -0.004   0.002  0.00  0.00    +0.162 A 
ATOM     28  C   UNL     1      -1.192  -0.710   0.004  0.00  0.00    +0.055 A 
ATOM     29  O   UNL     1       1.181  -0.685  -0.007  0.00  0.00    -0.485 OA
ATOM     30  C   UNL     1       2.347   0.053  -0.387  0.00  0.00    +0.270 C 
ATOM     31  C   UNL     1       2.334   1.392   0.364  0.00  0.00    +0.270 C 
ATOM     32  O   UNL     1       1.143   2.098   0.002  0.00  0.00    -0.485 OA
ENDBRANCH  21  23
ENDBRANCH   4  21
TORSDOF 6
