REMARK  Name = ZINC30956171
REMARK  12 active torsions:
REMARK  status: ('A' for Active; 'I' for Inactive)
REMARK    1  A    between atoms: C_1  and  C_2
REMARK    2  A    between atoms: C_2  and  C_3
REMARK    3  A    between atoms: C_2  and  C_4
REMARK    4  A    between atoms: C_4  and  C_6
REMARK    5  A    between atoms: C_4  and  N_23
REMARK    6  A    between atoms: N_8  and  N_9
REMARK    7  A    between atoms: C_10  and  C_11
REMARK    8  A    between atoms: C_14  and  N_20
REMARK    9  A    between atoms: C_15  and  N_17
REMARK   10  A    between atoms: N_20  and  C_21
REMARK   11  A    between atoms: N_20  and  C_22
REMARK   12  A    between atoms: C_24  and  C_26
REMARK                            x       y       z     vdW  Elec       q    Type
REMARK                         _______ _______ _______ _____ _____    ______ ____
ROOT
ATOM      1  C   UNL     1      -1.352   3.585  -1.537  0.00  0.00    +0.253 C 
ATOM      2  O   UNL     1      -0.441   4.077  -2.170  0.00  0.00    -0.272 OA
ATOM      3  N   UNL     1      -1.954   4.293  -0.561  0.00  0.00    -0.205 N 
ATOM      4  H   UNL     1      -2.779   3.847   0.013  0.00  0.00    +0.177 HD
ENDROOT
BRANCH   3   5
ATOM      5  N   UNL     1      -1.529   5.598  -0.278  0.00  0.00    -0.188 NA
ATOM      6  C   UNL     1      -2.026   6.236   0.737  0.00  0.00    +0.138 C 
BRANCH   6   7
ATOM      7  C   UNL     1      -2.645   5.489   1.847  0.00  0.00    -0.003 A 
ATOM      8  C   UNL     1      -2.456   4.108   1.953  0.00  0.00    +0.011 A 
ATOM      9  C   UNL     1      -3.032   3.413   2.993  0.00  0.00    +0.026 A 
ATOM     10  C   UNL     1      -3.809   4.083   3.933  0.00  0.00    +0.060 A 
ATOM     11  C   UNL     1      -4.004   5.456   3.827  0.00  0.00    +0.148 A 
ATOM     12  C   UNL     1      -3.427   6.158   2.792  0.00  0.00    +0.044 A 
BRANCH  11  13
ATOM     13  N   UNL     1      -4.833   6.164   4.829  0.00  0.00    +0.058 N 
ATOM     14  O   UNL     1      -5.004   7.367   4.737  0.00  0.00    -0.126 OA
ATOM     15  O   UNL     1      -5.343   5.544   5.744  0.00  0.00    -0.126 OA
ENDBRANCH  11  13
BRANCH  10  16
ATOM     16  N   UNL     1      -4.395   3.376   4.982  0.00  0.00    -0.334 N 
ATOM     17  C   UNL     1      -5.305   2.340   4.476  0.00  0.00    +0.129 C 
ATOM     18  C   UNL     1      -3.372   2.794   5.861  0.00  0.00    +0.129 C 
ENDBRANCH  10  16
ENDBRANCH   6   7
ENDBRANCH   3   5
BRANCH   1  19
ATOM     19  C   UNL     1      -1.809   2.182  -1.842  0.00  0.00    +0.163 C 
BRANCH  19  20
ATOM     20  N   UNL     1      -1.003   1.632  -2.935  0.00  0.00    -0.300 N 
ATOM     21  C   UNL     1      -1.502   0.652  -3.713  0.00  0.00    +0.245 C 
ATOM     22  O   UNL     1      -2.621   0.223  -3.509  0.00  0.00    -0.270 OA
ATOM     23  H   UNL     1       0.010   2.019  -3.120  0.00  0.00    +0.150 HD
BRANCH  21  24
ATOM     24  C   UNL     1      -0.688   0.097  -4.815  0.00  0.00    +0.037 A 
ATOM     25  C   UNL     1       0.596   0.591  -5.056  0.00  0.00    +0.014 A 
ATOM     26  C   UNL     1       1.353   0.064  -6.082  0.00  0.00    +0.021 A 
ATOM     27  C   UNL     1       0.837  -0.943  -6.880  0.00  0.00    +0.041 A 
ATOM     28  C   UNL     1      -0.438  -1.433  -6.650  0.00  0.00    +0.021 A 
ATOM     29  C   UNL     1      -1.202  -0.919  -5.623  0.00  0.00    +0.014 A 
ATOM     30 CL   UNL     1       1.793  -1.595  -8.174  0.00  0.00    -0.084 Cl
ENDBRANCH  21  24
ENDBRANCH  19  20
BRANCH  19  32
ATOM     31  C   UNL     1      -2.107  -0.115  -0.906  0.00  0.00    +0.009 C 
ATOM     32  C   UNL     1      -1.643   1.309  -0.597  0.00  0.00    +0.012 C 
ATOM     33  C   UNL     1      -0.170   1.287  -0.182  0.00  0.00    +0.009 C 
ENDBRANCH  19  32
ENDBRANCH   1  19
TORSDOF 8
