REMARK  Name = ZINC09344659
REMARK  10 active torsions:
REMARK  status: ('A' for Active; 'I' for Inactive)
REMARK    1  A    between atoms: C_1  and  C_2
REMARK    2  A    between atoms: C_2  and  C_36
REMARK    3  A    between atoms: C_9  and  C_21
REMARK    4  A    between atoms: C_9  and  N_25
REMARK    5  A    between atoms: N_12  and  C_13
REMARK    6  A    between atoms: C_16  and  O_19
REMARK    7  A    between atoms: O_19  and  C_20
REMARK    8  A    between atoms: N_25  and  S_26
REMARK    9  A    between atoms: S_26  and  C_29
REMARK   10  A    between atoms: C_32  and  N_35
REMARK                            x       y       z     vdW  Elec       q    Type
REMARK                         _______ _______ _______ _____ _____    ______ ____
ROOT
ATOM      1  C   UNL     1       0.458   0.804   0.474  0.00  0.00    +0.011 C 
ATOM      2  C   UNL     1       0.315   0.969  -1.041  0.00  0.00    -0.023 C 
ATOM      3  C   UNL     1       1.244   2.090  -1.519  0.00  0.00    +0.058 C 
ATOM      4  C   UNL     1       2.674   1.656  -1.267  0.00  0.00    +0.028 C 
ATOM      5  C   UNL     1       3.022   0.341  -1.231  0.00  0.00    +0.052 C 
ATOM      6  C   UNL     1       2.112  -0.708  -1.426  0.00  0.00    +0.164 C 
ATOM      7  O   UNL     1       2.467  -1.868  -1.354  0.00  0.00    -0.292 OA
ATOM      8  C   UNL     1       0.674  -0.349  -1.730  0.00  0.00    +0.086 C 
ATOM      9  C   UNL     1       4.499   0.291  -0.950  0.00  0.00    +0.240 C 
ATOM     10  C   UNL     1       4.884   1.756  -0.852  0.00  0.00    +0.259 C 
ATOM     11  O   UNL     1       5.989   2.205  -0.634  0.00  0.00    -0.272 OA
ATOM     12  N   UNL     1       3.751   2.458  -1.053  0.00  0.00    -0.241 N 
ATOM     13  C   UNL     1      -1.133   1.333  -1.376  0.00  0.00    +0.011 C 
ENDROOT
BRANCH  12  14
ATOM     14  C   UNL     1       3.689   3.859  -1.044  0.00  0.00    +0.041 A 
ATOM     15  C   UNL     1       3.238   4.542  -2.165  0.00  0.00    +0.027 A 
ATOM     16  C   UNL     1       3.173   5.921  -2.153  0.00  0.00    +0.047 A 
ATOM     17  C   UNL     1       3.569   6.625  -1.025  0.00  0.00    +0.120 A 
ATOM     18  C   UNL     1       4.025   5.943   0.094  0.00  0.00    +0.047 A 
ATOM     19  C   UNL     1       4.085   4.563   0.085  0.00  0.00    +0.027 A 
BRANCH  17  20
ATOM     20  O   UNL     1       3.510   7.983  -1.016  0.00  0.00    -0.495 OA
ATOM     21  C   UNL     1       3.030   8.619  -2.202  0.00  0.00    +0.277 C 
ENDBRANCH  17  20
ENDBRANCH  12  14
BRANCH   9  22
ATOM     22  C   UNL     1       5.244  -0.390  -2.100  0.00  0.00    +0.422 C 
ATOM     23  F   UNL     1       4.934   0.252  -3.303  0.00  0.00    -0.168 F 
ATOM     24  F   UNL     1       6.622  -0.314  -1.872  0.00  0.00    -0.168 F 
ATOM     25  F   UNL     1       4.857  -1.733  -2.175  0.00  0.00    -0.168 F 
ENDBRANCH   9  22
BRANCH   9  26
ATOM     26  N   UNL     1       4.761  -0.399   0.315  0.00  0.00    -0.162 NA
ATOM     27  H   UNL     1       4.931  -1.354   0.321  0.00  0.00    +0.150 HD
BRANCH  26  28
ATOM     28  S   UNL     1       4.768   0.452   1.736  0.00  0.00    +0.060 S 
ATOM     29  O   UNL     1       5.500  -0.328   2.672  0.00  0.00    -0.153 OA
ATOM     30  O   UNL     1       5.129   1.786   1.409  0.00  0.00    -0.153 OA
BRANCH  28  31
ATOM     31  C   UNL     1       3.106   0.508   2.317  0.00  0.00    +0.105 A 
ATOM     32  C   UNL     1       2.460   1.724   2.443  0.00  0.00    +0.030 A 
ATOM     33  C   UNL     1       1.155   1.772   2.893  0.00  0.00    +0.024 A 
ATOM     34  C   UNL     1       0.495   0.597   3.231  0.00  0.00    +0.025 A 
ATOM     35  C   UNL     1       1.149  -0.623   3.109  0.00  0.00    +0.024 A 
ATOM     36  C   UNL     1       2.452  -0.663   2.653  0.00  0.00    +0.030 A 
BRANCH  34  37
ATOM     37  N   UNL     1      -0.822   0.641   3.692  0.00  0.00    -0.358 N 
ATOM     38  H   UNL     1      -1.282  -0.179   3.928  0.00  0.00    +0.142 HD
ATOM     39  H   UNL     1      -1.278   1.494   3.777  0.00  0.00    +0.142 HD
ENDBRANCH  34  37
ENDBRANCH  28  31
ENDBRANCH  26  28
ENDBRANCH   9  26
TORSDOF 7
