REMARK  Name = ZINC39672130
REMARK  8 active torsions:
REMARK  status: ('A' for Active; 'I' for Inactive)
REMARK    1  A    between atoms: C_1  and  C_2
REMARK    2  A    between atoms: C_2  and  C_3
REMARK    3  A    between atoms: C_3  and  C_4
REMARK    4  A    between atoms: C_4  and  C_5
REMARK    5  A    between atoms: C_9  and  C_18
REMARK    6  A    between atoms: N_20  and  C_21
REMARK    7  A    between atoms: C_21  and  C_22
REMARK    8  A    between atoms: N_31  and  C_32
REMARK                            x       y       z     vdW  Elec       q    Type
REMARK                         _______ _______ _______ _____ _____    ______ ____
ROOT
ATOM      1  C   UNL     1       1.553  -2.533  -2.616  0.00  0.00    +0.216 C 
ATOM      2  O   UNL     1       1.960  -1.757  -3.454  0.00  0.00    -0.276 OA
ATOM      3  N   UNL     1       1.646  -3.861  -2.825  0.00  0.00    -0.300 N 
ATOM      4  C   UNL     1       1.202  -4.955  -1.929  0.00  0.00    +0.121 C 
ATOM      5  C   UNL     1       0.604  -6.017  -2.877  0.00  0.00    +0.100 C 
ATOM      6  C   UNL     1       1.273  -5.753  -4.236  0.00  0.00    -0.004 C 
ATOM      7  C   UNL     1       2.209  -4.557  -4.006  0.00  0.00    +0.115 C 
ATOM      8  C   UNL     1       0.222  -5.398  -5.283  0.00  0.00    -0.010 C 
ATOM      9  C   UNL     1       0.906  -5.195  -6.638  0.00  0.00    -0.082 C 
ATOM     10  N   UNL     1       1.612  -6.425  -7.021  0.00  0.00    +0.379 N 
ATOM     11  C   UNL     1       2.683  -6.708  -6.057  0.00  0.00    -0.082 C 
ATOM     12  C   UNL     1       2.074  -6.974  -4.678  0.00  0.00    -0.010 C 
ATOM     13  H   UNL     1       0.960  -7.195  -7.033  0.00  0.00    -0.086 HD
ATOM     14  H   UNL     1       2.010  -6.309  -7.940  0.00  0.00    -0.086 HD
ENDROOT
BRANCH   5  15
ATOM     15  C   UNL     1       0.935  -7.404  -2.387  0.00  0.00    +0.218 C 
ATOM     16  O   UNL     1       1.967  -7.603  -1.783  0.00  0.00    -0.275 OA
ATOM     17  N   UNL     1       0.084  -8.422  -2.621  0.00  0.00    -0.311 N 
ATOM     18  H   UNL     1      -0.742  -8.263  -3.104  0.00  0.00    +0.149 HD
BRANCH  17  19
ATOM     19  C   UNL     1       0.406  -9.770  -2.145  0.00  0.00    +0.139 C 
BRANCH  19  20
ATOM     20  C   UNL     1      -0.701 -10.717  -2.532  0.00  0.00    -0.030 A 
ATOM     21  C   UNL     1      -1.770 -10.915  -1.678  0.00  0.00    +0.007 A 
ATOM     22  C   UNL     1      -2.783 -11.783  -2.033  0.00  0.00    +0.024 A 
ATOM     23  C   UNL     1      -2.727 -12.458  -3.247  0.00  0.00    +0.033 A 
ATOM     24  C   UNL     1      -1.657 -12.257  -4.104  0.00  0.00    -0.026 A 
ATOM     25  C   UNL     1      -0.647 -11.381  -3.742  0.00  0.00    +0.010 A 
ATOM     26  C   UNL     1      -1.568 -12.962  -5.432  0.00  0.00    +0.038 C 
ATOM     27  C   UNL     1      -2.455 -14.207  -5.437  0.00  0.00    +0.024 C 
ATOM     28  C   UNL     1      -3.863 -13.815  -4.971  0.00  0.00    +0.105 C 
ATOM     29  N   UNL     1      -3.761 -13.338  -3.586  0.00  0.00    -0.333 N 
ATOM     30  C   UNL     1      -4.726 -13.777  -2.574  0.00  0.00    +0.129 C 
ENDBRANCH  19  20
ENDBRANCH  17  19
ENDBRANCH   5  15
BRANCH   1  31
ATOM     31  C   UNL     1       0.943  -2.011  -1.340  0.00  0.00    +0.096 C 
BRANCH  31  32
ATOM     32  C   UNL     1       0.959  -0.482  -1.355  0.00  0.00    +0.009 C 
BRANCH  32  34
ATOM     33  C   UNL     1       0.356   1.577  -0.074  0.00  0.00    +0.004 C 
ATOM     34  C   UNL     1       0.340   0.047  -0.059  0.00  0.00    -0.003 C 
ENDBRANCH  32  34
ENDBRANCH  31  32
ENDBRANCH   1  31
TORSDOF 6
