REMARK  Name = ZINC63069796
REMARK  6 active torsions:
REMARK  status: ('A' for Active; 'I' for Inactive)
REMARK    1  A    between atoms: C_1  and  C_2
REMARK    2  A    between atoms: C_2  and  C_4
REMARK    3  A    between atoms: C_7  and  N_10
REMARK    4  A    between atoms: N_18  and  C_19
REMARK    5  A    between atoms: C_19  and  C_20
REMARK    6  A    between atoms: C_24  and  N_26
REMARK                            x       y       z     vdW  Elec       q    Type
REMARK                         _______ _______ _______ _____ _____    ______ ____
ROOT
ATOM      1  N   UNL     1      -4.817  -2.886   0.017  0.00  0.00    -0.327 N 
ATOM      2  C   UNL     1      -6.103  -2.186   0.145  0.00  0.00    +0.124 C 
ATOM      3  C   UNL     1      -6.997  -2.586  -1.035  0.00  0.00    +0.128 C 
ATOM      4  N   UNL     1      -6.997  -4.051  -1.150  0.00  0.00    -0.283 N 
ATOM      5  C   UNL     1      -5.710  -4.751  -1.278  0.00  0.00    +0.128 C 
ATOM      6  C   UNL     1      -4.816  -4.351  -0.103  0.00  0.00    +0.124 C 
ATOM      7  C   UNL     1      -8.155  -4.741  -1.138  0.00  0.00    +0.303 C 
ATOM      8  O   UNL     1      -9.216  -4.147  -1.129  0.00  0.00    -0.253 OA
ATOM      9  N   UNL     1      -8.136  -6.088  -1.135  0.00  0.00    -0.295 N 
ATOM     10  H   UNL     1      -7.292  -6.562  -1.065  0.00  0.00    +0.151 HD
ENDROOT
BRANCH   1  14
ATOM     11  C   UNL     1      -1.250  -0.761  -0.021  0.00  0.00    +0.017 A 
ATOM     12  C   UNL     1      -1.233  -2.163  -0.016  0.00  0.00    +0.013 A 
ATOM     13  C   UNL     1      -2.409  -2.857  -0.003  0.00  0.00    +0.024 A 
ATOM     14  C   UNL     1      -3.623  -2.175   0.004  0.00  0.00    +0.030 A 
ATOM     15  C   UNL     1      -3.645  -0.782  -0.001  0.00  0.00    +0.024 A 
ATOM     16  C   UNL     1      -2.474  -0.080  -0.008  0.00  0.00    +0.013 A 
BRANCH  11  18
ATOM     17  C   UNL     1       1.326  -0.746  -0.049  0.00  0.00    +0.091 C 
ATOM     18  C   UNL     1       0.011  -0.011  -0.035  0.00  0.00    +0.160 C 
ATOM     19  O   UNL     1      -0.006   1.202  -0.034  0.00  0.00    -0.292 OA
ENDBRANCH  11  18
ENDBRANCH   1  14
BRANCH   9  20
ATOM     20  C   UNL     1      -9.390  -6.838  -1.237  0.00  0.00    +0.141 C 
BRANCH  20  21
ATOM     21  C   UNL     1      -9.096  -8.316  -1.211  0.00  0.00    -0.028 A 
ATOM     22  C   UNL     1      -8.857  -8.994  -2.392  0.00  0.00    +0.005 A 
ATOM     23  C   UNL     1      -8.587 -10.349  -2.369  0.00  0.00    +0.003 A 
ATOM     24  C   UNL     1      -8.555 -11.027  -1.164  0.00  0.00    +0.033 A 
ATOM     25  C   UNL     1      -8.793 -10.349   0.017  0.00  0.00    +0.127 A 
ATOM     26  C   UNL     1      -9.059  -8.992  -0.007  0.00  0.00    +0.038 A 
BRANCH  25  27
ATOM     27  N   UNL     1      -8.760 -11.074   1.307  0.00  0.00    +0.056 N 
ATOM     28  O   UNL     1      -8.524 -12.260   1.327  0.00  0.00    -0.126 OA
ATOM     29  O   UNL     1      -8.968 -10.481   2.339  0.00  0.00    -0.126 OA
ENDBRANCH  25  27
ENDBRANCH  20  21
ENDBRANCH   9  20
TORSDOF 5
