REMARK  Name = ZINC13388719
REMARK  3 active torsions:
REMARK  status: ('A' for Active; 'I' for Inactive)
REMARK    1  A    between atoms: C_3  and  N_26
REMARK    2  A    between atoms: C_6  and  C_7
REMARK    3  A    between atoms: C_10  and  C_19
REMARK                            x       y       z     vdW  Elec       q    Type
REMARK                         _______ _______ _______ _____ _____    ______ ____
ROOT
ATOM      1  C   UNL     1      -2.504   1.015  -0.003  0.00  0.00    +0.098 C 
ATOM      2  N   UNL     1      -2.425  -0.322  -0.133  0.00  0.00    -0.180 NA
ATOM      3  N   UNL     1      -3.366  -1.195  -0.147  0.00  0.00    -0.220 N 
ATOM      4  C   UNL     1      -4.710  -1.085  -0.039  0.00  0.00    +0.146 C 
ATOM      5  N   UNL     1      -5.478  -0.008   0.117  0.00  0.00    -0.230 NA
ATOM      6  C   UNL     1      -5.078   1.257   0.206  0.00  0.00    +0.075 A 
ATOM      7  C   UNL     1      -3.691   1.768   0.159  0.00  0.00    +0.031 A 
ATOM      8  C   UNL     1      -3.469   3.143   0.265  0.00  0.00    +0.050 A 
ATOM      9  C   UNL     1      -4.546   3.987   0.422  0.00  0.00    +0.124 A 
ATOM     10  C   UNL     1      -5.860   3.500   0.472  0.00  0.00    +0.040 A 
ATOM     11  C   UNL     1      -6.136   2.173   0.368  0.00  0.00    +0.031 A 
ATOM     12  F   UNL     1      -4.332   5.316   0.530  0.00  0.00    -0.205 F 
ATOM     13  H   UNL     1      -3.054  -2.107  -0.254  0.00  0.00    +0.176 HD
ENDROOT
BRANCH   4  14
ATOM     14  C   UNL     1      -5.442  -2.362  -0.105  0.00  0.00    +0.016 A 
ATOM     15  C   UNL     1      -4.742  -3.573  -0.137  0.00  0.00    +0.012 A 
ATOM     16  C   UNL     1      -5.434  -4.764  -0.193  0.00  0.00    +0.016 A 
ATOM     17  C   UNL     1      -6.819  -4.763  -0.230  0.00  0.00    +0.018 A 
ATOM     18  C   UNL     1      -7.519  -3.568  -0.205  0.00  0.00    +0.016 A 
ATOM     19  C   UNL     1      -6.840  -2.370  -0.143  0.00  0.00    +0.012 A 
ATOM     20 BR   UNL     1      -7.758  -6.402  -0.316  0.00  0.00    -0.050 Br
ENDBRANCH   4  14
BRANCH   1  26
ATOM     21  C   UNL     1      -0.668   2.153  -1.243  0.00  0.00    +0.012 A 
ATOM     22  C   UNL     1       0.515   2.859  -1.254  0.00  0.00    +0.033 A 
ATOM     23  C   UNL     1       1.146   3.179  -0.064  0.00  0.00    +0.126 A 
ATOM     24  C   UNL     1       0.594   2.794   1.146  0.00  0.00    +0.033 A 
ATOM     25  C   UNL     1      -0.589   2.087   1.175  0.00  0.00    +0.012 A 
ATOM     26  C   UNL     1      -1.236   1.765  -0.024  0.00  0.00    +0.003 A 
BRANCH  23  27
ATOM     27  N   UNL     1       2.417   3.938  -0.085  0.00  0.00    +0.056 N 
ATOM     28  O   UNL     1       2.945   4.306  -1.234  0.00  0.00    -0.126 OA
ATOM     29  O   UNL     1       3.019   4.245   1.045  0.00  0.00    -0.126 OA
ENDBRANCH  23  27
ENDBRANCH   1  26
TORSDOF 3
