REMARK  Name = ZINC21090373
REMARK  12 active torsions:
REMARK  status: ('A' for Active; 'I' for Inactive)
REMARK    1  A    between atoms: C_1  and  C_2
REMARK    2  A    between atoms: C_5  and  C_8
REMARK    3  A    between atoms: C_9  and  C_10
REMARK    4  A    between atoms: C_11  and  S_16
REMARK    5  A    between atoms: C_12  and  C_15
REMARK    6  A    between atoms: S_16  and  N_19
REMARK    7  A    between atoms: C_22  and  C_25
REMARK    8  A    between atoms: N_27  and  C_28
REMARK    9  A    between atoms: C_28  and  C_29
REMARK   10  A    between atoms: C_29  and  N_30
REMARK   11  A    between atoms: N_30  and  C_31
REMARK   12  A    between atoms: N_30  and  C_32
REMARK                            x       y       z     vdW  Elec       q    Type
REMARK                         _______ _______ _______ _____ _____    ______ ____
ROOT
ATOM      1  N   UNL     1       0.221  -3.700   1.563  0.00  0.00    -0.176 NA
ATOM      2  C   UNL     1       1.272  -2.958   2.270  0.00  0.00    +0.110 C 
ATOM      3  C   UNL     1       2.273  -3.951   2.859  0.00  0.00    +0.030 C 
ATOM      4  C   UNL     1       1.528  -4.968   3.728  0.00  0.00    +0.077 C 
ATOM      5  C   UNL     1       0.527  -5.741   2.866  0.00  0.00    +0.030 C 
ATOM      6  C   UNL     1      -0.497  -4.764   2.279  0.00  0.00    +0.110 C 
ENDROOT
BRANCH   4   7
ATOM      7  C   UNL     1       2.516  -5.930   4.334  0.00  0.00    +0.216 C 
ATOM      8  O   UNL     1       2.429  -7.117   4.101  0.00  0.00    -0.276 OA
ATOM      9  N   UNL     1       3.497  -5.471   5.137  0.00  0.00    -0.317 N 
ATOM     10  H   UNL     1       3.577  -4.395   5.348  0.00  0.00    +0.149 HD
BRANCH   9  11
ATOM     11  C   UNL     1       4.458  -6.407   5.726  0.00  0.00    +0.085 C 
BRANCH  11  12
ATOM     12  C   UNL     1       5.459  -5.634   6.588  0.00  0.00    -0.060 C 
BRANCH  12  13
ATOM     13  N   UNL     1       6.423  -6.572   7.179  0.00  0.00    +0.381 N 
ATOM     14  C   UNL     1       5.763  -7.473   8.134  0.00  0.00    -0.096 C 
ATOM     15  H   UNL     1       6.839  -7.186   6.367  0.00  0.00    -0.082 HD
BRANCH  13  16
ATOM     16  C   UNL     1       7.534  -5.853   7.816  0.00  0.00    -0.069 C 
ATOM     17  C   UNL     1       8.257  -5.001   6.771  0.00  0.00    -0.015 C 
ATOM     18  C   UNL     1       9.414  -4.253   7.434  0.00  0.00    -0.002 C 
ATOM     19  C   UNL     1      10.395  -5.261   8.038  0.00  0.00    -0.000 C 
ATOM     20  C   UNL     1       9.672  -6.112   9.083  0.00  0.00    -0.002 C 
ATOM     21  C   UNL     1       8.514  -6.861   8.420  0.00  0.00    -0.015 C 
ENDBRANCH  13  16
ENDBRANCH  12  13
ENDBRANCH  11  12
ENDBRANCH   9  11
ENDBRANCH   4   7
BRANCH   1  22
ATOM     22  S   UNL     1      -0.144  -3.350  -0.014  0.00  0.00    +0.066 S 
ATOM     23  O   UNL     1      -0.728  -4.522  -0.566  0.00  0.00    -0.153 OA
ATOM     24  O   UNL     1       1.011  -2.739  -0.572  0.00  0.00    -0.153 OA
BRANCH  22  26
ATOM     25  C   UNL     1      -1.257  -0.754   0.010  0.00  0.00    +0.187 A 
ATOM     26  C   UNL     1      -1.406  -2.120   0.004  0.00  0.00    +0.174 A 
ATOM     27  C   UNL     1      -2.801  -2.307   0.016  0.00  0.00    +0.107 A 
ATOM     28  N   UNL     1      -3.338  -1.119   0.028  0.00  0.00    -0.081 NA
ATOM     29  O   UNL     1      -2.504  -0.245   0.030  0.00  0.00    -0.353 OA
ATOM     30  C   UNL     1      -3.533  -3.625   0.017  0.00  0.00    +0.071 C 
BRANCH  25  32
ATOM     31  C   UNL     1      -0.016   1.342   0.009  0.00  0.00    +0.011 C 
ATOM     32  C   UNL     1       0.002  -0.004   0.002  0.00  0.00    +0.051 C 
BRANCH  31  37
ATOM     33  C   UNL     1       4.923   4.285  -0.021  0.00  0.00    +0.044 C 
ATOM     34  C   UNL     1       3.629   3.514  -0.013  0.00  0.00    -0.050 A 
ATOM     35  C   UNL     1       2.423   4.193   0.002  0.00  0.00    +0.004 A 
ATOM     36  C   UNL     1       1.234   3.494   0.009  0.00  0.00    +0.008 A 
ATOM     37  C   UNL     1       1.249   2.096   0.001  0.00  0.00    -0.025 A 
ATOM     38  C   UNL     1       2.471   1.417  -0.008  0.00  0.00    +0.008 A 
ATOM     39  C   UNL     1       3.652   2.130  -0.021  0.00  0.00    +0.004 A 
ENDBRANCH  31  37
ENDBRANCH  25  32
ENDBRANCH  22  26
ENDBRANCH   1  22
TORSDOF 9
