REMARK  Name = ZINC22879860
REMARK  11 active torsions:
REMARK  status: ('A' for Active; 'I' for Inactive)
REMARK    1  A    between atoms: C_1  and  C_2
REMARK    2  A    between atoms: C_2  and  O_3
REMARK    3  A    between atoms: O_3  and  C_4
REMARK    4  A    between atoms: C_4  and  C_6
REMARK    5  A    between atoms: C_7  and  C_14
REMARK    6  A    between atoms: C_8  and  C_12
REMARK    7  A    between atoms: C_9  and  N_11
REMARK    8  A    between atoms: C_14  and  O_15
REMARK    9  A    between atoms: O_15  and  C_16
REMARK   10  A    between atoms: C_16  and  C_18
REMARK   11  A    between atoms: C_22  and  N_24
REMARK                            x       y       z     vdW  Elec       q    Type
REMARK                         _______ _______ _______ _____ _____    ______ ____
ROOT
ATOM      1  C   UNL     1      -0.421   2.795  -1.795  0.00  0.00    +0.106 A 
ATOM      2  C   UNL     1      -0.742   1.585  -1.213  0.00  0.00    +0.030 A 
ATOM      3  C   UNL     1      -1.756   0.845  -1.798  0.00  0.00    +0.087 A 
ATOM      4  C   UNL     1      -2.387   1.380  -2.927  0.00  0.00    +0.082 A 
ATOM      5  S   UNL     1      -1.560   2.884  -3.163  0.00  0.00    -0.066 S 
ENDROOT
BRANCH   4   6
ATOM      6  N   UNL     1      -3.411   0.840  -3.671  0.00  0.00    -0.352 N 
ATOM      7  H   UNL     1      -3.806   1.385  -4.541  0.00  0.00    +0.143 HD
ATOM      8  H   UNL     1      -3.835  -0.138  -3.396  0.00  0.00    +0.143 HD
ENDBRANCH   4   6
BRANCH   1   9
ATOM      9  C   UNL     1       0.569   3.732  -1.403  0.00  0.00    +0.346 C 
ATOM     10  O   UNL     1       1.268   3.509  -0.433  0.00  0.00    -0.244 OA
BRANCH   9  11
ATOM     11  O   UNL     1       0.735   4.872  -2.107  0.00  0.00    -0.461 OA
BRANCH  11  13
ATOM     12  C   UNL     1       1.790   6.996  -2.570  0.00  0.00    +0.048 C 
ATOM     13  C   UNL     1       1.750   5.771  -1.655  0.00  0.00    +0.229 C 
ENDBRANCH  11  13
ENDBRANCH   9  11
ENDBRANCH   1   9
BRANCH   3  14
ATOM     14  C   UNL     1      -2.149  -0.423  -1.262  0.00  0.00    +0.102 C 
ATOM     15  N   UNL     1      -2.460  -1.430  -0.838  0.00  0.00    -0.191 NA
ENDBRANCH   3  14
BRANCH   2  16
ATOM     16  C   UNL     1      -0.013   1.086   0.008  0.00  0.00    +0.270 C 
BRANCH  16  17
ATOM     17  O   UNL     1      -0.692   1.554   1.203  0.00  0.00    -0.456 OA
BRANCH  17  18
ATOM     18  C   UNL     1      -0.164   1.193   2.388  0.00  0.00    +0.340 C 
ATOM     19  O   UNL     1       0.837   0.505   2.423  0.00  0.00    -0.245 OA
BRANCH  18  20
ATOM     20  C   UNL     1      -0.802   1.632   3.645  0.00  0.00    +0.061 A 
ATOM     21  C   UNL     1      -1.950   2.428   3.609  0.00  0.00    +0.016 A 
ATOM     22  C   UNL     1      -2.543   2.830   4.786  0.00  0.00    +0.018 A 
ATOM     23  C   UNL     1      -1.998   2.458   6.003  0.00  0.00    +0.048 A 
ATOM     24  C   UNL     1      -0.857   1.674   6.046  0.00  0.00    +0.141 A 
ATOM     25  C   UNL     1      -0.257   1.259   4.876  0.00  0.00    +0.048 A 
ATOM     26 BR   UNL     1      -2.814   3.021   7.613  0.00  0.00    -0.048 Br
BRANCH  24  27
ATOM     27  N   UNL     1      -0.281   1.279   7.351  0.00  0.00    +0.058 N 
ATOM     28  O   UNL     1       0.722   0.589   7.391  0.00  0.00    -0.126 OA
ATOM     29  O   UNL     1      -0.810   1.644   8.386  0.00  0.00    -0.126 OA
ENDBRANCH  24  27
ENDBRANCH  18  20
ENDBRANCH  17  18
ENDBRANCH  16  17
ENDBRANCH   2  16
TORSDOF 10
