REMARK  Name = ZINC10437417
REMARK  10 active torsions:
REMARK  status: ('A' for Active; 'I' for Inactive)
REMARK    1  A    between atoms: C_1  and  C_2
REMARK    2  A    between atoms: C_2  and  O_3
REMARK    3  A    between atoms: O_3  and  C_4
REMARK    4  A    between atoms: C_7  and  N_13
REMARK    5  A    between atoms: C_8  and  N_10
REMARK    6  A    between atoms: C_14  and  C_16
REMARK    7  A    between atoms: C_16  and  O_17
REMARK    8  A    between atoms: O_17  and  C_18
REMARK    9  A    between atoms: C_18  and  C_20
REMARK   10  A    between atoms: C_27  and  C_30
REMARK                            x       y       z     vdW  Elec       q    Type
REMARK                         _______ _______ _______ _____ _____    ______ ____
ROOT
ATOM      1  N   UNL     1       2.361   1.154  -0.005  0.00  0.00    -0.281 N 
ATOM      2  C   UNL     1       2.372  -0.192   0.078  0.00  0.00    +0.255 C 
ATOM      3  O   UNL     1       1.328  -0.809   0.068  0.00  0.00    -0.272 OA
ATOM      4  H   UNL     1       3.196   1.643  -0.062  0.00  0.00    +0.155 HD
ENDROOT
BRANCH   1   8
ATOM      5  C   UNL     1      -1.266   3.211  -0.016  0.00  0.00    +0.123 A 
ATOM      6  C   UNL     1      -1.166   1.979  -0.646  0.00  0.00    +0.047 A 
ATOM      7  C   UNL     1       0.033   1.295  -0.639  0.00  0.00    +0.029 A 
ATOM      8  C   UNL     1       1.142   1.845  -0.009  0.00  0.00    +0.064 A 
ATOM      9  C   UNL     1       1.042   3.080   0.617  0.00  0.00    +0.151 A 
ATOM     10  C   UNL     1      -0.159   3.761   0.613  0.00  0.00    +0.080 A 
BRANCH   9  11
ATOM     11  N   UNL     1       2.224   3.667   1.288  0.00  0.00    +0.058 N 
ATOM     12  O   UNL     1       2.115   4.707   1.913  0.00  0.00    -0.126 OA
ATOM     13  O   UNL     1       3.304   3.110   1.216  0.00  0.00    -0.126 OA
ENDBRANCH   9  11
BRANCH   5  14
ATOM     14  O   UNL     1      -2.449   3.881  -0.019  0.00  0.00    -0.492 OA
BRANCH  14  16
ATOM     15  C   UNL     1      -4.783   4.153  -0.585  0.00  0.00    +0.048 C 
ATOM     16  C   UNL     1      -3.548   3.256  -0.686  0.00  0.00    +0.225 C 
ENDBRANCH  14  16
ENDBRANCH   5  14
ENDBRANCH   1   8
BRANCH   2  17
ATOM     17  C   UNL     1       3.682  -0.929   0.183  0.00  0.00    +0.328 C 
BRANCH  17  18
ATOM     18  O   UNL     1       3.429  -2.357   0.259  0.00  0.00    -0.451 OA
BRANCH  18  19
ATOM     19  C   UNL     1       4.505  -3.165   0.357  0.00  0.00    +0.346 C 
ATOM     20  O   UNL     1       5.624  -2.688   0.379  0.00  0.00    -0.244 OA
BRANCH  19  21
ATOM     21  C   UNL     1       4.326  -4.615   0.438  0.00  0.00    +0.097 A 
ATOM     22  C   UNL     1       5.284  -5.609   0.536  0.00  0.00    +0.026 A 
ATOM     23  C   UNL     1       4.857  -6.925   0.602  0.00  0.00    -0.036 A 
ATOM     24  C   UNL     1       3.508  -7.137   0.553  0.00  0.00    -0.006 A 
ATOM     25  S   UNL     1       2.815  -5.565   0.426  0.00  0.00    -0.086 S 
ATOM     26  C   UNL     1       2.799  -8.456   0.600  0.00  0.00    +0.043 C 
ATOM     27  C   UNL     1       3.826  -9.566   0.337  0.00  0.00    +0.009 C 
ATOM     28  C   UNL     1       5.052  -9.323   1.221  0.00  0.00    -0.009 C 
ATOM     29  C   UNL     1       5.822  -8.101   0.719  0.00  0.00    +0.039 C 
ATOM     30  C   UNL     1       5.963 -10.551   1.176  0.00  0.00    +0.008 C 
ENDBRANCH  19  21
ENDBRANCH  18  19
ENDBRANCH  17  18
ENDBRANCH   2  17
TORSDOF 8
