REMARK  Name = ZINC25742454
REMARK  12 active torsions:
REMARK  status: ('A' for Active; 'I' for Inactive)
REMARK    1  A    between atoms: C_1  and  C_2
REMARK    2  A    between atoms: C_3  and  N_29
REMARK    3  A    between atoms: C_5  and  S_9
REMARK    4  A    between atoms: S_9  and  N_12
REMARK    5  A    between atoms: N_12  and  C_13
REMARK    6  A    between atoms: C_16  and  S_19
REMARK    7  A    between atoms: S_19  and  N_22
REMARK    8  A    between atoms: N_22  and  C_23
REMARK    9  A    between atoms: C_23  and  C_25
REMARK   10  A    between atoms: C_23  and  C_26
REMARK   11  A    between atoms: C_26  and  O_27
REMARK   12  A    between atoms: O_27  and  C_28
REMARK                            x       y       z     vdW  Elec       q    Type
REMARK                         _______ _______ _______ _____ _____    ______ ____
ROOT
ATOM      1  C   UNL     1       2.499   0.699  -0.154  0.00  0.00    +0.074 A 
ATOM      2  C   UNL     1       1.203   0.217  -0.023  0.00  0.00    +0.028 A 
ATOM      3  C   UNL     1       0.132   1.085  -0.108  0.00  0.00    +0.030 A 
ATOM      4  C   UNL     1       0.350   2.434  -0.324  0.00  0.00    +0.105 A 
ATOM      5  C   UNL     1       1.639   2.917  -0.456  0.00  0.00    +0.030 A 
ATOM      6  C   UNL     1       2.713   2.054  -0.371  0.00  0.00    +0.028 A 
ENDROOT
BRANCH   4   7
ATOM      7  S   UNL     1      -1.019   3.537  -0.440  0.00  0.00    +0.059 S 
ATOM      8  O   UNL     1      -0.573   4.660  -1.188  0.00  0.00    -0.153 OA
ATOM      9  O   UNL     1      -2.139   2.756  -0.833  0.00  0.00    -0.153 OA
BRANCH   7  10
ATOM     10  N   UNL     1      -1.338   4.085   1.090  0.00  0.00    -0.185 NA
ATOM     11  H   UNL     1      -2.212   3.692   1.630  0.00  0.00    +0.148 HD
BRANCH  10  12
ATOM     12  C   UNL     1      -0.352   4.909   1.793  0.00  0.00    +0.099 C 
ATOM     13  C   UNL     1       0.514   4.018   2.686  0.00  0.00    +0.028 C 
BRANCH  12  14
ATOM     14  C   UNL     1      -1.075   5.945   2.655  0.00  0.00    +0.179 C 
BRANCH  14  15
ATOM     15  O   UNL     1      -1.813   5.279   3.683  0.00  0.00    -0.381 OA
ATOM     16  C   UNL     1      -2.529   6.161   4.549  0.00  0.00    +0.194 C 
ENDBRANCH  14  15
ENDBRANCH  12  14
ENDBRANCH  10  12
ENDBRANCH   7  10
ENDBRANCH   4   7
BRANCH   1  17
ATOM     17  N   UNL     1       3.583  -0.176  -0.069  0.00  0.00    -0.098 NA
BRANCH  17  18
ATOM     18  S   UNL     1       4.806  -0.092  -1.183  0.00  0.00    +0.092 S 
ATOM     19  O   UNL     1       5.239   1.261  -1.208  0.00  0.00    -0.148 OA
ATOM     20  O   UNL     1       5.689  -1.169  -0.899  0.00  0.00    -0.148 OA
BRANCH  18  25
ATOM     21  C   UNL     1       2.375  -1.226  -6.588  0.00  0.00    +0.047 C 
ATOM     22  C   UNL     1       2.983  -0.943  -5.238  0.00  0.00    -0.002 A 
ATOM     23  C   UNL     1       3.153   0.362  -4.817  0.00  0.00    +0.132 A 
ATOM     24  C   UNL     1       3.710   0.622  -3.579  0.00  0.00    +0.062 A 
ATOM     25  C   UNL     1       4.096  -0.424  -2.761  0.00  0.00    +0.114 A 
ATOM     26  C   UNL     1       3.931  -1.729  -3.183  0.00  0.00    +0.049 A 
ATOM     27  C   UNL     1       3.369  -1.990  -4.421  0.00  0.00    +0.048 A 
ATOM     28 CL   UNL     1       3.156  -3.630  -4.949  0.00  0.00    -0.083 Cl
BRANCH  23  29
ATOM     29  N   UNL     1       2.740   1.482  -5.692  0.00  0.00    +0.057 N 
ATOM     30  O   UNL     1       2.892   1.401  -6.897  0.00  0.00    -0.126 OA
ATOM     31  O   UNL     1       2.248   2.485  -5.206  0.00  0.00    -0.126 OA
ENDBRANCH  23  29
ENDBRANCH  18  25
ENDBRANCH  17  18
ENDBRANCH   1  17
TORSDOF 9
