REMARK  Name = ZINC59818253
REMARK  12 active torsions:
REMARK  status: ('A' for Active; 'I' for Inactive)
REMARK    1  A    between atoms: C_1  and  C_2
REMARK    2  A    between atoms: C_7  and  O_8
REMARK    3  A    between atoms: O_8  and  C_9
REMARK    4  A    between atoms: C_9  and  C_10
REMARK    5  A    between atoms: C_13  and  C_15
REMARK    6  A    between atoms: N_16  and  N_17
REMARK    7  A    between atoms: C_20  and  S_23
REMARK    8  A    between atoms: S_23  and  C_24
REMARK    9  A    between atoms: C_24  and  C_26
REMARK   10  A    between atoms: C_24  and  C_27
REMARK   11  A    between atoms: N_29  and  C_30
REMARK   12  A    between atoms: N_29  and  C_31
REMARK                            x       y       z     vdW  Elec       q    Type
REMARK                         _______ _______ _______ _____ _____    ______ ____
ROOT
ATOM      1  C   UNL     1      -0.584   1.199   7.835  0.00  0.00    +0.176 C 
ATOM      2  N   UNL     1      -0.580  -0.009   8.319  0.00  0.00    -0.184 NA
ENDROOT
BRANCH   2   3
ATOM      3  N   UNL     1      -0.415  -0.211   9.695  0.00  0.00    -0.205 N 
ATOM      4  C   UNL     1      -0.410  -1.494  10.210  0.00  0.00    +0.232 A 
ATOM      5  N   UNL     1      -0.545  -2.606   9.517  0.00  0.00    -0.186 NA
ATOM      6  C   UNL     1      -0.492  -3.658  10.341  0.00  0.00    +0.211 A 
ATOM      7  N   UNL     1      -0.322  -3.229  11.569  0.00  0.00    -0.144 NA
ATOM      8  N   UNL     1      -0.261  -1.828  11.509  0.00  0.00    -0.245 N 
ATOM      9  H   UNL     1      -0.304   0.549  10.287  0.00  0.00    +0.177 HD
ATOM     10  H   UNL     1      -0.138  -1.219  12.255  0.00  0.00    +0.192 HD
BRANCH   6  11
ATOM     11  S   UNL     1      -0.628  -5.346   9.856  0.00  0.00    -0.072 S 
BRANCH  11  12
ATOM     12  C   UNL     1      -0.478  -6.264  11.414  0.00  0.00    +0.137 C 
ATOM     13  C   UNL     1       0.921  -6.056  11.996  0.00  0.00    +0.029 C 
BRANCH  12  14
ATOM     14  C   UNL     1      -0.702  -7.732  11.155  0.00  0.00    +0.228 C 
ATOM     15  O   UNL     1      -0.490  -8.193  10.054  0.00  0.00    -0.274 OA
ATOM     16  N   UNL     1      -1.136  -8.533  12.149  0.00  0.00    -0.307 N 
ATOM     17  C   UNL     1      -1.353  -9.959  11.898  0.00  0.00    +0.131 C 
ATOM     18  C   UNL     1      -1.392  -7.976  13.479  0.00  0.00    +0.131 C 
ENDBRANCH  12  14
ENDBRANCH  11  12
ENDBRANCH   6  11
ENDBRANCH   2   3
BRANCH   1  22
ATOM     19  C   UNL     1      -1.047   1.011   4.254  0.00  0.00    +0.143 A 
ATOM     20  C   UNL     1      -0.967   2.350   4.389  0.00  0.00    +0.049 A 
ATOM     21  C   UNL     1      -0.780   2.618   5.758  0.00  0.00    +0.051 A 
ATOM     22  C   UNL     1      -0.757   1.410   6.394  0.00  0.00    +0.148 A 
ATOM     23  O   UNL     1      -0.926   0.447   5.467  0.00  0.00    -0.455 OA
BRANCH  19  24
ATOM     24  C   UNL     1      -1.247   0.271   2.957  0.00  0.00    +0.303 C 
BRANCH  24  25
ATOM     25  O   UNL     1       0.025  -0.033   2.381  0.00  0.00    -0.483 OA
BRANCH  25  32
ATOM     26  C   UNL     1      -0.018   1.503   0.010  0.00  0.00    +0.047 C 
ATOM     27  C   UNL     1       0.002  -0.004   0.002  0.00  0.00    -0.007 A 
ATOM     28  C   UNL     1       0.006  -0.689  -1.198  0.00  0.00    +0.007 A 
ATOM     29  C   UNL     1       0.025  -2.071  -1.207  0.00  0.00    +0.002 A 
ATOM     30  C   UNL     1       0.040  -2.773  -0.016  0.00  0.00    +0.024 A 
ATOM     31  C   UNL     1       0.036  -2.093   1.188  0.00  0.00    +0.083 A 
ATOM     32  C   UNL     1       0.023  -0.704   1.199  0.00  0.00    +0.142 A 
ATOM     33 CL   UNL     1       0.056  -2.973   2.684  0.00  0.00    -0.080 Cl
ENDBRANCH  25  32
ENDBRANCH  24  25
ENDBRANCH  19  24
ENDBRANCH   1  22
TORSDOF 8
