REMARK  Name = ZINC39607916
REMARK  7 active torsions:
REMARK  status: ('A' for Active; 'I' for Inactive)
REMARK    1  A    between atoms: C_1  and  C_2
REMARK    2  A    between atoms: C_2  and  C_4
REMARK    3  A    between atoms: C_2  and  N_7
REMARK    4  A    between atoms: C_4  and  C_5
REMARK    5  A    between atoms: C_4  and  C_6
REMARK    6  A    between atoms: C_8  and  C_10
REMARK    7  A    between atoms: C_21  and  C_23
REMARK                            x       y       z     vdW  Elec       q    Type
REMARK                         _______ _______ _______ _____ _____    ______ ____
ROOT
ATOM      1  C   UNL     1       2.777  -1.174   2.659  0.00  0.00    +0.100 C 
ATOM      2  C   UNL     1       2.286  -2.609   2.956  0.00  0.00    +0.121 C 
ATOM      3  N   UNL     1       3.229  -3.486   2.225  0.00  0.00    -0.296 N 
ATOM      4  C   UNL     1       4.552  -2.842   2.411  0.00  0.00    +0.115 C 
ATOM      5  C   UNL     1       4.265  -1.331   2.305  0.00  0.00    -0.004 C 
ATOM      6  C   UNL     1       4.524  -0.845   0.882  0.00  0.00    -0.010 C 
ATOM      7  C   UNL     1       6.019  -0.959   0.573  0.00  0.00    -0.082 C 
ATOM      8  N   UNL     1       6.782  -0.152   1.534  0.00  0.00    +0.379 N 
ATOM      9  C   UNL     1       6.600  -0.684   2.890  0.00  0.00    -0.082 C 
ATOM     10  C   UNL     1       5.129  -0.559   3.297  0.00  0.00    -0.010 C 
ATOM     11  C   UNL     1       2.949  -4.615   1.544  0.00  0.00    +0.247 C 
ATOM     12  O   UNL     1       3.850  -5.277   1.067  0.00  0.00    -0.270 OA
ATOM     13  H   UNL     1       7.761  -0.179   1.291  0.00  0.00    -0.086 HD
ATOM     14  H   UNL     1       6.457   0.803   1.502  0.00  0.00    -0.086 HD
ENDROOT
BRANCH  11  15
ATOM     15  C   UNL     1       1.546  -5.048   1.378  0.00  0.00    +0.045 A 
ATOM     16  C   UNL     1       0.700  -5.131   2.490  0.00  0.00    +0.014 A 
ATOM     17  C   UNL     1      -0.609  -5.534   2.338  0.00  0.00    +0.001 A 
ATOM     18  C   UNL     1      -1.102  -5.863   1.084  0.00  0.00    +0.012 A 
ATOM     19  C   UNL     1      -0.278  -5.788  -0.032  0.00  0.00    +0.031 A 
ATOM     20  C   UNL     1       1.056  -5.373   0.107  0.00  0.00    +0.006 A 
ATOM     21  C   UNL     1       1.699  -5.377  -1.232  0.00  0.00    -0.006 A 
ATOM     22  C   UNL     1       2.987  -5.061  -1.642  0.00  0.00    +0.009 A 
ATOM     23  C   UNL     1       3.330  -5.152  -2.982  0.00  0.00    +0.001 A 
ATOM     24  C   UNL     1       2.397  -5.557  -3.917  0.00  0.00    +0.001 A 
ATOM     25  C   UNL     1       1.107  -5.877  -3.523  0.00  0.00    +0.012 A 
ATOM     26  C   UNL     1       0.751  -5.790  -2.183  0.00  0.00    +0.030 A 
ATOM     27  C   UNL     1      -0.517  -6.071  -1.468  0.00  0.00    +0.194 C 
ATOM     28  O   UNL     1      -1.558  -6.448  -1.965  0.00  0.00    -0.287 OA
ENDBRANCH  11  15
BRANCH   1  30
ATOM     29  N   UNL     1       1.816   0.739   1.421  0.00  0.00    -0.312 N 
ATOM     30  C   UNL     1       2.019  -0.591   1.494  0.00  0.00    +0.218 C 
ATOM     31  O   UNL     1       1.592  -1.319   0.623  0.00  0.00    -0.275 OA
ATOM     32  H   UNL     1       2.157   1.321   2.117  0.00  0.00    +0.149 HD
BRANCH  29  34
ATOM     33  C   UNL     1       2.039   1.536  -0.881  0.00  0.00    +0.028 C 
ATOM     34  C   UNL     1       1.079   1.306   0.288  0.00  0.00    +0.072 C 
BRANCH  34  35
ATOM     35  C   UNL     1       0.452   2.639   0.703  0.00  0.00    +0.003 C 
ATOM     36  C   UNL     1      -0.317   3.231  -0.479  0.00  0.00    +0.009 C 
ATOM     37  C   UNL     1      -0.507   2.409   1.872  0.00  0.00    +0.009 C 
ENDBRANCH  34  35
ENDBRANCH  29  34
ENDBRANCH   1  30
TORSDOF 4
