REMARK  Name = ZINC33937049
REMARK  12 active torsions:
REMARK  status: ('A' for Active; 'I' for Inactive)
REMARK    1  A    between atoms: C_1  and  C_2
REMARK    2  A    between atoms: C_2  and  C_3
REMARK    3  A    between atoms: C_3  and  C_5
REMARK    4  A    between atoms: C_3  and  N_17
REMARK    5  A    between atoms: N_9  and  C_10
REMARK    6  A    between atoms: C_10  and  C_11
REMARK    7  A    between atoms: N_17  and  C_18
REMARK    8  A    between atoms: N_17  and  C_24
REMARK    9  A    between atoms: C_18  and  C_19
REMARK   10  A    between atoms: C_24  and  C_25
REMARK   11  A    between atoms: C_28  and  C_38
REMARK   12  A    between atoms: C_30  and  C_37
REMARK                            x       y       z     vdW  Elec       q    Type
REMARK                         _______ _______ _______ _____ _____    ______ ____
ROOT
ATOM      1  N   UNL     1      -1.978  -0.235  -1.239  0.00  0.00    +0.394 N 
ATOM      2  H   UNL     1      -1.542  -0.586  -2.079  0.00  0.00    -0.080 HD
ENDROOT
BRANCH   1   3
ATOM      3  C   UNL     1      -1.306  -0.805  -0.064  0.00  0.00    +0.003 C 
BRANCH   3   4
ATOM      4  C   UNL     1       0.108  -1.180  -0.427  0.00  0.00    +0.138 A 
ATOM      5  N   UNL     1       0.980  -0.430  -1.055  0.00  0.00    -0.115 NA
ATOM      6  N   UNL     1       2.071  -1.105  -1.176  0.00  0.00    -0.023 NA
ATOM      7  N   UNL     1       1.918  -2.265  -0.640  0.00  0.00    -0.044 NA
ATOM      8  N   UNL     1       0.723  -2.348  -0.163  0.00  0.00    -0.228 N 
BRANCH   8   9
ATOM      9  C   UNL     1       0.142  -3.499   0.534  0.00  0.00    +0.178 C 
BRANCH   9  10
ATOM     10  C   UNL     1      -0.524  -4.428  -0.484  0.00  0.00    +0.140 C 
ATOM     11  C   UNL     1      -1.066  -5.697   0.220  0.00  0.00    +0.035 C 
ATOM     12  C   UNL     1      -2.188  -6.124  -0.764  0.00  0.00    +0.031 C 
ATOM     13  C   UNL     1      -2.710  -4.764  -1.276  0.00  0.00    +0.160 C 
ATOM     14  O   UNL     1      -1.677  -3.793  -1.059  0.00  0.00    -0.375 OA
ENDBRANCH   9  10
ENDBRANCH   8   9
ENDBRANCH   3   4
BRANCH   3  16
ATOM     15  C   UNL     1      -2.714   0.484   1.548  0.00  0.00    +0.002 C 
ATOM     16  C   UNL     1      -1.285   0.230   1.063  0.00  0.00    -0.011 C 
ENDBRANCH   3  16
ENDBRANCH   1   3
BRANCH   1  17
ATOM     17  C   UNL     1      -1.866   1.229  -1.206  0.00  0.00    -0.002 C 
BRANCH  17  18
ATOM     18  C   UNL     1      -0.432   1.629  -1.437  0.00  0.00    +0.089 A 
ATOM     19  C   UNL     1       0.178   1.715  -2.633  0.00  0.00    +0.042 A 
ATOM     20  C   UNL     1       1.509   2.122  -2.385  0.00  0.00    +0.041 A 
ATOM     21  C   UNL     1       1.634   2.260  -1.053  0.00  0.00    +0.195 A 
ATOM     22  O   UNL     1       0.453   1.966  -0.484  0.00  0.00    -0.470 OA
ENDBRANCH  17  18
ENDBRANCH   1  17
BRANCH   1  23
ATOM     23  C   UNL     1      -3.396  -0.619  -1.226  0.00  0.00    -0.036 C 
BRANCH  23  24
ATOM     24  C   UNL     1      -4.057  -0.142  -2.494  0.00  0.00    +0.001 A 
ATOM     25  C   UNL     1      -4.178  -0.984  -3.550  0.00  0.00    +0.017 A 
ATOM     26  C   UNL     1      -4.825  -0.491  -4.767  0.00  0.00    +0.002 A 
ATOM     27  C   UNL     1      -4.980  -1.313  -5.888  0.00  0.00    -0.041 A 
ATOM     28  C   UNL     1      -5.589  -0.823  -7.008  0.00  0.00    +0.007 A 
ATOM     29  C   UNL     1      -6.056   0.484  -7.044  0.00  0.00    -0.048 A 
ATOM     30  C   UNL     1      -5.914   1.312  -5.951  0.00  0.00    +0.029 A 
ATOM     31  C   UNL     1      -5.298   0.834  -4.799  0.00  0.00    +0.050 A 
ATOM     32  N   UNL     1      -5.144   1.640  -3.691  0.00  0.00    -0.322 N 
ATOM     33  H   UNL     1      -5.470   2.553  -3.715  0.00  0.00    +0.169 HD
ATOM     34  C   UNL     1      -4.553   1.176  -2.576  0.00  0.00    +0.251 A 
ATOM     35  O   UNL     1      -4.438   1.915  -1.613  0.00  0.00    -0.268 OA
ATOM     36  C   UNL     1      -6.724   1.004  -8.291  0.00  0.00    +0.044 C 
ATOM     37  C   UNL     1      -4.476  -2.733  -5.861  0.00  0.00    +0.044 C 
ENDBRANCH  23  24
ENDBRANCH   1  23
TORSDOF 9
