REMARK  Name = ZINC33468147
REMARK  8 active torsions:
REMARK  status: ('A' for Active; 'I' for Inactive)
REMARK    1  A    between atoms: C_1  and  C_2
REMARK    2  A    between atoms: C_5  and  N_9
REMARK    3  A    between atoms: C_6  and  C_8
REMARK    4  A    between atoms: N_12  and  C_13
REMARK    5  A    between atoms: C_13  and  C_15
REMARK    6  A    between atoms: C_13  and  C_22
REMARK    7  A    between atoms: C_15  and  C_16
REMARK    8  A    between atoms: C_28  and  C_30
REMARK                            x       y       z     vdW  Elec       q    Type
REMARK                         _______ _______ _______ _____ _____    ______ ____
ROOT
ATOM      1  C   UNL     1      -0.001   1.074   0.019  0.00  0.00    +0.165 C 
ENDROOT
BRANCH   1   2
ATOM      2  C   UNL     1       1.416   1.588   0.015  0.00  0.00    +0.239 C 
ATOM      3  O   UNL     1       1.811   2.283   0.927  0.00  0.00    -0.273 OA
ATOM      4  N   UNL     1       2.243   1.275  -1.002  0.00  0.00    -0.262 N 
ATOM      5  C   UNL     1       3.550   1.749  -1.005  0.00  0.00    +0.188 A 
ATOM      6  N   UNL     1       4.180   2.517  -0.126  0.00  0.00    -0.125 NA
ATOM      7  N   UNL     1       5.385   2.856  -0.280  0.00  0.00    -0.140 NA
ATOM      8  C   UNL     1       6.091   2.474  -1.338  0.00  0.00    +0.134 A 
ATOM      9  S   UNL     1       4.859   1.504  -2.201  0.00  0.00    -0.030 S 
ATOM     10  H   UNL     1       1.885   0.645  -1.829  0.00  0.00    +0.157 HD
BRANCH   8  11
ATOM     11  C   UNL     1       7.494   2.768  -1.700  0.00  0.00    +0.009 A 
ATOM     12  C   UNL     1       8.037   2.248  -2.876  0.00  0.00    +0.013 A 
ATOM     13  C   UNL     1       9.345   2.530  -3.211  0.00  0.00    +0.039 A 
ATOM     14  C   UNL     1      10.123   3.317  -2.377  0.00  0.00    +0.123 A 
ATOM     15  C   UNL     1       9.591   3.830  -1.206  0.00  0.00    +0.039 A 
ATOM     16  C   UNL     1       8.282   3.560  -0.863  0.00  0.00    +0.013 A 
ATOM     17  F   UNL     1      11.405   3.584  -2.708  0.00  0.00    -0.205 F 
ENDBRANCH   8  11
ENDBRANCH   1   2
BRANCH   1  21
ATOM     18  N   UNL     1      -2.372   1.299   2.820  0.00  0.00    -0.269 N 
ATOM     19  C   UNL     1      -1.738   0.862   1.714  0.00  0.00    +0.304 C 
ATOM     20  O   UNL     1      -2.113  -0.154   1.160  0.00  0.00    -0.252 OA
ATOM     21  N   UNL     1      -0.690   1.550   1.221  0.00  0.00    -0.288 N 
ATOM     22  H   UNL     1      -1.988   2.175   3.363  0.00  0.00    +0.156 HD
ATOM     23  H   UNL     1      -0.351   2.469   1.722  0.00  0.00    +0.151 HD
BRANCH  18  28
ATOM     24  C   UNL     1      -7.018  -1.377   4.674  0.00  0.00    +0.044 C 
ATOM     25  C   UNL     1      -5.784  -0.666   4.181  0.00  0.00    -0.050 A 
ATOM     26  C   UNL     1      -4.761  -1.387   3.593  0.00  0.00    +0.005 A 
ATOM     27  C   UNL     1      -3.629  -0.739   3.141  0.00  0.00    +0.024 A 
ATOM     28  C   UNL     1      -3.518   0.639   3.277  0.00  0.00    +0.038 A 
ATOM     29  C   UNL     1      -4.545   1.359   3.873  0.00  0.00    -0.029 A 
ATOM     30  C   UNL     1      -5.677   0.705   4.319  0.00  0.00    +0.008 A 
ATOM     31  C   UNL     1      -4.426   2.853   4.029  0.00  0.00    +0.045 C 
ENDBRANCH  18  28
ENDBRANCH   1  21
BRANCH   1  32
ATOM     32  C   UNL     1      -0.732   1.586  -1.224  0.00  0.00    +0.067 C 
BRANCH  32  33
ATOM     33  C   UNL     1      -2.108   0.974  -1.284  0.00  0.00    -0.045 A 
ATOM     34  C   UNL     1      -2.305  -0.221  -1.951  0.00  0.00    +0.004 A 
ATOM     35  C   UNL     1      -3.566  -0.785  -2.002  0.00  0.00    +0.000 A 
ATOM     36  C   UNL     1      -4.633  -0.148  -1.396  0.00  0.00    +0.000 A 
ATOM     37  C   UNL     1      -4.437   1.050  -0.734  0.00  0.00    +0.000 A 
ATOM     38  C   UNL     1      -3.175   1.611  -0.678  0.00  0.00    +0.004 A 
ENDBRANCH  32  33
ENDBRANCH   1  32
TORSDOF 6
