REMARK  Name = ZINC16695432
REMARK  9 active torsions:
REMARK  status: ('A' for Active; 'I' for Inactive)
REMARK    1  A    between atoms: C_1  and  S_2
REMARK    2  A    between atoms: S_2  and  C_3
REMARK    3  A    between atoms: C_3  and  C_4
REMARK    4  A    between atoms: C_4  and  C_5
REMARK    5  A    between atoms: C_5  and  C_7
REMARK    6  A    between atoms: C_5  and  N_17
REMARK    7  A    between atoms: C_18  and  C_20
REMARK    8  A    between atoms: C_23  and  C_25
REMARK    9  A    between atoms: C_30  and  N_31
REMARK                            x       y       z     vdW  Elec       q    Type
REMARK                         _______ _______ _______ _____ _____    ______ ____
ROOT
ATOM      1  N   UNL     1      -0.011   0.966   0.007  0.00  0.00    -0.299 N 
ATOM      2  C   UNL     1      -1.187   1.624   0.017  0.00  0.00    +0.280 C 
ATOM      3  O   UNL     1      -1.204   2.841   0.023  0.00  0.00    -0.267 OA
ATOM      4  H   UNL     1       0.002  -0.004   0.002  0.00  0.00    +0.150 HD
ENDROOT
BRANCH   2   5
ATOM      5  C   UNL     1      -2.446   0.874   0.018  0.00  0.00    +0.190 A 
ATOM      6  C   UNL     1      -3.712   1.418   0.033  0.00  0.00    +0.055 A 
ATOM      7  C   UNL     1      -4.612   0.347   0.025  0.00  0.00    +0.051 A 
ATOM      8  C   UNL     1      -3.870  -0.799   0.016  0.00  0.00    +0.138 A 
ATOM      9  O   UNL     1      -2.568  -0.470   0.012  0.00  0.00    -0.450 OA
BRANCH   8  10
ATOM     10  C   UNL     1      -4.411  -2.174   0.011  0.00  0.00    +0.047 A 
ATOM     11  C   UNL     1      -5.386  -2.547   0.939  0.00  0.00    +0.014 A 
ATOM     12  C   UNL     1      -5.887  -3.832   0.928  0.00  0.00    +0.001 A 
ATOM     13  C   UNL     1      -5.426  -4.751   0.001  0.00  0.00    +0.002 A 
ATOM     14  C   UNL     1      -4.460  -4.388  -0.920  0.00  0.00    +0.033 A 
ATOM     15  C   UNL     1      -3.954  -3.104  -0.924  0.00  0.00    +0.137 A 
BRANCH  15  16
ATOM     16  N   UNL     1      -2.924  -2.716  -1.914  0.00  0.00    +0.057 N 
ATOM     17  O   UNL     1      -2.526  -3.528  -2.730  0.00  0.00    -0.126 OA
ATOM     18  O   UNL     1      -2.475  -1.583  -1.914  0.00  0.00    -0.126 OA
ENDBRANCH  15  16
ENDBRANCH   8  10
ENDBRANCH   2   5
BRANCH   1  19
ATOM     19  C   UNL     1       1.248   1.716  -0.001  0.00  0.00    +0.140 C 
BRANCH  19  20
ATOM     20  C   UNL     1       2.332   0.870  -0.616  0.00  0.00    +0.129 A 
ATOM     21  N   UNL     1       2.143  -0.358  -1.171  0.00  0.00    -0.340 N 
ATOM     22  H   UNL     1       1.275  -0.850  -1.240  0.00  0.00    +0.167 HD
ATOM     23  C   UNL     1       3.371  -0.799  -1.621  0.00  0.00    +0.066 A 
ATOM     24  C   UNL     1       3.809  -1.950  -2.263  0.00  0.00    +0.028 A 
ATOM     25  C   UNL     1       5.144  -2.088  -2.581  0.00  0.00    +0.002 A 
ATOM     26  C   UNL     1       6.050  -1.086  -2.263  0.00  0.00    +0.002 A 
ATOM     27  C   UNL     1       5.636   0.053  -1.633  0.00  0.00    +0.030 A 
ATOM     28  C   UNL     1       4.289   0.215  -1.301  0.00  0.00    +0.089 A 
ATOM     29  N   UNL     1       3.587   1.204  -0.689  0.00  0.00    -0.231 NA
ENDBRANCH  19  20
BRANCH  19  30
ATOM     30  C   UNL     1       1.635   2.077   1.435  0.00  0.00    +0.041 C 
BRANCH  30  31
ATOM     31  C   UNL     1       0.596   3.037   2.017  0.00  0.00    +0.071 C 
BRANCH  31  33
ATOM     32  C   UNL     1      -0.259   4.593   4.258  0.00  0.00    +0.084 C 
ATOM     33  S   UNL     1       1.055   3.465   3.719  0.00  0.00    -0.164 S 
ENDBRANCH  31  33
ENDBRANCH  30  31
ENDBRANCH  19  30
ENDBRANCH   1  19
TORSDOF 8
