REMARK  Name = ZINC22043249
REMARK  11 active torsions:
REMARK  status: ('A' for Active; 'I' for Inactive)
REMARK    1  A    between atoms: C_1  and  C_2
REMARK    2  A    between atoms: C_3  and  C_32
REMARK    3  A    between atoms: C_11  and  C_13
REMARK    4  A    between atoms: C_13  and  S_14
REMARK    5  A    between atoms: S_14  and  C_15
REMARK    6  A    between atoms: C_15  and  C_17
REMARK    7  A    between atoms: C_15  and  C_18
REMARK    8  A    between atoms: N_20  and  C_21
REMARK    9  A    between atoms: C_23  and  N_29
REMARK   10  A    between atoms: C_26  and  O_27
REMARK   11  A    between atoms: O_27  and  C_28
REMARK                            x       y       z     vdW  Elec       q    Type
REMARK                         _______ _______ _______ _____ _____    ______ ____
ROOT
ATOM      1  C   UNL     1       0.153  -6.150   5.449  0.00  0.00    +0.130 C 
ATOM      2  C   UNL     1       1.466  -5.921   6.201  0.00  0.00    +0.029 C 
ENDROOT
BRANCH   1   3
ATOM      3  C   UNL     1       0.034  -7.606   5.078  0.00  0.00    +0.230 C 
ATOM      4  O   UNL     1       0.391  -7.984   3.982  0.00  0.00    -0.274 OA
ATOM      5  N   UNL     1      -0.469  -8.488   5.964  0.00  0.00    -0.282 N 
ATOM      6  H   UNL     1      -0.694  -8.199   6.862  0.00  0.00    +0.155 HD
BRANCH   5   7
ATOM      7  C   UNL     1      -0.667  -9.823   5.588  0.00  0.00    +0.078 A 
ATOM      8  C   UNL     1       0.212 -10.435   4.706  0.00  0.00    +0.059 A 
ATOM      9  C   UNL     1       0.015 -11.752   4.336  0.00  0.00    +0.128 A 
ATOM     10  C   UNL     1      -1.057 -12.463   4.843  0.00  0.00    +0.036 A 
ATOM     11  C   UNL     1      -1.937 -11.860   5.722  0.00  0.00    +0.050 A 
ATOM     12  C   UNL     1      -1.743 -10.542   6.103  0.00  0.00    +0.141 A 
BRANCH   9  13
ATOM     13  N   UNL     1       0.954 -12.403   3.395  0.00  0.00    +0.056 N 
ATOM     14  O   UNL     1       1.891 -11.782   2.950  0.00  0.00    -0.126 OA
ATOM     15  O   UNL     1       0.783 -13.555   3.070  0.00  0.00    -0.126 OA
ENDBRANCH   9  13
BRANCH  12  16
ATOM     16  O   UNL     1      -2.605  -9.950   6.972  0.00  0.00    -0.493 OA
ATOM     17  C   UNL     1      -3.686 -10.747   7.459  0.00  0.00    +0.277 C 
ENDBRANCH  12  16
ENDBRANCH   5   7
ENDBRANCH   1   3
BRANCH   1  18
ATOM     18  S   UNL     1       0.134  -5.139   3.943  0.00  0.00    -0.141 S 
BRANCH  18  19
ATOM     19  C   UNL     1       0.130  -3.433   4.561  0.00  0.00    +0.144 C 
BRANCH  19  30
ATOM     20  C   UNL     1       0.060   1.514   0.037  0.00  0.00    +0.045 C 
ATOM     21  C   UNL     1       0.069   0.008   0.024  0.00  0.00    -0.026 A 
ATOM     22  C   UNL     1       0.067  -0.662  -1.139  0.00  0.00    -0.008 A 
ATOM     23  S   UNL     1       0.080  -2.371  -0.632  0.00  0.00    -0.073 S 
ATOM     24  C   UNL     1       0.087  -2.136   1.127  0.00  0.00    +0.116 A 
ATOM     25  C   UNL     1       0.085  -0.737   1.270  0.00  0.00    +0.075 A 
ATOM     26  C   UNL     1       0.094  -0.252   2.618  0.00  0.00    +0.260 A 
ATOM     27  O   UNL     1       0.089   0.946   2.846  0.00  0.00    -0.267 OA
ATOM     28  N   UNL     1       0.109  -1.140   3.630  0.00  0.00    -0.310 N 
ATOM     29  H   UNL     1       0.115  -0.818   4.545  0.00  0.00    +0.170 HD
ATOM     30  C   UNL     1       0.114  -2.477   3.395  0.00  0.00    +0.121 A 
ATOM     31  N   UNL     1       0.097  -2.950   2.178  0.00  0.00    -0.226 NA
ATOM     32  C   UNL     1       0.056  -0.103  -2.539  0.00  0.00    +0.052 C 
ENDBRANCH  19  30
ENDBRANCH  18  19
ENDBRANCH   1  18
TORSDOF 7
