REMARK  Name = ZINC59264250
REMARK  10 active torsions:
REMARK  status: ('A' for Active; 'I' for Inactive)
REMARK    1  A    between atoms: C_1  and  C_2
REMARK    2  A    between atoms: C_2  and  O_3
REMARK    3  A    between atoms: O_3  and  C_4
REMARK    4  A    between atoms: C_4  and  S_5
REMARK    5  A    between atoms: S_5  and  C_6
REMARK    6  A    between atoms: C_12  and  C_14
REMARK    7  A    between atoms: C_14  and  S_15
REMARK    8  A    between atoms: S_15  and  C_16
REMARK    9  A    between atoms: C_19  and  C_27
REMARK   10  A    between atoms: N_20  and  C_21
REMARK                            x       y       z     vdW  Elec       q    Type
REMARK                         _______ _______ _______ _____ _____    ______ ____
ROOT
ATOM      1  C   UNL     1      -1.204   0.189 -12.269  0.00  0.00    +0.197 A 
ATOM      2  N   UNL     1      -2.313  -0.405 -12.650  0.00  0.00    -0.122 NA
ATOM      3  N   UNL     1      -2.532  -0.177 -13.895  0.00  0.00    -0.128 NA
ATOM      4  C   UNL     1      -1.578   0.577 -14.389  0.00  0.00    +0.171 A 
ATOM      5  N   UNL     1      -0.699   0.841 -13.361  0.00  0.00    -0.270 N 
ENDROOT
BRANCH   5   6
ATOM      6  C   UNL     1       0.469   1.613 -13.422  0.00  0.00    +0.051 A 
ATOM      7  C   UNL     1       0.387   2.986 -13.614  0.00  0.00    +0.026 A 
ATOM      8  C   UNL     1       1.539   3.744 -13.673  0.00  0.00    +0.002 A 
ATOM      9  C   UNL     1       2.775   3.138 -13.541  0.00  0.00    +0.000 A 
ATOM     10  C   UNL     1       2.861   1.771 -13.351  0.00  0.00    +0.002 A 
ATOM     11  C   UNL     1       1.711   1.008 -13.284  0.00  0.00    +0.026 A 
ENDBRANCH   5   6
BRANCH   4  12
ATOM     12  C   UNL     1      -1.469   1.058 -15.783  0.00  0.00    +0.038 A 
ATOM     13  C   UNL     1      -0.249   1.533 -16.279  0.00  0.00    +0.014 A 
ATOM     14  C   UNL     1      -0.201   1.971 -17.590  0.00  0.00    +0.020 A 
ATOM     15  C   UNL     1      -1.349   1.927 -18.362  0.00  0.00    +0.111 A 
ATOM     16  N   UNL     1      -2.485   1.474 -17.867  0.00  0.00    -0.263 NA
ATOM     17  C   UNL     1      -2.580   1.040 -16.628  0.00  0.00    +0.122 A 
ENDBRANCH   4  12
BRANCH   1  18
ATOM     18  S   UNL     1      -0.503   0.158 -10.653  0.00  0.00    -0.076 S 
BRANCH  18  19
ATOM     19  C   UNL     1      -1.652  -0.869  -9.696  0.00  0.00    +0.173 C 
BRANCH  19  26
ATOM     20  C   UNL     1      -0.849  -2.204  -3.490  0.00  0.00    +0.162 A 
ATOM     21  N   UNL     1      -0.071  -1.469  -4.271  0.00  0.00    -0.133 NA
ATOM     22  N   UNL     1      -0.338  -1.278  -5.489  0.00  0.00    -0.125 NA
ATOM     23  C   UNL     1      -1.411  -1.799  -6.061  0.00  0.00    +0.189 A 
ATOM     24  S   UNL     1      -2.112  -2.678  -4.668  0.00  0.00    -0.024 S 
ATOM     25  N   UNL     1      -1.862  -1.698  -7.375  0.00  0.00    -0.263 N 
ATOM     26  C   UNL     1      -1.163  -0.978  -8.275  0.00  0.00    +0.229 C 
ATOM     27  O   UNL     1      -0.140  -0.418  -7.940  0.00  0.00    -0.275 OA
ATOM     28  H   UNL     1      -2.680  -2.146  -7.642  0.00  0.00    +0.157 HD
BRANCH  20  29
ATOM     29  S   UNL     1      -0.684  -2.607  -1.783  0.00  0.00    -0.069 S 
BRANCH  29  30
ATOM     30  C   UNL     1       0.840  -1.762  -1.278  0.00  0.00    +0.236 C 
BRANCH  30  31
ATOM     31  O   UNL     1       0.588  -0.361  -1.153  0.00  0.00    -0.369 OA
BRANCH  31  33
ATOM     32  C   UNL     1      -0.357   1.511   0.049  0.00  0.00    +0.034 C 
ATOM     33  C   UNL     1      -0.147  -0.005   0.020  0.00  0.00    +0.157 C 
ENDBRANCH  31  33
ENDBRANCH  30  31
ENDBRANCH  29  30
ENDBRANCH  20  29
ENDBRANCH  19  26
ENDBRANCH  18  19
ENDBRANCH   1  18
TORSDOF 9
