REMARK  Name = ZINC63191054
REMARK  5 active torsions:
REMARK  status: ('A' for Active; 'I' for Inactive)
REMARK    1  A    between atoms: C_3  and  C_19
REMARK    2  A    between atoms: C_5  and  N_7
REMARK    3  A    between atoms: N_7  and  S_8
REMARK    4  A    between atoms: S_8  and  C_11
REMARK    5  A    between atoms: C_19  and  N_20
REMARK                            x       y       z     vdW  Elec       q    Type
REMARK                         _______ _______ _______ _____ _____    ______ ____
ROOT
ATOM      1  N   UNL     1       1.238  -2.077  -0.021  0.00  0.00    -0.098 NA
ENDROOT
BRANCH   1   6
ATOM      2  C   UNL     1      -0.017   1.377   0.010  0.00  0.00    +0.002 A 
ATOM      3  C   UNL     1       1.171   2.086   0.002  0.00  0.00    +0.002 A 
ATOM      4  C   UNL     1       2.380   1.416  -0.013  0.00  0.00    -0.063 A 
ATOM      5  C   UNL     1       2.406   0.035  -0.021  0.00  0.00    +0.028 A 
ATOM      6  C   UNL     1       1.215  -0.681  -0.013  0.00  0.00    +0.074 A 
ATOM      7  C   UNL     1       0.002  -0.004   0.002  0.00  0.00    +0.027 A 
BRANCH   4   8
ATOM      8  C   UNL     1       3.671   2.193  -0.023  0.00  0.00    -0.051 C 
BRANCH   8   9
ATOM      9  N   UNL     1       4.105   2.438   1.359  0.00  0.00    +0.381 N 
ATOM     10  H   UNL     1       3.396   2.969   1.845  0.00  0.00    -0.090 HD
ATOM     11  H   UNL     1       4.246   1.557   1.829  0.00  0.00    -0.090 HD
ATOM     12  H   UNL     1       4.969   2.959   1.353  0.00  0.00    -0.090 HD
ENDBRANCH   8   9
ENDBRANCH   4   8
ENDBRANCH   1   6
BRANCH   1  13
ATOM     13  S   UNL     1      -0.182  -2.928  -0.011  0.00  0.00    +0.093 S 
ATOM     14  O   UNL     1      -0.802  -2.671   1.242  0.00  0.00    -0.148 OA
ATOM     15  O   UNL     1      -0.826  -2.658  -1.249  0.00  0.00    -0.148 OA
BRANCH  13  16
ATOM     16  C   UNL     1       0.236  -4.640  -0.025  0.00  0.00    +0.125 A 
ATOM     17  C   UNL     1      -0.086  -5.438   1.057  0.00  0.00    +0.045 A 
ATOM     18  C   UNL     1       0.242  -6.782   1.047  0.00  0.00    +0.020 A 
ATOM     19  C   UNL     1       0.893  -7.327  -0.046  0.00  0.00    +0.016 A 
ATOM     20  C   UNL     1       1.214  -6.529  -1.128  0.00  0.00    +0.018 A 
ATOM     21  C   UNL     1       0.881  -5.186  -1.119  0.00  0.00    +0.045 A 
ATOM     22 BR   UNL     1       1.314  -4.095  -2.602  0.00  0.00    -0.048 Br
ATOM     23 BR   UNL     1      -0.197  -7.874   2.526  0.00  0.00    -0.050 Br
ENDBRANCH  13  16
ENDBRANCH   1  13
TORSDOF 5
