REMARK  Name = ZINC13154117
REMARK  6 active torsions:
REMARK  status: ('A' for Active; 'I' for Inactive)
REMARK    1  A    between atoms: C_1  and  C_2
REMARK    2  A    between atoms: C_3  and  C_14
REMARK    3  A    between atoms: N_5  and  C_7
REMARK    4  A    between atoms: C_26  and  S_29
REMARK    5  A    between atoms: S_29  and  C_30
REMARK    6  A    between atoms: C_30  and  C_31
REMARK                            x       y       z     vdW  Elec       q    Type
REMARK                         _______ _______ _______ _____ _____    ______ ____
ROOT
ATOM      1  C   UNL     1      -0.489   4.072  -0.737  0.00  0.00    +0.301 C 
ATOM      2  N   UNL     1      -1.657   4.844  -0.323  0.00  0.00    -0.305 N 
ATOM      3  C   UNL     1      -2.296   5.655  -1.264  0.00  0.00    +0.039 A 
ATOM      4  C   UNL     1      -3.562   5.356  -1.732  0.00  0.00    +0.024 A 
ATOM      5  C   UNL     1      -4.159   6.174  -2.675  0.00  0.00    +0.002 A 
ATOM      6  C   UNL     1      -3.496   7.290  -3.155  0.00  0.00    +0.001 A 
ATOM      7  C   UNL     1      -2.233   7.605  -2.693  0.00  0.00    +0.012 A 
ATOM      8  C   UNL     1      -1.624   6.797  -1.741  0.00  0.00    +0.028 A 
ATOM      9  C   UNL     1      -0.289   7.115  -1.195  0.00  0.00    +0.156 A 
ATOM     10  C   UNL     1       0.690   6.099  -1.104  0.00  0.00    +0.248 A 
ATOM     11  N   UNL     1       1.875   6.401  -0.604  0.00  0.00    -0.184 NA
ATOM     12  C   UNL     1       2.115   7.648  -0.207  0.00  0.00    +0.213 A 
ATOM     13  N   UNL     1       1.185   8.589  -0.306  0.00  0.00    -0.122 NA
ATOM     14  N   UNL     1       0.015   8.337  -0.784  0.00  0.00    -0.141 NA
ATOM     15  O   UNL     1       0.401   4.848  -1.532  0.00  0.00    -0.448 OA
ATOM     16  H   UNL     1      -1.983   4.794   0.590  0.00  0.00    +0.150 HD
ENDROOT
BRANCH   1  19
ATOM     17  C   UNL     1      -0.013   1.086   0.008  0.00  0.00    +0.065 C 
ATOM     18  C   UNL     1      -0.742   1.585  -1.213  0.00  0.00    +0.044 A 
ATOM     19  C   UNL     1      -0.947   2.878  -1.535  0.00  0.00    +0.097 A 
ATOM     20  C   UNL     1      -1.667   2.919  -2.751  0.00  0.00    +0.280 A 
ATOM     21  N   UNL     1      -1.883   1.646  -3.141  0.00  0.00    -0.219 N 
ATOM     22  N   UNL     1      -1.301   0.804  -2.184  0.00  0.00    -0.294 N 
ATOM     23  O   UNL     1      -2.028   3.922  -3.340  0.00  0.00    -0.265 OA
ATOM     24  H   UNL     1      -1.298  -0.166  -2.206  0.00  0.00    +0.187 HD
BRANCH  21  25
ATOM     25  C   UNL     1      -2.561   1.240  -4.295  0.00  0.00    +0.067 A 
ATOM     26  C   UNL     1      -3.080   2.188  -5.167  0.00  0.00    +0.028 A 
ATOM     27  C   UNL     1      -3.749   1.784  -6.306  0.00  0.00    +0.002 A 
ATOM     28  C   UNL     1      -3.901   0.436  -6.578  0.00  0.00    +0.000 A 
ATOM     29  C   UNL     1      -3.385  -0.510  -5.712  0.00  0.00    +0.002 A 
ATOM     30  C   UNL     1      -2.710  -0.112  -4.574  0.00  0.00    +0.028 A 
ENDBRANCH  21  25
ENDBRANCH   1  19
BRANCH  12  31
ATOM     31  S   UNL     1       3.694   8.056   0.461  0.00  0.00    -0.080 S 
BRANCH  31  32
ATOM     32  C   UNL     1       3.561   9.822   0.854  0.00  0.00    +0.104 C 
BRANCH  32  33
ATOM     33  C   UNL     1       4.862  10.306   1.441  0.00  0.00    -0.023 C 
ATOM     34  C   UNL     1       5.581  11.191   0.798  0.00  0.00    +0.005 C 
ENDBRANCH  32  33
ENDBRANCH  31  32
ENDBRANCH  12  31
TORSDOF 5
