REMARK  Name = ZINC65182491
REMARK  10 active torsions:
REMARK  status: ('A' for Active; 'I' for Inactive)
REMARK    1  A    between atoms: C_1  and  C_2
REMARK    2  A    between atoms: C_2  and  C_3
REMARK    3  A    between atoms: C_6  and  C_31
REMARK    4  A    between atoms: C_11  and  C_13
REMARK    5  A    between atoms: C_16  and  C_19
REMARK    6  A    between atoms: C_19  and  C_20
REMARK    7  A    between atoms: C_20  and  N_21
REMARK    8  A    between atoms: N_21  and  C_22
REMARK    9  A    between atoms: C_23  and  C_25
REMARK   10  A    between atoms: N_29  and  C_30
REMARK                            x       y       z     vdW  Elec       q    Type
REMARK                         _______ _______ _______ _____ _____    ______ ____
ROOT
ATOM      1  C   UNL     1       0.994  -3.620   1.309  0.00  0.00    +0.318 C 
ATOM      2  N   UNL     1       1.479  -4.974   1.621  0.00  0.00    -0.291 N 
ATOM      3  C   UNL     1       2.851  -4.936   1.532  0.00  0.00    +0.139 C 
ATOM      4  N   UNL     1       3.270  -3.766   1.214  0.00  0.00    -0.072 NA
ATOM      5  O   UNL     1       2.188  -2.864   1.048  0.00  0.00    -0.367 OA
ATOM      6  H   UNL     1       0.935  -5.745   1.845  0.00  0.00    +0.151 HD
ENDROOT
BRANCH   1  15
ATOM      7  C   UNL     1      -0.323  -1.675   2.149  0.00  0.00    -0.033 C 
ATOM      8  C   UNL     1       0.245  -0.799   3.009  0.00  0.00    -0.000 A 
ATOM      9  C   UNL     1       0.111   0.653   3.182  0.00  0.00    +0.013 A 
ATOM     10  C   UNL     1       0.826   1.266   4.152  0.00  0.00    -0.050 A 
ATOM     11  C   UNL     1       1.690   0.553   4.994  0.00  0.00    +0.005 A 
ATOM     12  C   UNL     1       1.866  -0.782   4.896  0.00  0.00    +0.026 A 
ATOM     13  C   UNL     1       1.163  -1.529   3.911  0.00  0.00    +0.043 A 
ATOM     14  N   UNL     1       1.163  -2.808   3.620  0.00  0.00    -0.373 N 
ATOM     15  C   UNL     1       0.239  -3.034   2.503  0.00  0.00    +0.169 C 
ATOM     16  C   UNL     1       0.691   2.756   4.332  0.00  0.00    +0.044 C 
ATOM     17  H   UNL     1       1.685  -3.490   4.071  0.00  0.00    +0.160 HD
BRANCH   7  19
ATOM     18  C   UNL     1      -1.610   0.140   1.054  0.00  0.00    +0.008 C 
ATOM     19  C   UNL     1      -1.319  -1.362   1.062  0.00  0.00    +0.030 C 
ENDBRANCH   7  19
ENDBRANCH   1  15
BRANCH   3  20
ATOM     20  C   UNL     1       3.749  -6.121   1.778  0.00  0.00    +0.094 C 
BRANCH  20  21
ATOM     21  C   UNL     1       5.208  -5.702   1.588  0.00  0.00    +0.115 C 
BRANCH  21  22
ATOM     22  N   UNL     1       6.082  -6.854   1.827  0.00  0.00    -0.299 N 
ATOM     23  C   UNL     1       6.448  -7.738   0.718  0.00  0.00    +0.132 C 
ATOM     24  C   UNL     1       6.549  -7.099   3.067  0.00  0.00    +0.263 C 
ATOM     25  O   UNL     1       6.164  -6.428   4.006  0.00  0.00    -0.268 OA
BRANCH  24  26
ATOM     26  C   UNL     1       7.521  -8.176   3.285  0.00  0.00    +0.104 A 
ATOM     27  C   UNL     1       8.145  -8.921   2.307  0.00  0.00    +0.032 A 
ATOM     28  C   UNL     1       8.986  -9.829   2.956  0.00  0.00    +0.020 A 
ATOM     29  C   UNL     1       8.865  -9.628   4.290  0.00  0.00    +0.086 A 
ATOM     30  N   UNL     1       7.981  -8.622   4.503  0.00  0.00    -0.346 N 
ATOM     31  C   UNL     1       7.581  -8.100   5.812  0.00  0.00    +0.149 C 
ENDBRANCH  24  26
ENDBRANCH  21  22
ENDBRANCH  20  21
ENDBRANCH   3  20
TORSDOF 6
