REMARK  Name = ZINC38619137
REMARK  9 active torsions:
REMARK  status: ('A' for Active; 'I' for Inactive)
REMARK    1  A    between atoms: C_1  and  C_2
REMARK    2  A    between atoms: C_3  and  C_29
REMARK    3  A    between atoms: N_6  and  C_23
REMARK    4  A    between atoms: C_8  and  C_9
REMARK    5  A    between atoms: C_9  and  C_11
REMARK    6  A    between atoms: C_11  and  O_12
REMARK    7  A    between atoms: O_12  and  C_13
REMARK    8  A    between atoms: C_18  and  N_19
REMARK    9  A    between atoms: C_23  and  C_24
REMARK                            x       y       z     vdW  Elec       q    Type
REMARK                         _______ _______ _______ _____ _____    ______ ____
ROOT
ATOM      1  C   UNL     1      -0.522   1.413   0.062  0.00  0.00    +0.046 C 
ATOM      2  C   UNL     1      -0.057  -0.020   0.009  0.00  0.00    -0.012 A 
ATOM      3  C   UNL     1       0.022  -0.693  -1.205  0.00  0.00    +0.120 A 
ATOM      4  C   UNL     1       0.479  -2.083  -1.213  0.00  0.00    +0.272 A 
ATOM      5  O   UNL     1       0.556  -2.694  -2.264  0.00  0.00    -0.266 OA
ATOM      6  N   UNL     1       0.813  -2.687  -0.057  0.00  0.00    -0.267 N 
ATOM      7  C   UNL     1       0.735  -2.030   1.124  0.00  0.00    +0.265 A 
ATOM      8  C   UNL     1       0.310  -0.698   1.186  0.00  0.00    +0.090 A 
ATOM      9  O   UNL     1       1.078  -2.667   2.259  0.00  0.00    -0.267 OA
ENDROOT
BRANCH   8  10
ATOM     10  C   UNL     1       0.243  -0.011   2.476  0.00  0.00    +0.206 C 
ATOM     11  O   UNL     1      -0.009   1.175   2.520  0.00  0.00    -0.288 OA
BRANCH  10  12
ATOM     12  C   UNL     1       0.486  -0.777   3.751  0.00  0.00    +0.308 C 
BRANCH  12  13
ATOM     13  O   UNL     1       0.443   0.120   4.862  0.00  0.00    -0.482 OA
BRANCH  13  14
ATOM     14  C   UNL     1       0.644  -0.414   6.095  0.00  0.00    +0.151 A 
ATOM     15  C   UNL     1       0.884  -1.774   6.233  0.00  0.00    +0.048 A 
ATOM     16  C   UNL     1       1.089  -2.314   7.487  0.00  0.00    +0.004 A 
ATOM     17  C   UNL     1       1.055  -1.501   8.605  0.00  0.00    +0.002 A 
ATOM     18  C   UNL     1       0.815  -0.146   8.471  0.00  0.00    +0.036 A 
ATOM     19  C   UNL     1       0.615   0.400   7.218  0.00  0.00    +0.168 A 
BRANCH  19  20
ATOM     20  N   UNL     1       0.365   1.852   7.074  0.00  0.00    +0.060 N 
ATOM     21  O   UNL     1       0.340   2.561   8.053  0.00  0.00    -0.126 OA
ATOM     22  O   UNL     1       0.185   2.328   5.978  0.00  0.00    -0.126 OA
ENDBRANCH  19  20
ENDBRANCH  13  14
ENDBRANCH  12  13
ENDBRANCH  10  12
ENDBRANCH   8  10
BRANCH   3  23
ATOM     23  C   UNL     1      -0.338  -0.037  -2.426  0.00  0.00    +0.105 C 
ATOM     24  N   UNL     1      -0.623   0.483  -3.395  0.00  0.00    -0.191 NA
ENDBRANCH   3  23
BRANCH   6  25
ATOM     25  C   UNL     1       1.268  -4.079  -0.077  0.00  0.00    +0.202 C 
BRANCH  25  26
ATOM     26  C   UNL     1       2.765  -4.115  -0.242  0.00  0.00    +0.125 A 
ATOM     27  C   UNL     1       3.667  -4.117   0.757  0.00  0.00    +0.046 A 
ATOM     28  C   UNL     1       4.945  -4.157   0.155  0.00  0.00    +0.041 A 
ATOM     29  C   UNL     1       4.749  -4.178  -1.176  0.00  0.00    +0.195 A 
ATOM     30  O   UNL     1       3.426  -4.158  -1.410  0.00  0.00    -0.466 OA
ENDBRANCH  25  26
ENDBRANCH   6  25
TORSDOF 8
