REMARK  Name = ZINC15693131
REMARK  10 active torsions:
REMARK  status: ('A' for Active; 'I' for Inactive)
REMARK    1  A    between atoms: C_1  and  C_2
REMARK    2  A    between atoms: C_5  and  C_30
REMARK    3  A    between atoms: C_6  and  C_8
REMARK    4  A    between atoms: C_8  and  C_10
REMARK    5  A    between atoms: C_8  and  N_11
REMARK    6  A    between atoms: C_12  and  C_14
REMARK    7  A    between atoms: C_17  and  S_23
REMARK    8  A    between atoms: C_18  and  N_20
REMARK    9  A    between atoms: S_23  and  C_24
REMARK   10  A    between atoms: N_28  and  C_29
REMARK                            x       y       z     vdW  Elec       q    Type
REMARK                         _______ _______ _______ _____ _____    ______ ____
ROOT
ATOM      1  C   UNL     1       1.215  -0.683  -0.016  0.00  0.00    +0.039 A 
ATOM      2  C   UNL     1       2.406   0.036   0.127  0.00  0.00    +0.014 A 
ATOM      3  C   UNL     1       2.384   1.402   0.134  0.00  0.00    +0.018 A 
ATOM      4  C   UNL     1       1.177   2.084   0.001  0.00  0.00    +0.046 A 
ATOM      5  C   UNL     1      -0.014   1.376  -0.142  0.00  0.00    +0.141 A 
ATOM      6  C   UNL     1       0.002  -0.001  -0.151  0.00  0.00    +0.047 A 
ENDROOT
BRANCH   1   8
ATOM      7  N   UNL     1       2.408  -2.813   0.105  0.00  0.00    -0.305 N 
ATOM      8  C   UNL     1       1.238  -2.157  -0.025  0.00  0.00    +0.245 C 
ATOM      9  O   UNL     1       0.202  -2.781  -0.150  0.00  0.00    -0.270 OA
ATOM     10  H   UNL     1       3.235  -2.316   0.204  0.00  0.00    +0.150 HD
BRANCH   7  11
ATOM     11  C   UNL     1       2.432  -4.278   0.096  0.00  0.00    +0.101 C 
ATOM     12  C   UNL     1       2.150  -4.801   1.506  0.00  0.00    +0.033 C 
BRANCH  11  18
ATOM     13  C   UNL     1       7.348  -3.503  -0.425  0.00  0.00    +0.044 C 
ATOM     14  C   UNL     1       6.140  -4.385  -0.605  0.00  0.00    -0.050 A 
ATOM     15  C   UNL     1       6.275  -5.634  -1.183  0.00  0.00    +0.003 A 
ATOM     16  C   UNL     1       5.167  -6.443  -1.348  0.00  0.00    +0.004 A 
ATOM     17  C   UNL     1       3.924  -6.006  -0.930  0.00  0.00    -0.046 A 
ATOM     18  C   UNL     1       3.788  -4.756  -0.356  0.00  0.00    -0.024 A 
ATOM     19  C   UNL     1       4.896  -3.947  -0.191  0.00  0.00    +0.009 A 
ATOM     20  C   UNL     1       2.716  -6.891  -1.104  0.00  0.00    +0.044 C 
ENDBRANCH  11  18
ENDBRANCH   7  11
ENDBRANCH   1   8
BRANCH   5  21
ATOM     21  N   UNL     1      -1.295   2.103  -0.291  0.00  0.00    +0.058 N 
ATOM     22  O   UNL     1      -2.336   1.483  -0.420  0.00  0.00    -0.126 OA
ATOM     23  O   UNL     1      -1.308   3.321  -0.283  0.00  0.00    -0.126 OA
ENDBRANCH   5  21
BRANCH   4  24
ATOM     24  S   UNL     1       1.157   3.845   0.011  0.00  0.00    -0.048 S 
BRANCH  24  25
ATOM     25  C   UNL     1       0.575   4.135   1.649  0.00  0.00    +0.196 A 
ATOM     26  N   UNL     1       0.353   3.227   2.570  0.00  0.00    -0.122 NA
ATOM     27  N   UNL     1      -0.063   3.791   3.648  0.00  0.00    -0.137 NA
ATOM     28  C   UNL     1      -0.138   5.081   3.477  0.00  0.00    +0.225 A 
ATOM     29  N   UNL     1       0.266   5.346   2.198  0.00  0.00    -0.311 N 
ATOM     30  C   UNL     1       0.349   6.658   1.552  0.00  0.00    +0.152 C 
ENDBRANCH  24  25
ENDBRANCH   4  24
TORSDOF 6
