REMARK  Name = ZINC42968700
REMARK  6 active torsions:
REMARK  status: ('A' for Active; 'I' for Inactive)
REMARK    1  A    between atoms: C_4  and  C_19
REMARK    2  A    between atoms: C_5  and  C_7
REMARK    3  A    between atoms: C_7  and  S_8
REMARK    4  A    between atoms: S_8  and  C_9
REMARK    5  A    between atoms: N_21  and  N_22
REMARK    6  A    between atoms: C_23  and  C_25
REMARK                            x       y       z     vdW  Elec       q    Type
REMARK                         _______ _______ _______ _____ _____    ______ ____
ROOT
ATOM      1  C   UNL     1       0.064   1.470  -0.248  0.00  0.00    +0.000 A 
ATOM      2  C   UNL     1       1.275   2.091   0.004  0.00  0.00    +0.001 A 
ATOM      3  C   UNL     1       2.403   1.336   0.247  0.00  0.00    +0.013 A 
ATOM      4  C   UNL     1       2.322  -0.058   0.239  0.00  0.00    +0.042 A 
ATOM      5  C   UNL     1       1.098  -0.678  -0.015  0.00  0.00    -0.025 A 
ATOM      6  C   UNL     1      -0.023   0.089  -0.257  0.00  0.00    +0.005 A 
ENDROOT
BRANCH   4   7
ATOM      7  C   UNL     1       3.528  -0.873   0.498  0.00  0.00    +0.260 C 
ATOM      8  O   UNL     1       3.434  -2.081   0.600  0.00  0.00    -0.269 OA
ATOM      9  N   UNL     1       4.730  -0.278   0.622  0.00  0.00    -0.230 N 
ATOM     10  H   UNL     1       4.805   0.686   0.541  0.00  0.00    +0.173 HD
BRANCH   9  11
ATOM     11  N   UNL     1       5.873  -1.050   0.868  0.00  0.00    -0.232 N 
ATOM     12  C   UNL     1       7.075  -0.455   0.992  0.00  0.00    +0.258 C 
ATOM     13  O   UNL     1       7.168   0.750   0.891  0.00  0.00    -0.271 OA
ATOM     14  H   UNL     1       5.798  -2.014   0.949  0.00  0.00    +0.173 HD
BRANCH  12  15
ATOM     15  C   UNL     1       8.304  -1.286   1.256  0.00  0.00    +0.205 C 
ATOM     16  C   UNL     1       8.195  -1.956   2.643  0.00  0.00    +0.043 C 
ATOM     17  C   UNL     1       9.649  -1.846   3.177  0.00  0.00    +0.031 C 
ATOM     18  C   UNL     1      10.086  -0.491   2.566  0.00  0.00    +0.161 C 
ATOM     19  O   UNL     1       9.465  -0.447   1.269  0.00  0.00    -0.367 OA
ENDBRANCH  12  15
ENDBRANCH   9  11
ENDBRANCH   4   7
BRANCH   5  20
ATOM     20  C   UNL     1       1.001  -2.182  -0.025  0.00  0.00    +0.113 C 
BRANCH  20  21
ATOM     21  S   UNL     1       0.807  -2.787   1.674  0.00  0.00    -0.083 S 
BRANCH  21  22
ATOM     22  C   UNL     1       0.709  -4.537   1.494  0.00  0.00    +0.168 A 
ATOM     23  N   UNL     1       0.553  -5.424   2.522  0.00  0.00    -0.333 N 
ATOM     24  H   UNL     1       0.476  -5.206   3.463  0.00  0.00    +0.168 HD
ATOM     25  C   UNL     1       0.523  -6.693   1.967  0.00  0.00    +0.067 A 
ATOM     26  C   UNL     1       0.389  -7.969   2.493  0.00  0.00    +0.028 A 
ATOM     27  C   UNL     1       0.398  -9.063   1.652  0.00  0.00    +0.002 A 
ATOM     28  C   UNL     1       0.540  -8.896   0.283  0.00  0.00    +0.002 A 
ATOM     29  C   UNL     1       0.674  -7.636  -0.257  0.00  0.00    +0.030 A 
ATOM     30  C   UNL     1       0.667  -6.518   0.581  0.00  0.00    +0.090 A 
ATOM     31  N   UNL     1       0.770  -5.182   0.355  0.00  0.00    -0.222 NA
ENDBRANCH  21  22
ENDBRANCH  20  21
ENDBRANCH   5  20
TORSDOF 6
