REMARK  Name = ZINC67624717
REMARK  5 active torsions:
REMARK  status: ('A' for Active; 'I' for Inactive)
REMARK    1  A    between atoms: C_1  and  S_2
REMARK    2  A    between atoms: S_2  and  N_5
REMARK    3  A    between atoms: C_9  and  N_12
REMARK    4  A    between atoms: N_15  and  N_16
REMARK    5  A    between atoms: N_16  and  C_17
REMARK                            x       y       z     vdW  Elec       q    Type
REMARK                         _______ _______ _______ _____ _____    ______ ____
ROOT
ATOM      1  N   UNL     1       4.290   0.037  -2.606  0.00  0.00    -0.294 N 
ATOM      2  C   UNL     1       5.111   0.986  -3.099  0.00  0.00    +0.316 C 
ATOM      3  O   UNL     1       4.659   2.057  -3.454  0.00  0.00    -0.251 OA
ATOM      4  N   UNL     1       6.434   0.746  -3.200  0.00  0.00    -0.220 N 
ATOM      5  H   UNL     1       4.651  -0.817  -2.323  0.00  0.00    +0.151 HD
ATOM      6  H   UNL     1       7.025   1.428  -3.555  0.00  0.00    +0.174 HD
ENDROOT
BRANCH   1  11
ATOM      7  N   UNL     1       0.795  -0.411  -1.394  0.00  0.00    -0.180 NA
ATOM      8  C   UNL     1       0.053  -0.601  -2.648  0.00  0.00    +0.109 C 
ATOM      9  C   UNL     1       0.677   0.287  -3.729  0.00  0.00    +0.019 C 
ATOM     10  C   UNL     1       2.174  -0.017  -3.832  0.00  0.00    +0.025 C 
ATOM     11  C   UNL     1       2.853   0.298  -2.497  0.00  0.00    +0.090 C 
ATOM     12  C   UNL     1       2.254  -0.584  -1.403  0.00  0.00    +0.131 C 
BRANCH   7  14
ATOM     13  C   UNL     1      -0.022   1.810   0.012  0.00  0.00    +0.215 C 
ATOM     14  S   UNL     1       0.002  -0.004   0.002  0.00  0.00    +0.029 S 
ATOM     15  O   UNL     1       0.835  -0.488   1.046  0.00  0.00    -0.158 OA
ATOM     16  O   UNL     1      -1.315  -0.510  -0.168  0.00  0.00    -0.158 OA
ENDBRANCH   7  14
ENDBRANCH   1  11
BRANCH   4  17
ATOM     17  N   UNL     1       6.955  -0.489  -2.792  0.00  0.00    -0.262 N 
ATOM     18  H   UNL     1       6.364  -1.171  -2.436  0.00  0.00    +0.170 HD
BRANCH  17  19
ATOM     19  C   UNL     1       8.327  -0.738  -2.896  0.00  0.00    +0.063 A 
ATOM     20  C   UNL     1       9.175   0.240  -3.398  0.00  0.00    +0.027 A 
ATOM     21  C   UNL     1      10.530  -0.008  -3.501  0.00  0.00    +0.022 A 
ATOM     22  C   UNL     1      11.043  -1.230  -3.103  0.00  0.00    +0.042 A 
ATOM     23  C   UNL     1      10.201  -2.207  -2.601  0.00  0.00    +0.042 A 
ATOM     24  C   UNL     1       8.845  -1.962  -2.491  0.00  0.00    +0.065 A 
ATOM     25 CL   UNL     1       7.790  -3.185  -1.855  0.00  0.00    -0.082 Cl
ATOM     26 CL   UNL     1      12.746  -1.538  -3.233  0.00  0.00    -0.083 Cl
ENDBRANCH  17  19
ENDBRANCH   4  17
TORSDOF 4
