REMARK  Name = ZINC59818982
REMARK  9 active torsions:
REMARK  status: ('A' for Active; 'I' for Inactive)
REMARK    1  A    between atoms: C_1  and  C_2
REMARK    2  A    between atoms: C_2  and  C_4
REMARK    3  A    between atoms: C_2  and  S_10
REMARK    4  A    between atoms: N_6  and  C_7
REMARK    5  A    between atoms: C_7  and  C_8
REMARK    6  A    between atoms: S_10  and  C_11
REMARK    7  A    between atoms: N_16  and  N_17
REMARK    8  A    between atoms: C_18  and  C_19
REMARK    9  A    between atoms: C_22  and  O_26
REMARK                            x       y       z     vdW  Elec       q    Type
REMARK                         _______ _______ _______ _____ _____    ______ ____
ROOT
ATOM      1  C   UNL     1       2.509  -0.029  -1.285  0.00  0.00    +0.211 A 
ATOM      2  N   UNL     1       3.508  -0.225  -2.152  0.00  0.00    -0.186 NA
ATOM      3  C   UNL     1       4.611   0.325  -1.688  0.00  0.00    +0.232 A 
ATOM      4  N   UNL     1       4.325   0.890  -0.495  0.00  0.00    -0.245 N 
ATOM      5  N   UNL     1       2.961   0.654  -0.260  0.00  0.00    -0.144 NA
ATOM      6  N   UNL     1       5.845   0.323  -2.311  0.00  0.00    -0.205 N 
ATOM      7  H   UNL     1       6.603   0.756  -1.889  0.00  0.00    +0.177 HD
ATOM      8  H   UNL     1       4.940   1.369   0.083  0.00  0.00    +0.192 HD
ENDROOT
BRANCH   6   9
ATOM      9  N   UNL     1       6.001  -0.305  -3.554  0.00  0.00    -0.188 NA
ATOM     10  C   UNL     1       7.159  -0.307  -4.140  0.00  0.00    +0.138 C 
BRANCH  10  11
ATOM     11  C   UNL     1       7.323  -0.967  -5.448  0.00  0.00    -0.003 A 
ATOM     12  C   UNL     1       6.231  -1.587  -6.061  0.00  0.00    +0.028 A 
ATOM     13  C   UNL     1       6.389  -2.204  -7.285  0.00  0.00    +0.061 A 
ATOM     14  C   UNL     1       7.631  -2.210  -7.907  0.00  0.00    +0.145 A 
ATOM     15  C   UNL     1       8.720  -1.595  -7.300  0.00  0.00    +0.061 A 
ATOM     16  C   UNL     1       8.569  -0.970  -6.080  0.00  0.00    +0.028 A 
ATOM     17 BR   UNL     1      10.407  -1.607  -8.153  0.00  0.00    -0.046 Br
ATOM     18 BR   UNL     1       4.913  -3.043  -8.116  0.00  0.00    -0.046 Br
BRANCH  14  19
ATOM     19  O   UNL     1       7.783  -2.820  -9.112  0.00  0.00    -0.505 OA
ATOM     20  H   UNL     1       7.626  -2.239  -9.869  0.00  0.00    +0.292 HD
ENDBRANCH  14  19
ENDBRANCH  10  11
ENDBRANCH   6   9
BRANCH   1  21
ATOM     21  S   UNL     1       0.851  -0.589  -1.490  0.00  0.00    -0.072 S 
BRANCH  21  23
ATOM     22  C   UNL     1      -0.019   1.526   0.010  0.00  0.00    +0.029 C 
ATOM     23  C   UNL     1       0.002  -0.004   0.002  0.00  0.00    +0.137 C 
BRANCH  23  24
ATOM     24  C   UNL     1      -1.412  -0.526   0.013  0.00  0.00    +0.226 C 
ATOM     25  O   UNL     1      -1.927  -0.901  -1.019  0.00  0.00    -0.275 OA
ATOM     26  N   UNL     1      -2.103  -0.575   1.169  0.00  0.00    -0.311 N 
ATOM     27  H   UNL     1      -1.691  -0.275   1.994  0.00  0.00    +0.149 HD
BRANCH  26  28
ATOM     28  C   UNL     1      -3.478  -1.082   1.179  0.00  0.00    +0.131 C 
BRANCH  28  29
ATOM     29  C   UNL     1      -4.021  -1.032   2.584  0.00  0.00    -0.016 C 
ATOM     30  C   UNL     1      -5.140  -0.397   2.831  0.00  0.00    +0.005 C 
ENDBRANCH  28  29
ENDBRANCH  26  28
ENDBRANCH  23  24
ENDBRANCH  21  23
ENDBRANCH   1  21
TORSDOF 8
