REMARK  Name = ZINC39911667
REMARK  16 active torsions:
REMARK  status: ('A' for Active; 'I' for Inactive)
REMARK    1  A    between atoms: C_1  and  C_2
REMARK    2  A    between atoms: C_4  and  C_37
REMARK    3  A    between atoms: C_5  and  O_36
REMARK    4  A    between atoms: C_6  and  C_8
REMARK    5  A    between atoms: N_16  and  C_32
REMARK    6  A    between atoms: C_17  and  C_19
REMARK    7  A    between atoms: C_22  and  O_27
REMARK    8  A    between atoms: C_23  and  O_25
REMARK    9  A    between atoms: O_25  and  C_26
REMARK   10  A    between atoms: O_27  and  C_28
REMARK   11  A    between atoms: C_28  and  C_29
REMARK   12  A    between atoms: C_29  and  C_30
REMARK   13  A    between atoms: C_29  and  C_31
REMARK   14  A    between atoms: C_32  and  C_33
REMARK   15  A    between atoms: C_33  and  O_34
REMARK   16  A    between atoms: O_34  and  C_35
REMARK                            x       y       z     vdW  Elec       q    Type
REMARK                         _______ _______ _______ _____ _____    ______ ____
ROOT
ATOM      1  C   UNL     1       0.446  -2.605   2.344  0.00  0.00    +0.102 A 
ATOM      2  C   UNL     1       0.359  -2.183   3.675  0.00  0.00    +0.035 A 
ATOM      3  C   UNL     1       0.470  -3.328   4.440  0.00  0.00    +0.126 A 
ATOM      4  N   UNL     1       0.614  -4.361   3.559  0.00  0.00    -0.272 N 
ATOM      5  H   UNL     1       0.715  -5.294   3.805  0.00  0.00    +0.189 HD
ATOM      6  N   UNL     1       0.592  -3.915   2.353  0.00  0.00    -0.173 NA
ATOM      7  C   UNL     1       0.386  -2.953   5.856  0.00  0.00    +0.266 C 
ATOM      8  O   UNL     1       0.451  -3.733   6.787  0.00  0.00    -0.268 OA
ATOM      9  N   UNL     1       0.229  -1.622   5.980  0.00  0.00    -0.283 N 
ATOM     10  C   UNL     1       0.199  -1.035   4.634  0.00  0.00    +0.141 C 
ENDROOT
BRANCH   1  16
ATOM     11  C   UNL     1       0.287   1.951   0.307  0.00  0.00    +0.044 C 
ATOM     12  C   UNL     1       0.302   0.451   0.158  0.00  0.00    -0.049 A 
ATOM     13  C   UNL     1       0.252  -0.116  -1.104  0.00  0.00    +0.010 A 
ATOM     14  C   UNL     1       0.265  -1.490  -1.251  0.00  0.00    -0.008 A 
ATOM     15  C   UNL     1       0.328  -2.307  -0.134  0.00  0.00    +0.129 A 
ATOM     16  C   UNL     1       0.379  -1.737   1.141  0.00  0.00    +0.044 A 
ATOM     17  C   UNL     1       0.371  -0.351   1.278  0.00  0.00    +0.017 A 
ATOM     18  C   UNL     1       0.211  -2.100  -2.628  0.00  0.00    +0.047 C 
BRANCH  15  19
ATOM     19  O   UNL     1       0.340  -3.658  -0.277  0.00  0.00    -0.506 OA
ATOM     20  H   UNL     1       1.226  -4.037  -0.359  0.00  0.00    +0.292 HD
ENDBRANCH  15  19
ENDBRANCH   1  16
BRANCH  10  21
ATOM     21  C   UNL     1      -1.119  -0.343   4.399  0.00  0.00    -0.019 A 
ATOM     22  C   UNL     1      -1.145   0.908   3.811  0.00  0.00    +0.009 A 
ATOM     23  C   UNL     1      -2.352   1.547   3.593  0.00  0.00    +0.050 A 
ATOM     24  C   UNL     1      -3.538   0.934   3.964  0.00  0.00    +0.162 A 
ATOM     25  C   UNL     1      -3.511  -0.326   4.555  0.00  0.00    +0.162 A 
ATOM     26  C   UNL     1      -2.299  -0.963   4.766  0.00  0.00    +0.055 A 
BRANCH  25  27
ATOM     27  O   UNL     1      -4.672  -0.932   4.920  0.00  0.00    -0.491 OA
ATOM     28  C   UNL     1      -4.579  -2.271   5.409  0.00  0.00    +0.277 C 
ENDBRANCH  25  27
BRANCH  24  29
ATOM     29  O   UNL     1      -4.725   1.562   3.750  0.00  0.00    -0.488 OA
BRANCH  29  30
ATOM     30  C   UNL     1      -4.676   2.853   3.140  0.00  0.00    +0.232 C 
BRANCH  30  31
ATOM     31  C   UNL     1      -6.097   3.396   2.982  0.00  0.00    +0.020 C 
ATOM     32  C   UNL     1      -6.712   3.626   4.364  0.00  0.00    +0.010 C 
ATOM     33  C   UNL     1      -6.055   4.721   2.217  0.00  0.00    +0.010 C 
ENDBRANCH  30  31
ENDBRANCH  29  30
ENDBRANCH  24  29
ENDBRANCH  10  21
BRANCH   9  34
ATOM     34  C   UNL     1       0.109  -0.886   7.240  0.00  0.00    +0.137 C 
BRANCH  34  35
ATOM     35  C   UNL     1       1.499  -0.463   7.719  0.00  0.00    +0.178 C 
BRANCH  35  36
ATOM     36  O   UNL     1       2.061   0.466   6.790  0.00  0.00    -0.381 OA
ATOM     37  C   UNL     1       3.366   0.926   7.145  0.00  0.00    +0.194 C 
ENDBRANCH  35  36
ENDBRANCH  34  35
ENDBRANCH   9  34
TORSDOF 10
