REMARK  Name = ZINC00715324
REMARK  6 active torsions:
REMARK  status: ('A' for Active; 'I' for Inactive)
REMARK    1  A    between atoms: C_4  and  C_7
REMARK    2  A    between atoms: C_7  and  C_8
REMARK    3  A    between atoms: C_8  and  C_10
REMARK    4  A    between atoms: C_8  and  N_22
REMARK    5  A    between atoms: N_12  and  C_13
REMARK    6  A    between atoms: C_17  and  N_19
REMARK                            x       y       z     vdW  Elec       q    Type
REMARK                         _______ _______ _______ _____ _____    ______ ____
ROOT
ATOM      1  C   UNL     1       1.059   7.433   0.242  0.00  0.00    +0.175 C 
ENDROOT
BRANCH   1   2
ATOM      2  N   UNL     1       2.332   7.901   0.796  0.00  0.00    -0.222 N 
ATOM      3  C   UNL     1       3.532   7.693   0.226  0.00  0.00    +0.255 C 
ATOM      4  O   UNL     1       3.729   7.097  -0.814  0.00  0.00    -0.270 OA
ATOM      5  C   UNL     1       4.571   8.314   1.075  0.00  0.00    +0.049 A 
ATOM      6  C   UNL     1       5.950   8.421   0.994  0.00  0.00    +0.014 A 
ATOM      7  C   UNL     1       6.647   9.085   1.992  0.00  0.00    +0.001 A 
ATOM      8  C   UNL     1       5.976   9.641   3.064  0.00  0.00    +0.001 A 
ATOM      9  C   UNL     1       4.596   9.542   3.158  0.00  0.00    +0.014 A 
ATOM     10  C   UNL     1       3.886   8.881   2.168  0.00  0.00    +0.049 A 
ATOM     11  C   UNL     1       2.454   8.590   1.944  0.00  0.00    +0.255 C 
ATOM     12  O   UNL     1       1.542   8.919   2.675  0.00  0.00    -0.270 OA
ENDBRANCH   1   2
BRANCH   1  13
ATOM     13  C   UNL     1       1.085   5.931   0.122  0.00  0.00    +0.239 C 
ATOM     14  O   UNL     1       2.146   5.342   0.109  0.00  0.00    -0.273 OA
ATOM     15  N   UNL     1      -0.069   5.242   0.028  0.00  0.00    -0.284 N 
ATOM     16  H   UNL     1      -0.913   5.715  -0.039  0.00  0.00    +0.155 HD
BRANCH  15  17
ATOM     17  C   UNL     1      -0.051   3.842   0.028  0.00  0.00    +0.036 A 
ATOM     18  C   UNL     1       0.907   3.159   0.765  0.00  0.00    +0.023 A 
ATOM     19  C   UNL     1       0.923   1.778   0.762  0.00  0.00    +0.004 A 
ATOM     20  C   UNL     1      -0.013   1.076   0.025  0.00  0.00    +0.033 A 
ATOM     21  C   UNL     1      -0.965   1.753  -0.714  0.00  0.00    +0.128 A 
ATOM     22  C   UNL     1      -0.990   3.134  -0.711  0.00  0.00    +0.056 A 
BRANCH  21  23
ATOM     23  N   UNL     1      -1.961   0.998  -1.506  0.00  0.00    +0.056 N 
ATOM     24  O   UNL     1      -1.943  -0.220  -1.506  0.00  0.00    -0.126 OA
ATOM     25  O   UNL     1      -2.800   1.594  -2.157  0.00  0.00    -0.126 OA
ENDBRANCH  21  23
ENDBRANCH  15  17
ENDBRANCH   1  13
BRANCH   1  26
ATOM     26  C   UNL     1       0.846   8.051  -1.141  0.00  0.00    +0.067 C 
BRANCH  26  30
ATOM     27  C   UNL     1       0.422  12.285  -0.758  0.00  0.00    +0.000 A 
ATOM     28  C   UNL     1       1.674  11.729  -0.944  0.00  0.00    +0.000 A 
ATOM     29  C   UNL     1       1.811  10.360  -1.068  0.00  0.00    +0.004 A 
ATOM     30  C   UNL     1       0.696   9.545  -1.006  0.00  0.00    -0.045 A 
ATOM     31  C   UNL     1      -0.556  10.101  -0.825  0.00  0.00    +0.004 A 
ATOM     32  C   UNL     1      -0.693  11.470  -0.696  0.00  0.00    +0.000 A 
ENDBRANCH  26  30
ENDBRANCH   1  26
TORSDOF 6
