REMARK  Name = ZINC58614324
REMARK  9 active torsions:
REMARK  status: ('A' for Active; 'I' for Inactive)
REMARK    1  A    between atoms: C_7  and  C_33
REMARK    2  A    between atoms: N_9  and  C_12
REMARK    3  A    between atoms: C_12  and  C_13
REMARK    4  A    between atoms: C_13  and  C_15
REMARK    5  A    between atoms: C_13  and  O_32
REMARK    6  A    between atoms: C_15  and  O_16
REMARK    7  A    between atoms: O_16  and  C_17
REMARK    8  A    between atoms: C_17  and  C_18
REMARK    9  A    between atoms: C_17  and  C_25
REMARK                            x       y       z     vdW  Elec       q    Type
REMARK                         _______ _______ _______ _____ _____    ______ ____
ROOT
ATOM      1  C   UNL     1       5.323  -3.065   1.379  0.00  0.00    +0.161 C 
ENDROOT
BRANCH   1   2
ATOM      2  O   UNL     1       5.523  -1.823   2.057  0.00  0.00    -0.388 OA
ATOM      3  H   UNL     1       6.192  -1.256   1.650  0.00  0.00    +0.210 HD
ENDBRANCH   1   2
BRANCH   1   4
ATOM      4  C   UNL     1       4.873  -2.794  -0.058  0.00  0.00    +0.181 C 
BRANCH   4  13
ATOM      5  C   UNL     1      -0.017   1.375   0.010  0.00  0.00    +0.001 A 
ATOM      6  C   UNL     1       1.167   2.102   0.002  0.00  0.00    +0.001 A 
ATOM      7  C   UNL     1       2.387   1.461  -0.013  0.00  0.00    +0.014 A 
ATOM      8  C   UNL     1       2.428   0.071  -0.021  0.00  0.00    +0.050 A 
ATOM      9  C   UNL     1       1.223  -0.670  -0.013  0.00  0.00    +0.020 A 
ATOM     10  C   UNL     1       0.002  -0.004   0.002  0.00  0.00    +0.011 A 
ATOM     11  C   UNL     1       1.330  -2.138  -0.021  0.00  0.00    +0.153 A 
ATOM     12  N   UNL     1       2.518  -2.692  -0.035  0.00  0.00    -0.163 NA
ATOM     13  N   UNL     1       3.618  -2.039  -0.042  0.00  0.00    -0.226 N 
ATOM     14  C   UNL     1       3.684  -0.692  -0.036  0.00  0.00    +0.275 A 
ATOM     15  O   UNL     1       4.759  -0.121  -0.043  0.00  0.00    -0.266 OA
BRANCH  11  16
ATOM     16  C   UNL     1       0.115  -2.976  -0.014  0.00  0.00    +0.262 C 
ATOM     17  O   UNL     1      -0.983  -2.454  -0.001  0.00  0.00    -0.269 OA
ATOM     18  N   UNL     1       0.222  -4.319  -0.022  0.00  0.00    -0.324 N 
ATOM     19  H   UNL     1       1.098  -4.736  -0.032  0.00  0.00    +0.145 HD
ATOM     20  H   UNL     1      -0.577  -4.870  -0.017  0.00  0.00    +0.145 HD
ENDBRANCH  11  16
ENDBRANCH   4  13
ENDBRANCH   1   4
BRANCH   1  21
ATOM     21  C   UNL     1       6.634  -3.853   1.363  0.00  0.00    +0.194 C 
BRANCH  21  22
ATOM     22  O   UNL     1       6.994  -4.207   2.700  0.00  0.00    -0.365 OA
BRANCH  22  23
ATOM     23  C   UNL     1       8.210  -4.950   2.797  0.00  0.00    +0.178 C 
BRANCH  23  24
ATOM     24  C   UNL     1       8.877  -4.653   4.116  0.00  0.00    -0.014 A 
ATOM     25  C   UNL     1       8.115  -4.536   5.264  0.00  0.00    +0.009 A 
ATOM     26  C   UNL     1       8.725  -4.264   6.474  0.00  0.00    +0.039 A 
ATOM     27  C   UNL     1      10.099  -4.109   6.536  0.00  0.00    +0.123 A 
ATOM     28  C   UNL     1      10.861  -4.226   5.386  0.00  0.00    +0.039 A 
ATOM     29  C   UNL     1      10.250  -4.503   4.178  0.00  0.00    +0.009 A 
ATOM     30  F   UNL     1      10.697  -3.842   7.718  0.00  0.00    -0.205 F 
ENDBRANCH  23  24
BRANCH  23  31
ATOM     31  C   UNL     1       7.907  -6.423   2.708  0.00  0.00    -0.014 A 
ATOM     32  C   UNL     1       6.739  -6.922   3.254  0.00  0.00    +0.009 A 
ATOM     33  C   UNL     1       6.459  -8.273   3.173  0.00  0.00    +0.039 A 
ATOM     34  C   UNL     1       7.350  -9.127   2.545  0.00  0.00    +0.123 A 
ATOM     35  C   UNL     1       8.520  -8.627   1.998  0.00  0.00    +0.039 A 
ATOM     36  C   UNL     1       8.794  -7.274   2.076  0.00  0.00    +0.009 A 
ATOM     37  F   UNL     1       7.078 -10.448   2.465  0.00  0.00    -0.205 F 
ENDBRANCH  23  31
ENDBRANCH  22  23
ENDBRANCH  21  22
ENDBRANCH   1  21
TORSDOF 9
