REMARK  Name = ZINC22097543
REMARK  10 active torsions:
REMARK  status: ('A' for Active; 'I' for Inactive)
REMARK    1  A    between atoms: C_1  and  C_2
REMARK    2  A    between atoms: C_6  and  N_9
REMARK    3  A    between atoms: C_7  and  C_8
REMARK    4  A    between atoms: C_11  and  C_16
REMARK    5  A    between atoms: C_16  and  O_18
REMARK    6  A    between atoms: O_18  and  C_19
REMARK    7  A    between atoms: C_19  and  C_21
REMARK    8  A    between atoms: C_19  and  C_22
REMARK    9  A    between atoms: N_24  and  C_25
REMARK   10  A    between atoms: C_30  and  N_31
REMARK                            x       y       z     vdW  Elec       q    Type
REMARK                         _______ _______ _______ _____ _____    ______ ____
ROOT
ATOM      1  C   UNL     1      -1.467  -4.742   5.122  0.00  0.00    +0.313 C 
ATOM      2  O   UNL     1      -2.314  -5.292   4.460  0.00  0.00    -0.250 OA
ENDROOT
BRANCH   1   5
ATOM      3  N   UNL     1      -0.027  -2.773   2.409  0.00  0.00    -0.270 N 
ATOM      4  C   UNL     1      -1.220  -3.215   3.140  0.00  0.00    +0.128 C 
ATOM      5  C   UNL     1      -0.730  -3.551   4.566  0.00  0.00    +0.124 C 
ATOM      6  C   UNL     1       0.759  -3.888   4.316  0.00  0.00    +0.112 C 
ATOM      7  C   UNL     1       1.099  -3.147   3.041  0.00  0.00    +0.221 C 
ATOM      8  O   UNL     1       2.224  -2.921   2.648  0.00  0.00    -0.275 OA
BRANCH   3  14
ATOM      9  C   UNL     1      -0.121   1.539   0.048  0.00  0.00    +0.044 C 
ATOM     10  C   UNL     1      -0.103   0.032   0.033  0.00  0.00    -0.046 A 
ATOM     11  C   UNL     1      -0.117  -0.647  -1.173  0.00  0.00    +0.004 A 
ATOM     12  C   UNL     1      -0.100  -2.029  -1.191  0.00  0.00    +0.002 A 
ATOM     13  C   UNL     1      -0.070  -2.737  -0.005  0.00  0.00    +0.024 A 
ATOM     14  C   UNL     1      -0.057  -2.059   1.206  0.00  0.00    +0.039 A 
ATOM     15  C   UNL     1      -0.068  -0.670   1.221  0.00  0.00    -0.026 A 
ATOM     16  C   UNL     1      -0.047   0.070   2.534  0.00  0.00    +0.046 C 
ENDBRANCH   3  14
ENDBRANCH   1   5
BRANCH   1  17
ATOM     17  O   UNL     1      -1.182  -5.191   6.355  0.00  0.00    -0.452 OA
BRANCH  17  18
ATOM     18  C   UNL     1      -1.919  -6.324   6.819  0.00  0.00    +0.259 C 
ATOM     19  C   UNL     1      -3.184  -5.850   7.536  0.00  0.00    +0.062 C 
BRANCH  18  20
ATOM     20  C   UNL     1      -1.068  -7.120   7.774  0.00  0.00    +0.258 C 
ATOM     21  O   UNL     1       0.024  -6.707   8.103  0.00  0.00    -0.271 OA
ATOM     22  N   UNL     1      -1.520  -8.292   8.263  0.00  0.00    -0.281 N 
ATOM     23  H   UNL     1      -2.418  -8.591   8.052  0.00  0.00    +0.155 HD
BRANCH  22  24
ATOM     24  C   UNL     1      -0.694  -9.076   9.076  0.00  0.00    +0.064 A 
ATOM     25  C   UNL     1       0.191  -8.471   9.959  0.00  0.00    +0.025 A 
ATOM     26  C   UNL     1       1.005  -9.248  10.759  0.00  0.00    +0.002 A 
ATOM     27  C   UNL     1       0.940 -10.627  10.682  0.00  0.00    +0.002 A 
ATOM     28  C   UNL     1       0.061 -11.233   9.803  0.00  0.00    +0.034 A 
ATOM     29  C   UNL     1      -0.760 -10.461   9.005  0.00  0.00    +0.147 A 
BRANCH  29  30
ATOM     30  N   UNL     1      -1.706 -11.111   8.069  0.00  0.00    +0.058 N 
ATOM     31  O   UNL     1      -1.834 -12.313   8.076  0.00  0.00    -0.126 OA
ATOM     32  O   UNL     1      -2.351 -10.438   7.298  0.00  0.00    -0.126 OA
ENDBRANCH  29  30
ENDBRANCH  22  24
ENDBRANCH  18  20
ENDBRANCH  17  18
ENDBRANCH   1  17
TORSDOF 7
