REMARK  Name = ZINC45680470
REMARK  8 active torsions:
REMARK  status: ('A' for Active; 'I' for Inactive)
REMARK    1  A    between atoms: C_1  and  C_2
REMARK    2  A    between atoms: C_4  and  C_16
REMARK    3  A    between atoms: C_6  and  C_11
REMARK    4  A    between atoms: C_16  and  O_18
REMARK    5  A    between atoms: O_18  and  C_19
REMARK    6  A    between atoms: C_19  and  C_20
REMARK    7  A    between atoms: N_22  and  C_23
REMARK    8  A    between atoms: C_24  and  C_32
REMARK                            x       y       z     vdW  Elec       q    Type
REMARK                         _______ _______ _______ _____ _____    ______ ____
ROOT
ATOM      1  C   UNL     1      -0.536   2.259  -4.986  0.00  0.00    +0.328 C 
ENDROOT
BRANCH   1   2
ATOM      2  C   UNL     1      -0.793   2.276  -6.470  0.00  0.00    +0.255 C 
ATOM      3  O   UNL     1      -0.921   1.233  -7.076  0.00  0.00    -0.272 OA
ATOM      4  N   UNL     1      -0.880   3.451  -7.126  0.00  0.00    -0.277 N 
ATOM      5  H   UNL     1      -0.777   4.285  -6.642  0.00  0.00    +0.155 HD
BRANCH   4   6
ATOM      6  C   UNL     1      -1.116   3.467  -8.492  0.00  0.00    +0.084 A 
ATOM      7  C   UNL     1      -1.230   4.569  -9.324  0.00  0.00    +0.068 A 
ATOM      8  C   UNL     1      -1.481   4.315 -10.732  0.00  0.00    -0.023 A 
ATOM      9  C   UNL     1      -1.573   3.005 -11.050  0.00  0.00    -0.004 A 
ATOM     10  S   UNL     1      -1.323   2.154  -9.519  0.00  0.00    -0.077 S 
ATOM     11  C   UNL     1      -1.826   2.424 -12.406  0.00  0.00    +0.043 C 
ATOM     12  C   UNL     1      -2.342   3.544 -13.322  0.00  0.00    +0.005 C 
ATOM     13  C   UNL     1      -1.432   4.767 -13.170  0.00  0.00    +0.005 C 
ATOM     14  C   UNL     1      -1.633   5.397 -11.791  0.00  0.00    +0.037 C 
BRANCH   7  15
ATOM     15  C   UNL     1      -1.103   5.934  -8.806  0.00  0.00    +0.244 C 
ATOM     16  O   UNL     1      -0.011   6.473  -8.770  0.00  0.00    -0.270 OA
ATOM     17  N   UNL     1      -2.193   6.593  -8.368  0.00  0.00    -0.325 N 
ATOM     18  H   UNL     1      -3.063   6.165  -8.396  0.00  0.00    +0.145 HD
ATOM     19  H   UNL     1      -2.109   7.497  -8.024  0.00  0.00    +0.145 HD
ENDBRANCH   7  15
ENDBRANCH   4   6
ENDBRANCH   1   2
BRANCH   1  20
ATOM     20  O   UNL     1      -0.487   0.907  -4.526  0.00  0.00    -0.452 OA
BRANCH  20  21
ATOM     21  C   UNL     1      -0.264   0.715  -3.212  0.00  0.00    +0.341 C 
ATOM     22  O   UNL     1      -0.115   1.670  -2.476  0.00  0.00    -0.245 OA
BRANCH  21  26
ATOM     23  C   UNL     1      -1.623   1.324  -0.388  0.00  0.00    +0.070 C 
ATOM     24  C   UNL     1      -1.327  -0.152  -0.328  0.00  0.00    +0.091 A 
ATOM     25  C   UNL     1      -0.696  -0.951  -1.376  0.00  0.00    +0.077 A 
ATOM     26  C   UNL     1      -0.200  -0.657  -2.665  0.00  0.00    +0.075 A 
ATOM     27  C   UNL     1       0.350  -1.699  -3.405  0.00  0.00    +0.044 A 
ATOM     28  C   UNL     1       0.389  -2.983  -2.847  0.00  0.00    +0.082 A 
ATOM     29  N   UNL     1      -0.086  -3.223  -1.633  0.00  0.00    -0.209 NA
ATOM     30  C   UNL     1      -0.619  -2.267  -0.888  0.00  0.00    +0.260 A 
ATOM     31  O   UNL     1      -1.158  -2.259   0.348  0.00  0.00    -0.334 OA
ATOM     32  N   UNL     1      -1.579  -0.948   0.667  0.00  0.00    -0.080 NA
BRANCH  28  33
ATOM     33  C   UNL     1       0.971  -4.092  -3.627  0.00  0.00    +0.038 A 
ATOM     34  C   UNL     1       1.105  -5.413  -3.284  0.00  0.00    +0.017 A 
ATOM     35  C   UNL     1       1.685  -6.274  -4.186  0.00  0.00    +0.008 A 
ATOM     36  C   UNL     1       2.107  -5.793  -5.385  0.00  0.00    +0.046 A 
ATOM     37  S   UNL     1       1.676  -4.064  -5.267  0.00  0.00    -0.095 S 
ENDBRANCH  28  33
ENDBRANCH  21  26
ENDBRANCH  20  21
ENDBRANCH   1  20
TORSDOF 7
