REMARK  Name = ZINC08914499
REMARK  13 active torsions:
REMARK  status: ('A' for Active; 'I' for Inactive)
REMARK    1  A    between atoms: C_1  and  C_2
REMARK    2  A    between atoms: C_13  and  C_14
REMARK    3  A    between atoms: C_13  and  O_15
REMARK    4  A    between atoms: N_21  and  O_22
REMARK    5  A    between atoms: O_22  and  C_23
REMARK    6  A    between atoms: C_23  and  C_24
REMARK    7  A    between atoms: N_26  and  C_27
REMARK    8  A    between atoms: C_27  and  C_29
REMARK    9  A    between atoms: C_27  and  C_36
REMARK   10  A    between atoms: C_29  and  C_30
REMARK   11  A    between atoms: C_36  and  O_38
REMARK   12  A    between atoms: O_38  and  C_39
REMARK   13  A    between atoms: C_42  and  C_43
REMARK                            x       y       z     vdW  Elec       q    Type
REMARK                         _______ _______ _______ _____ _____    ______ ____
ROOT
ATOM      1  C   UNL     1       4.329   1.801  -1.019  0.00  0.00    +0.014 C 
ATOM      2  C   UNL     1       4.560   1.302   0.407  0.00  0.00    -0.000 C 
ATOM      3  C   UNL     1       4.466  -0.204   0.456  0.00  0.00    +0.010 C 
ATOM      4  C   UNL     1       3.003  -0.619   0.229  0.00  0.00    +0.005 C 
ATOM      5  C   UNL     1       2.102  -0.009   1.297  0.00  0.00    +0.006 C 
ATOM      6  C   UNL     1       2.168   1.523   1.273  0.00  0.00    -0.003 C 
ATOM      7  C   UNL     1       3.603   1.928   1.438  0.00  0.00    +0.001 C 
ATOM      8  C   UNL     1       3.969   3.413   1.339  0.00  0.00    +0.007 C 
ATOM      9  C   UNL     1       5.524   3.362   1.270  0.00  0.00    +0.035 C 
ATOM     10  C   UNL     1       5.898   1.911   0.871  0.00  0.00    +0.069 C 
ATOM     11  C   UNL     1       6.896   1.913  -0.284  0.00  0.00    +0.042 C 
ATOM     12  C   UNL     1       1.484   2.097   0.042  0.00  0.00    +0.008 C 
ATOM     13  C   UNL     1      -0.010   1.720   0.081  0.00  0.00    +0.032 C 
ATOM     14  C   UNL     1      -0.058   0.202   0.084  0.00  0.00    -0.058 C 
ATOM     15  C   UNL     1      -0.733  -0.415  -0.870  0.00  0.00    +0.031 C 
ATOM     16  C   UNL     1      -0.781  -1.890  -0.920  0.00  0.00    +0.102 C 
ATOM     17  N   UNL     1      -1.480  -2.507  -1.833  0.00  0.00    -0.085 NA
ATOM     18  C   UNL     1      -0.013  -2.650   0.089  0.00  0.00    +0.027 C 
ATOM     19  C   UNL     1       0.651  -2.006   1.029  0.00  0.00    -0.014 C 
ATOM     20  C   UNL     1       0.673  -0.519   1.175  0.00  0.00    +0.011 C 
ATOM     21  C   UNL     1      -0.048  -0.208   2.494  0.00  0.00    +0.020 C 
ENDROOT
BRANCH  10  22
ATOM     22  O   UNL     1       6.407   1.192   1.988  0.00  0.00    -0.388 OA
ATOM     23  H   UNL     1       7.248   1.530   2.324  0.00  0.00    +0.210 HD
ENDBRANCH  10  22
BRANCH  17  24
ATOM     24  O   UNL     1      -2.209  -1.762  -2.791  0.00  0.00    -0.384 OA
BRANCH  24  25
ATOM     25  C   UNL     1      -2.929  -2.566  -3.728  0.00  0.00    +0.358 C 
BRANCH  25  26
ATOM     26  C   UNL     1      -3.663  -1.674  -4.696  0.00  0.00    +0.254 C 
ATOM     27  O   UNL     1      -3.579  -0.469  -4.592  0.00  0.00    -0.272 OA
ATOM     28  N   UNL     1      -4.414  -2.216  -5.675  0.00  0.00    -0.299 N 
ATOM     29  H   UNL     1      -4.481  -3.180  -5.757  0.00  0.00    +0.150 HD
BRANCH  28  30
ATOM     30  C   UNL     1      -5.128  -1.349  -6.615  0.00  0.00    +0.188 C 
BRANCH  30  31
ATOM     31  C   UNL     1      -6.453  -0.947  -6.021  0.00  0.00    +0.328 C 
ATOM     32  O   UNL     1      -6.769  -1.344  -4.924  0.00  0.00    -0.249 OA
BRANCH  31  33
ATOM     33  O   UNL     1      -7.283  -0.147  -6.709  0.00  0.00    -0.467 OA
ATOM     34  C   UNL     1      -8.542   0.199  -6.074  0.00  0.00    +0.280 C 
ENDBRANCH  31  33
ENDBRANCH  30  31
BRANCH  30  35
ATOM     35  C   UNL     1      -5.365  -2.103  -7.925  0.00  0.00    +0.088 C 
BRANCH  35  36
ATOM     36  C   UNL     1      -4.041  -2.397  -8.582  0.00  0.00    +0.038 A 
ATOM     37  C   UNL     1      -3.237  -3.449  -8.332  0.00  0.00    +0.133 A 
ATOM     38  N   UNL     1      -2.159  -3.344  -9.123  0.00  0.00    -0.244 NA
ATOM     39  C   UNL     1      -2.265  -2.269  -9.854  0.00  0.00    +0.196 A 
ATOM     40  N   UNL     1      -3.427  -1.651  -9.551  0.00  0.00    -0.348 N 
ATOM     41  H   UNL     1      -3.774  -0.807  -9.959  0.00  0.00    +0.166 HD
ENDBRANCH  35  36
ENDBRANCH  30  35
ENDBRANCH  28  30
ENDBRANCH  25  26
ENDBRANCH  24  25
ENDBRANCH  17  24
TORSDOF 9
