REMARK  Name = ZINC08306164
REMARK  6 active torsions:
REMARK  status: ('A' for Active; 'I' for Inactive)
REMARK    1  A    between atoms: C_1  and  C_2
REMARK    2  A    between atoms: C_2  and  C_4
REMARK    3  A    between atoms: C_2  and  N_11
REMARK    4  A    between atoms: C_12  and  C_14
REMARK    5  A    between atoms: C_14  and  N_15
REMARK    6  A    between atoms: C_19  and  N_25
REMARK                            x       y       z     vdW  Elec       q    Type
REMARK                         _______ _______ _______ _____ _____    ______ ____
ROOT
ATOM      1  C   UNL     1       1.280   1.980   0.001  0.00  0.00    +0.224 C 
ENDROOT
BRANCH   1   2
ATOM      2  N   UNL     1       2.407   1.043  -0.015  0.00  0.00    -0.265 N 
ATOM      3  C   UNL     1       3.055   0.514   1.100  0.00  0.00    +0.091 A 
ATOM      4  C   UNL     1       2.881   0.672   2.466  0.00  0.00    +0.032 A 
ATOM      5  C   UNL     1       3.704  -0.003   3.347  0.00  0.00    +0.035 A 
ATOM      6  C   UNL     1       4.700  -0.836   2.868  0.00  0.00    +0.130 A 
ATOM      7  C   UNL     1       4.874  -1.006   1.508  0.00  0.00    +0.081 A 
ATOM      8  C   UNL     1       4.056  -0.328   0.617  0.00  0.00    +0.159 A 
ATOM      9  O   UNL     1       4.001  -0.284  -0.737  0.00  0.00    -0.407 OA
ATOM     10  C   UNL     1       3.009   0.540  -1.111  0.00  0.00    +0.422 A 
ATOM     11  O   UNL     1       2.702   0.792  -2.260  0.00  0.00    -0.223 OA
BRANCH   6  12
ATOM     12  N   UNL     1       5.577  -1.556   3.818  0.00  0.00    +0.057 N 
ATOM     13  O   UNL     1       5.421  -1.415   5.018  0.00  0.00    -0.126 OA
ATOM     14  O   UNL     1       6.455  -2.290   3.400  0.00  0.00    -0.126 OA
ENDBRANCH   6  12
ENDBRANCH   1   2
BRANCH   1  16
ATOM     15  N   UNL     1      -1.191   1.867   0.018  0.00  0.00    -0.307 N 
ATOM     16  C   UNL     1      -0.014   1.209   0.009  0.00  0.00    +0.233 C 
ATOM     17  O   UNL     1       0.002  -0.004   0.002  0.00  0.00    -0.274 OA
ATOM     18  H   UNL     1      -1.204   2.837   0.023  0.00  0.00    +0.149 HD
BRANCH  15  20
ATOM     19  C   UNL     1      -2.816   0.740   1.456  0.00  0.00    +0.033 C 
ATOM     20  C   UNL     1      -2.449   1.117   0.020  0.00  0.00    +0.100 C 
BRANCH  20  21
ATOM     21  C   UNL     1      -3.543   1.969  -0.571  0.00  0.00    -0.027 A 
ATOM     22  C   UNL     1      -3.610   3.316  -0.266  0.00  0.00    +0.007 A 
ATOM     23  C   UNL     1      -4.609   4.100  -0.812  0.00  0.00    +0.020 A 
ATOM     24  C   UNL     1      -5.549   3.534  -1.655  0.00  0.00    +0.041 A 
ATOM     25  C   UNL     1      -5.484   2.185  -1.955  0.00  0.00    +0.020 A 
ATOM     26  C   UNL     1      -4.481   1.403  -1.413  0.00  0.00    +0.007 A 
ATOM     27 CL   UNL     1      -6.809   4.516  -2.335  0.00  0.00    -0.084 Cl
ENDBRANCH  20  21
ENDBRANCH  15  20
ENDBRANCH   1  16
TORSDOF 5
