REMARK  Name = ZINC45869892
REMARK  11 active torsions:
REMARK  status: ('A' for Active; 'I' for Inactive)
REMARK    1  A    between atoms: C_1  and  C_2
REMARK    2  A    between atoms: C_2  and  C_4
REMARK    3  A    between atoms: C_2  and  O_25
REMARK    4  A    between atoms: N_6  and  N_7
REMARK    5  A    between atoms: C_8  and  C_10
REMARK    6  A    between atoms: C_10  and  C_12
REMARK    7  A    between atoms: C_10  and  N_15
REMARK    8  A    between atoms: C_12  and  C_13
REMARK    9  A    between atoms: C_12  and  C_14
REMARK   10  A    between atoms: C_16  and  C_18
REMARK   11  A    between atoms: O_25  and  C_26
REMARK                            x       y       z     vdW  Elec       q    Type
REMARK                         _______ _______ _______ _____ _____    ______ ____
ROOT
ATOM      1  N   UNL     1       2.505  -0.252  -2.807  0.00  0.00    -0.233 N 
ATOM      2  C   UNL     1       3.806   0.031  -3.017  0.00  0.00    +0.250 C 
ATOM      3  O   UNL     1       4.476   0.504  -2.124  0.00  0.00    -0.272 OA
ATOM      4  H   UNL     1       1.969  -0.629  -3.521  0.00  0.00    +0.173 HD
ENDROOT
BRANCH   1   7
ATOM      5  C   UNL     1       0.626  -0.283  -1.345  0.00  0.00    +0.270 C 
ATOM      6  O   UNL     1      -0.044  -0.755  -2.238  0.00  0.00    -0.270 OA
ATOM      7  N   UNL     1       1.927   0.000  -1.555  0.00  0.00    -0.231 N 
ATOM      8  H   UNL     1       2.463   0.378  -0.841  0.00  0.00    +0.173 HD
BRANCH   5  10
ATOM      9  C   UNL     1       0.004   1.495   0.269  0.00  0.00    +0.062 C 
ATOM     10  C   UNL     1       0.005  -0.012   0.001  0.00  0.00    +0.257 C 
BRANCH  10  11
ATOM     11  O   UNL     1      -1.339  -0.499   0.012  0.00  0.00    -0.480 OA
BRANCH  11  12
ATOM     12  C   UNL     1      -1.869  -0.818   1.222  0.00  0.00    +0.123 A 
ATOM     13  C   UNL     1      -3.124  -1.405   1.297  0.00  0.00    +0.046 A 
ATOM     14  C   UNL     1      -3.662  -1.729   2.527  0.00  0.00    +0.005 A 
ATOM     15  C   UNL     1      -2.951  -1.468   3.684  0.00  0.00    +0.015 A 
ATOM     16  C   UNL     1      -1.700  -0.881   3.613  0.00  0.00    +0.021 A 
ATOM     17  C   UNL     1      -1.155  -0.561   2.383  0.00  0.00    +0.061 A 
ATOM     18 BR   UNL     1      -0.732  -0.524   5.197  0.00  0.00    -0.050 Br
ENDBRANCH  11  12
ENDBRANCH  10  11
ENDBRANCH   5  10
ENDBRANCH   1   7
BRANCH   2  19
ATOM     19  C   UNL     1       4.427  -0.240  -4.363  0.00  0.00    +0.163 C 
BRANCH  19  20
ATOM     20  N   UNL     1       5.839   0.150  -4.337  0.00  0.00    -0.300 N 
ATOM     21  C   UNL     1       6.714  -0.425  -5.185  0.00  0.00    +0.247 C 
ATOM     22  O   UNL     1       6.331  -1.269  -5.972  0.00  0.00    -0.270 OA
ATOM     23  H   UNL     1       6.145   0.823  -3.708  0.00  0.00    +0.150 HD
BRANCH  21  24
ATOM     24  C   UNL     1       8.137  -0.032  -5.158  0.00  0.00    +0.072 A 
ATOM     25  C   UNL     1       8.582   0.932  -4.251  0.00  0.00    +0.016 A 
ATOM     26  C   UNL     1       9.912   1.294  -4.231  0.00  0.00    +0.001 A 
ATOM     27  C   UNL     1      10.808   0.706  -5.107  0.00  0.00    +0.003 A 
ATOM     28  C   UNL     1      10.377  -0.249  -6.008  0.00  0.00    +0.039 A 
ATOM     29  C   UNL     1       9.047  -0.627  -6.037  0.00  0.00    +0.135 A 
ATOM     30  F   UNL     1       8.628  -1.565  -6.915  0.00  0.00    -0.205 F 
ENDBRANCH  21  24
ENDBRANCH  19  20
BRANCH  19  31
ATOM     31  C   UNL     1       3.695   0.569  -5.435  0.00  0.00    +0.012 C 
ATOM     32  C   UNL     1       3.910   2.063  -5.183  0.00  0.00    +0.009 C 
ATOM     33  C   UNL     1       4.243   0.201  -6.816  0.00  0.00    +0.009 C 
ENDBRANCH  19  31
ENDBRANCH   2  19
TORSDOF 8
