REMARK  Name = ZINC05100508
REMARK  10 active torsions:
REMARK  status: ('A' for Active; 'I' for Inactive)
REMARK    1  A    between atoms: C_1  and  C_2
REMARK    2  A    between atoms: C_2  and  C_3
REMARK    3  A    between atoms: C_3  and  O_4
REMARK    4  A    between atoms: O_4  and  C_5
REMARK    5  A    between atoms: C_8  and  N_11
REMARK    6  A    between atoms: C_12  and  C_14
REMARK    7  A    between atoms: C_26  and  C_28
REMARK    8  A    between atoms: C_26  and  C_29
REMARK    9  A    between atoms: C_31  and  C_33
REMARK   10  A    between atoms: C_31  and  C_34
REMARK                            x       y       z     vdW  Elec       q    Type
REMARK                         _______ _______ _______ _____ _____    ______ ____
ROOT
ATOM      1  C   UNL     1       4.099  -6.380  -6.708  0.00  0.00    +0.238 C 
ATOM      2  C   UNL     1       5.534  -5.912  -6.651  0.00  0.00    +0.191 C 
ATOM      3  C   UNL     1       6.377  -6.599  -5.548  0.00  0.00    +0.187 C 
ATOM      4  C   UNL     1       6.080  -8.089  -5.597  0.00  0.00    +0.209 C 
ATOM      5  C   UNL     1       4.551  -8.265  -5.398  0.00  0.00    +0.286 C 
ATOM      6  O   UNL     1       3.957  -7.803  -6.586  0.00  0.00    -0.333 OA
ATOM      7  O   UNL     1       4.448  -9.653  -5.106  0.00  0.00    -0.318 OA
ATOM      8  C   UNL     1       5.702 -10.019  -4.487  0.00  0.00    +0.168 C 
ATOM      9  O   UNL     1       6.597  -8.867  -4.513  0.00  0.00    -0.338 OA
ATOM     10  C   UNL     1       5.454 -10.460  -3.043  0.00  0.00    +0.074 C 
ATOM     11  C   UNL     1       6.348 -11.164  -5.269  0.00  0.00    +0.074 C 
ATOM     12  O   UNL     1       7.728  -6.388  -6.028  0.00  0.00    -0.341 OA
ATOM     13  C   UNL     1       7.646  -6.188  -7.446  0.00  0.00    +0.166 C 
ATOM     14  O   UNL     1       6.269  -6.263  -7.837  0.00  0.00    -0.340 OA
ATOM     15  C   UNL     1       8.437  -7.283  -8.166  0.00  0.00    +0.074 C 
ATOM     16  C   UNL     1       8.226  -4.819  -7.806  0.00  0.00    +0.074 C 
ENDROOT
BRANCH   1  18
ATOM     17  N   UNL     1       3.194  -4.380  -5.569  0.00  0.00    -0.283 N 
ATOM     18  C   UNL     1       3.331  -5.721  -5.592  0.00  0.00    +0.249 C 
ATOM     19  O   UNL     1       2.837  -6.396  -4.714  0.00  0.00    -0.273 OA
ATOM     20  H   UNL     1       3.530  -3.845  -6.304  0.00  0.00    +0.155 HD
BRANCH  17  24
ATOM     21  C   UNL     1       1.323  -2.532  -2.333  0.00  0.00    +0.121 A 
ATOM     22  C   UNL     1       0.885  -3.774  -2.770  0.00  0.00    +0.047 A 
ATOM     23  C   UNL     1       1.504  -4.386  -3.841  0.00  0.00    +0.027 A 
ATOM     24  C   UNL     1       2.565  -3.759  -4.481  0.00  0.00    +0.034 A 
ATOM     25  C   UNL     1       3.002  -2.516  -4.043  0.00  0.00    +0.027 A 
ATOM     26  C   UNL     1       2.378  -1.902  -2.975  0.00  0.00    +0.047 A 
BRANCH  21  27
ATOM     27  O   UNL     1       0.712  -1.929  -1.277  0.00  0.00    -0.492 OA
BRANCH  27  28
ATOM     28  C   UNL     1      -0.368  -2.635  -0.663  0.00  0.00    +0.229 C 
BRANCH  28  30
ATOM     29  C   UNL     1      -2.081  -2.562   1.154  0.00  0.00    +0.007 C 
ATOM     30  C   UNL     1      -0.924  -1.806   0.497  0.00  0.00    +0.038 C 
ENDBRANCH  28  30
ENDBRANCH  27  28
ENDBRANCH  21  27
ENDBRANCH  17  24
ENDBRANCH   1  18
TORSDOF 5
