REMARK  Name = ZINC13447140
REMARK  7 active torsions:
REMARK  status: ('A' for Active; 'I' for Inactive)
REMARK    1  A    between atoms: C_3  and  S_9
REMARK    2  A    between atoms: C_6  and  C_7
REMARK    3  A    between atoms: S_9  and  N_12
REMARK    4  A    between atoms: C_18  and  C_20
REMARK    5  A    between atoms: C_23  and  C_25
REMARK    6  A    between atoms: C_25  and  O_26
REMARK    7  A    between atoms: O_26  and  C_27
REMARK                            x       y       z     vdW  Elec       q    Type
REMARK                         _______ _______ _______ _____ _____    ______ ____
ROOT
ATOM      1  N   UNL     1      -0.646   1.571  -1.953  0.00  0.00    -0.174 NA
ATOM      2  C   UNL     1      -1.831   0.779  -2.311  0.00  0.00    +0.128 C 
ATOM      3  C   UNL     1      -3.081   1.645  -2.079  0.00  0.00    +0.125 C 
ATOM      4  N   UNL     1      -2.876   2.947  -2.729  0.00  0.00    -0.292 N 
ATOM      5  C   UNL     1      -1.687   3.736  -2.376  0.00  0.00    +0.125 C 
ATOM      6  C   UNL     1      -0.440   2.872  -2.603  0.00  0.00    +0.128 C 
ATOM      7  C   UNL     1      -3.761   3.409  -3.634  0.00  0.00    +0.282 C 
ATOM      8  O   UNL     1      -4.666   2.693  -4.020  0.00  0.00    -0.267 OA
ENDROOT
BRANCH   7   9
ATOM      9  C   UNL     1      -3.635   4.775  -4.152  0.00  0.00    +0.190 A 
ATOM     10  C   UNL     1      -4.367   5.319  -5.169  0.00  0.00    +0.055 A 
ATOM     11  C   UNL     1      -3.917   6.638  -5.330  0.00  0.00    +0.049 A 
ATOM     12  C   UNL     1      -2.942   6.840  -4.416  0.00  0.00    +0.143 A 
ATOM     13  O   UNL     1      -2.778   5.717  -3.705  0.00  0.00    -0.452 OA
BRANCH  12  14
ATOM     14  C   UNL     1      -2.169   8.120  -4.225  0.00  0.00    +0.303 C 
BRANCH  14  15
ATOM     15  O   UNL     1      -2.845   8.947  -3.277  0.00  0.00    -0.484 OA
BRANCH  15  16
ATOM     16  C   UNL     1      -2.275  10.148  -2.989  0.00  0.00    +0.121 A 
ATOM     17  C   UNL     1      -1.088  10.518  -3.602  0.00  0.00    +0.048 A 
ATOM     18  C   UNL     1      -0.513  11.741  -3.313  0.00  0.00    +0.042 A 
ATOM     19  C   UNL     1      -1.116  12.591  -2.403  0.00  0.00    +0.124 A 
ATOM     20  C   UNL     1      -2.299  12.221  -1.785  0.00  0.00    +0.042 A 
ATOM     21  C   UNL     1      -2.878  11.001  -2.076  0.00  0.00    +0.048 A 
ATOM     22  F   UNL     1      -0.551  13.785  -2.117  0.00  0.00    -0.205 F 
ENDBRANCH  15  16
ENDBRANCH  14  15
ENDBRANCH  12  14
ENDBRANCH   7   9
BRANCH   1  23
ATOM     23  S   UNL     1       0.443   1.002  -0.843  0.00  0.00    +0.061 S 
ATOM     24  O   UNL     1       0.307  -0.412  -0.827  0.00  0.00    -0.153 OA
ATOM     25  O   UNL     1       1.679   1.645  -1.120  0.00  0.00    -0.153 OA
BRANCH  23  28
ATOM     26  C   UNL     1      -1.357   1.251   2.739  0.00  0.00    +0.017 A 
ATOM     27  C   UNL     1      -0.945   0.808   1.499  0.00  0.00    +0.029 A 
ATOM     28  C   UNL     1      -0.079   1.575   0.740  0.00  0.00    +0.106 A 
ATOM     29  C   UNL     1       0.383   2.788   1.220  0.00  0.00    +0.029 A 
ATOM     30  C   UNL     1      -0.026   3.245   2.455  0.00  0.00    +0.017 A 
ATOM     31  C   UNL     1      -0.899   2.476   3.227  0.00  0.00    +0.063 A 
BRANCH  31  32
ATOM     32  C   UNL     1      -1.337   2.957   4.553  0.00  0.00    +0.387 C 
ATOM     33  O   UNL     1      -2.097   2.285   5.222  0.00  0.00    -0.241 OA
ATOM     34  O   UNL     1      -0.894   4.139   5.021  0.00  0.00    -0.241 OA
ENDBRANCH  31  32
ENDBRANCH  23  28
ENDBRANCH   1  23
TORSDOF 7
