REMARK  Name = ZINC65567243
REMARK  13 active torsions:
REMARK  status: ('A' for Active; 'I' for Inactive)
REMARK    1  A    between atoms: C_1  and  C_2
REMARK    2  A    between atoms: C_2  and  C_3
REMARK    3  A    between atoms: C_2  and  C_4
REMARK    4  A    between atoms: C_2  and  N_5
REMARK    5  A    between atoms: N_5  and  S_6
REMARK    6  A    between atoms: S_6  and  C_9
REMARK    7  A    between atoms: C_12  and  N_18
REMARK    8  A    between atoms: C_13  and  N_15
REMARK    9  A    between atoms: C_22  and  C_25
REMARK   10  A    between atoms: C_25  and  N_26
REMARK   11  A    between atoms: N_26  and  C_27
REMARK   12  A    between atoms: N_26  and  C_28
REMARK   13  A    between atoms: C_28  and  C_29
REMARK                            x       y       z     vdW  Elec       q    Type
REMARK                         _______ _______ _______ _____ _____    ______ ____
ROOT
ATOM      1  C   UNL     1       3.613  -1.290  -0.482  0.00  0.00    +0.108 A 
ATOM      2  C   UNL     1       3.418  -0.418   0.574  0.00  0.00    +0.030 A 
ATOM      3  C   UNL     1       4.095  -0.608   1.762  0.00  0.00    +0.027 A 
ATOM      4  C   UNL     1       4.972  -1.677   1.897  0.00  0.00    +0.060 A 
ATOM      5  C   UNL     1       5.165  -2.551   0.835  0.00  0.00    +0.149 A 
ATOM      6  C   UNL     1       4.481  -2.358  -0.350  0.00  0.00    +0.063 A 
ENDROOT
BRANCH   4   7
ATOM      7  N   UNL     1       5.659  -1.872   3.097  0.00  0.00    -0.328 N 
ATOM      8  C   UNL     1       6.971  -1.248   3.319  0.00  0.00    +0.105 C 
ATOM      9  C   UNL     1       6.924  -0.454   4.628  0.00  0.00    +0.019 C 
ATOM     10  C   UNL     1       6.466  -1.374   5.762  0.00  0.00    +0.005 C 
ATOM     11  C   UNL     1       5.058  -1.894   5.462  0.00  0.00    -0.010 C 
ATOM     12  C   UNL     1       5.081  -2.700   4.165  0.00  0.00    +0.107 C 
BRANCH  11  13
ATOM     13  C   UNL     1       4.588  -2.787   6.612  0.00  0.00    -0.074 C 
BRANCH  13  14
ATOM     14  N   UNL     1       3.189  -3.178   6.388  0.00  0.00    +0.381 N 
ATOM     15  C   UNL     1       2.328  -1.993   6.490  0.00  0.00    -0.096 C 
ATOM     16  H   UNL     1       3.096  -3.583   5.468  0.00  0.00    -0.082 HD
BRANCH  14  17
ATOM     17  C   UNL     1       2.788  -4.164   7.400  0.00  0.00    -0.042 C 
BRANCH  17  18
ATOM     18  C   UNL     1       1.396  -4.656   7.098  0.00  0.00    -0.046 A 
ATOM     19  C   UNL     1       0.292  -4.005   7.627  0.00  0.00    +0.005 A 
ATOM     20  C   UNL     1      -0.970  -4.493   7.322  0.00  0.00    +0.020 A 
ATOM     21  C   UNL     1      -1.083  -5.604   6.508  0.00  0.00    +0.111 A 
ATOM     22  N   UNL     1      -0.011  -6.198   6.023  0.00  0.00    -0.263 NA
ATOM     23  C   UNL     1       1.204  -5.758   6.287  0.00  0.00    +0.112 A 
ENDBRANCH  17  18
ENDBRANCH  14  17
ENDBRANCH  13  14
ENDBRANCH  11  13
ENDBRANCH   4   7
BRANCH   1  24
ATOM     24  S   UNL     1       2.746  -1.045  -1.997  0.00  0.00    +0.059 S 
ATOM     25  O   UNL     1       3.375  -1.875  -2.963  0.00  0.00    -0.153 OA
ATOM     26  O   UNL     1       2.618   0.360  -2.167  0.00  0.00    -0.153 OA
BRANCH  24  27
ATOM     27  N   UNL     1       1.215  -1.638  -1.786  0.00  0.00    -0.185 NA
ATOM     28  H   UNL     1       0.458  -1.032  -1.767  0.00  0.00    +0.149 HD
BRANCH  27  30
ATOM     29  C   UNL     1       1.912  -3.611  -0.520  0.00  0.00    +0.029 C 
ATOM     30  C   UNL     1       1.003  -3.079  -1.630  0.00  0.00    +0.032 C 
ATOM     31  C   UNL     1       1.333  -3.789  -2.944  0.00  0.00    +0.029 C 
ATOM     32  C   UNL     1      -0.459  -3.342  -1.261  0.00  0.00    +0.029 C 
ENDBRANCH  27  30
ENDBRANCH  24  27
ENDBRANCH   1  24
BRANCH   5  33
ATOM     33  N   UNL     1       6.099  -3.691   0.973  0.00  0.00    +0.058 N 
ATOM     34  O   UNL     1       6.267  -4.451   0.049  0.00  0.00    -0.126 OA
ATOM     35  O   UNL     1       6.695  -3.861   2.012  0.00  0.00    -0.126 OA
ENDBRANCH   5  33
TORSDOF 9
