REMARK  Name = ZINC09393266
REMARK  8 active torsions:
REMARK  status: ('A' for Active; 'I' for Inactive)
REMARK    1  A    between atoms: C_1  and  N_2
REMARK    2  A    between atoms: C_3  and  C_22
REMARK    3  A    between atoms: C_6  and  S_7
REMARK    4  A    between atoms: S_7  and  C_8
REMARK    5  A    between atoms: C_8  and  C_9
REMARK    6  A    between atoms: N_11  and  C_12
REMARK    7  A    between atoms: C_17  and  N_18
REMARK    8  A    between atoms: C_22  and  C_23
REMARK                            x       y       z     vdW  Elec       q    Type
REMARK                         _______ _______ _______ _____ _____    ______ ____
ROOT
ATOM      1  C   UNL     1       2.040   5.532   5.962  0.00  0.00    +0.173 C 
ENDROOT
BRANCH   1   2
ATOM      2  C   UNL     1       2.720   5.897   7.257  0.00  0.00    +0.228 C 
ATOM      3  O   UNL     1       3.919   5.762   7.371  0.00  0.00    -0.275 OA
ATOM      4  N   UNL     1       1.994   6.373   8.288  0.00  0.00    -0.283 N 
ATOM      5  H   UNL     1       1.049   6.557   8.172  0.00  0.00    +0.155 HD
BRANCH   4   6
ATOM      6  C   UNL     1       2.604   6.602   9.527  0.00  0.00    +0.064 A 
ATOM      7  C   UNL     1       3.746   5.895   9.881  0.00  0.00    +0.027 A 
ATOM      8  C   UNL     1       4.346   6.123  11.103  0.00  0.00    +0.022 A 
ATOM      9  C   UNL     1       3.811   7.055  11.975  0.00  0.00    +0.043 A 
ATOM     10  C   UNL     1       2.674   7.761  11.625  0.00  0.00    +0.054 A 
ATOM     11  C   UNL     1       2.072   7.540  10.401  0.00  0.00    +0.149 A 
ATOM     12 CL   UNL     1       4.568   7.339  13.511  0.00  0.00    -0.083 Cl
BRANCH  11  13
ATOM     13  N   UNL     1       0.859   8.300  10.024  0.00  0.00    +0.058 N 
ATOM     14  O   UNL     1       0.445   9.185  10.751  0.00  0.00    -0.126 OA
ATOM     15  O   UNL     1       0.275   8.039   8.988  0.00  0.00    -0.126 OA
ENDBRANCH  11  13
ENDBRANCH   4   6
ENDBRANCH   1   2
BRANCH   1  16
ATOM     16  S   UNL     1       3.273   4.929   4.783  0.00  0.00    -0.077 S 
BRANCH  16  22
ATOM     17  C   UNL     1       3.991   3.747   1.779  0.00  0.00    +0.152 C 
ATOM     18  N   UNL     1       2.629   4.094   2.191  0.00  0.00    -0.309 N 
ATOM     19  C   UNL     1       1.488   3.993   1.443  0.00  0.00    +0.139 A 
ATOM     20  N   UNL     1       0.500   4.409   2.183  0.00  0.00    -0.133 NA
ATOM     21  N   UNL     1       0.933   4.755   3.342  0.00  0.00    -0.122 NA
ATOM     22  C   UNL     1       2.234   4.586   3.402  0.00  0.00    +0.192 A 
BRANCH  19  23
ATOM     23  C   UNL     1       1.393   3.497   0.022  0.00  0.00    +0.118 C 
BRANCH  23  24
ATOM     24  C   UNL     1       1.168   2.007   0.024  0.00  0.00    -0.003 A 
ATOM     25  C   UNL     1      -0.001   1.321   0.040  0.00  0.00    +0.011 A 
ATOM     26  C   UNL     1       0.033  -0.061   0.038  0.00  0.00    +0.008 A 
ATOM     27  C   UNL     1       1.234  -0.689   0.020  0.00  0.00    +0.045 A 
ATOM     28  S   UNL     1       2.370   0.688   0.005  0.00  0.00    -0.101 S 
ENDBRANCH  23  24
ENDBRANCH  19  23
ENDBRANCH  16  22
ENDBRANCH   1  16
TORSDOF 7
