REMARK  Name = ZINC02656533
REMARK  13 active torsions:
REMARK  status: ('A' for Active; 'I' for Inactive)
REMARK    1  A    between atoms: C_1  and  C_2
REMARK    2  A    between atoms: C_2  and  C_3
REMARK    3  A    between atoms: C_2  and  C_4
REMARK    4  A    between atoms: C_4  and  N_5
REMARK    5  A    between atoms: C_6  and  N_36
REMARK    6  A    between atoms: C_7  and  C_14
REMARK    7  A    between atoms: N_10  and  C_13
REMARK    8  A    between atoms: C_14  and  C_16
REMARK    9  A    between atoms: C_16  and  O_17
REMARK   10  A    between atoms: O_17  and  C_18
REMARK   11  A    between atoms: C_18  and  C_20
REMARK   12  A    between atoms: C_23  and  S_26
REMARK   13  A    between atoms: S_26  and  N_29
REMARK                            x       y       z     vdW  Elec       q    Type
REMARK                         _______ _______ _______ _____ _____    ______ ____
ROOT
ATOM      1  C   UNL     1      -1.241   3.074  -5.991  0.00  0.00    +0.312 C 
ENDROOT
BRANCH   1   2
ATOM      2  C   UNL     1      -0.348   2.672  -4.846  0.00  0.00    +0.209 C 
ATOM      3  O   UNL     1       0.555   3.404  -4.494  0.00  0.00    -0.288 OA
BRANCH   2   6
ATOM      4  N   UNL     1      -0.063  -0.098  -2.430  0.00  0.00    -0.281 N 
ATOM      5  C   UNL     1       0.178   1.101  -3.037  0.00  0.00    +0.116 A 
ATOM      6  C   UNL     1      -0.560   1.444  -4.183  0.00  0.00    +0.123 A 
ATOM      7  C   UNL     1      -1.560   0.484  -4.668  0.00  0.00    +0.269 A 
ATOM      8  O   UNL     1      -2.228   0.728  -5.656  0.00  0.00    -0.267 OA
ATOM      9  N   UNL     1      -1.722  -0.675  -3.996  0.00  0.00    -0.263 N 
ATOM     10  C   UNL     1      -0.983  -0.950  -2.910  0.00  0.00    +0.333 A 
ATOM     11  O   UNL     1      -1.156  -2.007  -2.336  0.00  0.00    -0.246 OA
ATOM     12  C   UNL     1      -2.713  -1.648  -4.462  0.00  0.00    +0.157 C 
BRANCH   5  13
ATOM     13  N   UNL     1       1.119   1.950  -2.541  0.00  0.00    -0.344 N 
ATOM     14  H   UNL     1       1.855   1.604  -2.013  0.00  0.00    +0.144 HD
ATOM     15  H   UNL     1       1.053   2.902  -2.716  0.00  0.00    +0.144 HD
ENDBRANCH   5  13
BRANCH   4  16
ATOM     16  C   UNL     1       0.702  -0.465  -1.236  0.00  0.00    +0.131 C 
BRANCH  16  18
ATOM     17  C   UNL     1      -0.070   1.559   0.009  0.00  0.00    +0.009 C 
ATOM     18  C   UNL     1      -0.033   0.030   0.012  0.00  0.00    +0.003 C 
ATOM     19  C   UNL     1       0.699  -0.460   1.263  0.00  0.00    +0.009 C 
ENDBRANCH  16  18
ENDBRANCH   4  16
ENDBRANCH   2   6
ENDBRANCH   1   2
BRANCH   1  20
ATOM     20  O   UNL     1      -0.822   4.367  -6.501  0.00  0.00    -0.453 OA
BRANCH  20  21
ATOM     21  C   UNL     1      -1.522   4.874  -7.534  0.00  0.00    +0.340 C 
ATOM     22  O   UNL     1      -2.458   4.252  -7.996  0.00  0.00    -0.245 OA
BRANCH  21  23
ATOM     23  C   UNL     1      -1.152   6.185  -8.105  0.00  0.00    +0.059 A 
ATOM     24  C   UNL     1      -0.081   6.904  -7.573  0.00  0.00    +0.017 A 
ATOM     25  C   UNL     1       0.263   8.126  -8.115  0.00  0.00    +0.029 A 
ATOM     26  C   UNL     1      -0.459   8.643  -9.176  0.00  0.00    +0.106 A 
ATOM     27  C   UNL     1      -1.526   7.938  -9.704  0.00  0.00    +0.029 A 
ATOM     28  C   UNL     1      -1.876   6.713  -9.176  0.00  0.00    +0.017 A 
BRANCH  26  29
ATOM     29  S   UNL     1      -0.017  10.207  -9.857  0.00  0.00    +0.061 S 
ATOM     30  O   UNL     1       1.353  10.415  -9.543  0.00  0.00    -0.153 OA
ATOM     31  O   UNL     1      -0.503  10.220 -11.193  0.00  0.00    -0.153 OA
BRANCH  29  32
ATOM     32  N   UNL     1      -0.873  11.360  -9.032  0.00  0.00    -0.177 NA
ATOM     33  C   UNL     1      -2.173  11.747  -9.530  0.00  0.00    +0.109 C 
ATOM     34  C   UNL     1      -2.026  12.910 -10.534  0.00  0.00    +0.017 C 
ATOM     35  C   UNL     1      -1.657  14.148  -9.831  0.00  0.00    +0.001 C 
ATOM     36  C   UNL     1      -0.308  14.088  -9.120  0.00  0.00    +0.001 C 
ATOM     37  C   UNL     1      -0.490  13.476  -7.753  0.00  0.00    +0.017 C 
ATOM     38  C   UNL     1      -0.273  11.954  -7.821  0.00  0.00    +0.109 C 
ENDBRANCH  29  32
ENDBRANCH  26  29
ENDBRANCH  21  23
ENDBRANCH  20  21
ENDBRANCH   1  20
TORSDOF 10
