REMARK  Name = ZINC04869359
REMARK  5 active torsions:
REMARK  status: ('A' for Active; 'I' for Inactive)
REMARK    1  A    between atoms: C_4  and  C_7
REMARK    2  A    between atoms: C_7  and  N_8
REMARK    3  A    between atoms: C_9  and  C_11
REMARK    4  A    between atoms: C_14  and  C_16
REMARK    5  A    between atoms: C_21  and  N_22
REMARK                            x       y       z     vdW  Elec       q    Type
REMARK                         _______ _______ _______ _____ _____    ______ ____
ROOT
ATOM      1  C   UNL     1       1.619   5.643   0.562  0.00  0.00    +0.190 A 
ATOM      2  C   UNL     1       0.724   5.684  -0.484  0.00  0.00    +0.055 A 
ATOM      3  C   UNL     1       0.445   4.358  -0.830  0.00  0.00    +0.051 A 
ATOM      4  C   UNL     1       1.173   3.563   0.009  0.00  0.00    +0.138 A 
ATOM      5  O   UNL     1       1.871   4.348   0.847  0.00  0.00    -0.450 OA
ENDROOT
BRANCH   4   6
ATOM      6  C   UNL     1       1.185   2.086   0.002  0.00  0.00    +0.047 A 
ATOM      7  C   UNL     1      -0.017   1.375   0.010  0.00  0.00    +0.014 A 
ATOM      8  C   UNL     1       0.002  -0.004   0.002  0.00  0.00    +0.001 A 
ATOM      9  C   UNL     1       1.208  -0.683  -0.013  0.00  0.00    +0.002 A 
ATOM     10  C   UNL     1       2.402   0.016  -0.020  0.00  0.00    +0.033 A 
ATOM     11  C   UNL     1       2.398   1.395  -0.013  0.00  0.00    +0.137 A 
BRANCH  11  12
ATOM     12  N   UNL     1       3.677   2.141  -0.021  0.00  0.00    +0.057 N 
ATOM     13  O   UNL     1       4.734   1.536  -0.034  0.00  0.00    -0.126 OA
ATOM     14  O   UNL     1       3.672   3.359  -0.015  0.00  0.00    -0.126 OA
ENDBRANCH  11  12
ENDBRANCH   4   6
BRANCH   1  16
ATOM     15  N   UNL     1       3.061   6.623   2.265  0.00  0.00    -0.305 N 
ATOM     16  C   UNL     1       2.192   6.803   1.250  0.00  0.00    +0.280 C 
ATOM     17  O   UNL     1       1.882   7.929   0.906  0.00  0.00    -0.267 OA
ATOM     18  H   UNL     1       3.307   5.726   2.539  0.00  0.00    +0.149 HD
BRANCH  15  19
ATOM     19  C   UNL     1       3.634   7.783   2.953  0.00  0.00    +0.140 C 
BRANCH  19  23
ATOM     20  C   UNL     1       6.280   6.449   6.029  0.00  0.00    +0.000 A 
ATOM     21  C   UNL     1       6.762   6.677   4.753  0.00  0.00    +0.000 A 
ATOM     22  C   UNL     1       5.906   7.108   3.758  0.00  0.00    +0.005 A 
ATOM     23  C   UNL     1       4.567   7.312   4.038  0.00  0.00    -0.030 A 
ATOM     24  C   UNL     1       4.087   7.090   5.315  0.00  0.00    +0.005 A 
ATOM     25  C   UNL     1       4.942   6.654   6.309  0.00  0.00    +0.000 A 
ENDBRANCH  19  23
ENDBRANCH  15  19
ENDBRANCH   1  16
TORSDOF 5
