REMARK  Name = ZINC36159817
REMARK  9 active torsions:
REMARK  status: ('A' for Active; 'I' for Inactive)
REMARK    1  A    between atoms: C_4  and  O_7
REMARK    2  A    between atoms: O_7  and  C_8
REMARK    3  A    between atoms: C_8  and  C_9
REMARK    4  A    between atoms: C_9  and  C_11
REMARK    5  A    between atoms: C_9  and  O_34
REMARK    6  A    between atoms: C_11  and  N_12
REMARK    7  A    between atoms: N_12  and  C_13
REMARK    8  A    between atoms: N_12  and  C_28
REMARK    9  A    between atoms: C_13  and  C_14
REMARK                            x       y       z     vdW  Elec       q    Type
REMARK                         _______ _______ _______ _____ _____    ______ ____
ROOT
ATOM      1  N   UNL     1       6.263  -4.670  -0.029  0.00  0.00    +0.388 N 
ATOM      2  H   UNL     1       7.070  -4.318   0.464  0.00  0.00    -0.081 HD
ENDROOT
BRANCH   1   3
ATOM      3  C   UNL     1       6.357  -4.301  -1.448  0.00  0.00    -0.068 C 
ATOM      4  C   UNL     1       5.092  -4.755  -2.178  0.00  0.00    -0.015 C 
ATOM      5  C   UNL     1       5.190  -4.370  -3.656  0.00  0.00    -0.002 C 
ATOM      6  C   UNL     1       6.411  -5.050  -4.280  0.00  0.00    -0.000 C 
ATOM      7  C   UNL     1       7.676  -4.597  -3.549  0.00  0.00    -0.002 C 
ATOM      8  C   UNL     1       7.578  -4.981  -2.072  0.00  0.00    -0.015 C 
ENDBRANCH   1   3
BRANCH   1   9
ATOM      9  C   UNL     1       5.043  -4.090   0.548  0.00  0.00    -0.043 C 
BRANCH   9  10
ATOM     10  C   UNL     1       5.178  -2.566   0.596  0.00  0.00    +0.135 C 
BRANCH  10  11
ATOM     11  O   UNL     1       5.161  -2.044  -0.734  0.00  0.00    -0.390 OA
ATOM     12  H   UNL     1       4.320  -2.171  -1.195  0.00  0.00    +0.210 HD
ENDBRANCH  10  11
BRANCH  10  13
ATOM     13  C   UNL     1       4.011  -1.976   1.391  0.00  0.00    +0.258 C 
BRANCH  13  14
ATOM     14  O   UNL     1       4.197  -0.567   1.536  0.00  0.00    -0.489 OA
BRANCH  14  18
ATOM     15  C   UNL     1       1.298   1.502   3.618  0.00  0.00    +0.000 A 
ATOM     16  C   UNL     1       2.388   2.175   3.098  0.00  0.00    +0.004 A 
ATOM     17  C   UNL     1       3.360   1.485   2.401  0.00  0.00    +0.045 A 
ATOM     18  C   UNL     1       3.243   0.114   2.222  0.00  0.00    +0.121 A 
ATOM     19  C   UNL     1       2.148  -0.560   2.745  0.00  0.00    +0.045 A 
ATOM     20  C   UNL     1       1.179   0.136   3.441  0.00  0.00    +0.004 A 
ENDBRANCH  14  18
ENDBRANCH  13  14
ENDBRANCH  10  13
ENDBRANCH   9  10
ENDBRANCH   1   9
BRANCH   1  21
ATOM     21  C   UNL     1       6.214  -6.134   0.094  0.00  0.00    -0.003 C 
BRANCH  21  22
ATOM     22  C   UNL     1       7.615  -6.688   0.051  0.00  0.00    +0.094 A 
ATOM     23  N   UNL     1       7.797  -8.033   0.002  0.00  0.00    -0.312 N 
ATOM     24  H   UNL     1       7.024  -8.618  -0.007  0.00  0.00    +0.170 HD
ATOM     25  C   UNL     1       9.031  -8.571  -0.037  0.00  0.00    +0.260 A 
ATOM     26  O   UNL     1       9.180  -9.780  -0.082  0.00  0.00    -0.267 OA
ATOM     27  C   UNL     1      10.166  -7.696  -0.025  0.00  0.00    +0.075 A 
ATOM     28  C   UNL     1      11.591  -8.057  -0.061  0.00  0.00    -0.023 A 
ATOM     29  C   UNL     1      12.475  -7.045  -0.038  0.00  0.00    -0.004 A 
ATOM     30  S   UNL     1      11.483  -5.571   0.027  0.00  0.00    -0.073 S 
ATOM     31  C   UNL     1       9.879  -6.325   0.027  0.00  0.00    +0.116 A 
ATOM     32  N   UNL     1       8.630  -5.867   0.058  0.00  0.00    -0.229 NA
ATOM     33  C   UNL     1      13.898  -7.534  -0.073  0.00  0.00    +0.043 C 
ATOM     34  C   UNL     1      13.806  -9.026   0.313  0.00  0.00    +0.010 C 
ATOM     35  C   UNL     1      12.369  -9.375  -0.124  0.00  0.00    +0.037 C 
ENDBRANCH  21  22
ENDBRANCH   1  21
TORSDOF 9
