REMARK  Name = ZINC43596507
REMARK  5 active torsions:
REMARK  status: ('A' for Active; 'I' for Inactive)
REMARK    1  A    between atoms: C_1  and  C_2
REMARK    2  A    between atoms: C_2  and  C_4
REMARK    3  A    between atoms: C_2  and  N_10
REMARK    4  A    between atoms: N_10  and  C_11
REMARK    5  A    between atoms: C_14  and  N_18
REMARK                            x       y       z     vdW  Elec       q    Type
REMARK                         _______ _______ _______ _____ _____    ______ ____
ROOT
ATOM      1  C   UNL     1      -2.076  -0.648  -1.187  0.00  0.00    +0.042 A 
ATOM      2  C   UNL     1      -1.472  -0.308  -2.391  0.00  0.00    +0.026 A 
ATOM      3  C   UNL     1      -2.169  -0.445  -3.575  0.00  0.00    +0.034 A 
ATOM      4  C   UNL     1      -3.469  -0.918  -3.563  0.00  0.00    +0.127 A 
ATOM      5  C   UNL     1      -4.074  -1.257  -2.367  0.00  0.00    +0.049 A 
ATOM      6  C   UNL     1      -3.380  -1.128  -1.179  0.00  0.00    +0.041 A 
ATOM      7 BR   UNL     1      -4.205  -1.599   0.456  0.00  0.00    -0.048 Br
ENDROOT
BRANCH   4   8
ATOM      8  N   UNL     1      -4.213  -1.062  -4.834  0.00  0.00    +0.056 N 
ATOM      9  O   UNL     1      -3.686  -0.766  -5.881  0.00  0.00    -0.126 OA
ATOM     10  O   UNL     1      -5.349  -1.476  -4.826  0.00  0.00    -0.126 OA
ENDBRANCH   4   8
BRANCH   1  11
ATOM     11  N   UNL     1      -1.372  -0.511   0.012  0.00  0.00    -0.338 N 
ATOM     12  H   UNL     1      -1.794  -0.752   0.852  0.00  0.00    +0.146 HD
BRANCH  11  14
ATOM     13  C   UNL     1      -0.019   1.526   0.010  0.00  0.00    +0.030 C 
ATOM     14  C   UNL     1       0.002  -0.004   0.002  0.00  0.00    +0.096 C 
BRANCH  14  15
ATOM     15  C   UNL     1       0.742  -0.511   1.242  0.00  0.00    +0.138 C 
ATOM     16  C   UNL     1       0.764  -2.055   1.244  0.00  0.00    +0.035 C 
ATOM     17  C   UNL     1       0.543  -2.385   2.745  0.00  0.00    +0.031 C 
ATOM     18  C   UNL     1      -0.399  -1.230   3.166  0.00  0.00    +0.160 C 
ATOM     19  O   UNL     1       0.057  -0.084   2.425  0.00  0.00    -0.375 OA
ENDBRANCH  14  15
ENDBRANCH  11  14
ENDBRANCH   1  11
TORSDOF 4
