REMARK  Name = ZINC17720824
REMARK  10 active torsions:
REMARK  status: ('A' for Active; 'I' for Inactive)
REMARK    1  A    between atoms: C_1  and  O_2
REMARK    2  A    between atoms: O_2  and  C_3
REMARK    3  A    between atoms: C_6  and  C_9
REMARK    4  A    between atoms: C_9  and  C_10
REMARK    5  A    between atoms: C_9  and  N_18
REMARK    6  A    between atoms: C_13  and  O_16
REMARK    7  A    between atoms: O_16  and  C_17
REMARK    8  A    between atoms: C_19  and  C_21
REMARK    9  A    between atoms: C_21  and  N_22
REMARK   10  A    between atoms: C_24  and  N_29
REMARK                            x       y       z     vdW  Elec       q    Type
REMARK                         _______ _______ _______ _____ _____    ______ ____
ROOT
ATOM      1  C   UNL     1       1.226  -2.187  -0.020  0.00  0.00    +0.134 C 
ENDROOT
BRANCH   1   5
ATOM      2  C   UNL     1       1.176   2.086   0.002  0.00  0.00    +0.120 A 
ATOM      3  C   UNL     1      -0.017   1.377   0.010  0.00  0.00    +0.046 A 
ATOM      4  C   UNL     1       0.002  -0.004   0.002  0.00  0.00    +0.009 A 
ATOM      5  C   UNL     1       1.208  -0.680  -0.013  0.00  0.00    -0.023 A 
ATOM      6  C   UNL     1       2.398   0.024  -0.020  0.00  0.00    +0.009 A 
ATOM      7  C   UNL     1       2.385   1.405  -0.013  0.00  0.00    +0.046 A 
BRANCH   2   9
ATOM      8  C   UNL     1       2.426   4.108   0.001  0.00  0.00    +0.277 C 
ATOM      9  O   UNL     1       1.160   3.445   0.009  0.00  0.00    -0.495 OA
ENDBRANCH   2   9
ENDBRANCH   1   5
BRANCH   1  10
ATOM     10  C   UNL     1       1.491  -2.693   1.374  0.00  0.00    -0.023 A 
ATOM     11  C   UNL     1       2.784  -2.720   1.864  0.00  0.00    +0.009 A 
ATOM     12  C   UNL     1       3.029  -3.179   3.144  0.00  0.00    +0.046 A 
ATOM     13  C   UNL     1       1.979  -3.623   3.933  0.00  0.00    +0.120 A 
ATOM     14  C   UNL     1       0.683  -3.600   3.437  0.00  0.00    +0.046 A 
ATOM     15  C   UNL     1       0.443  -3.136   2.159  0.00  0.00    +0.009 A 
BRANCH  13  16
ATOM     16  O   UNL     1       2.218  -4.079   5.191  0.00  0.00    -0.495 OA
ATOM     17  C   UNL     1       3.576  -4.073   5.636  0.00  0.00    +0.277 C 
ENDBRANCH  13  16
ENDBRANCH   1  10
BRANCH   1  18
ATOM     18  N   UNL     1       2.281  -2.659  -0.921  0.00  0.00    -0.303 N 
ATOM     19  C   UNL     1       2.035  -2.783  -2.240  0.00  0.00    +0.234 C 
ATOM     20  O   UNL     1       0.941  -2.505  -2.682  0.00  0.00    -0.274 OA
ATOM     21  H   UNL     1       3.156  -2.881  -0.567  0.00  0.00    +0.150 HD
BRANCH  19  22
ATOM     22  C   UNL     1       3.121  -3.268  -3.166  0.00  0.00    +0.220 C 
BRANCH  22  23
ATOM     23  N   UNL     1       2.608  -3.317  -4.537  0.00  0.00    -0.304 N 
ATOM     24  C   UNL     1       2.724  -2.225  -5.336  0.00  0.00    +0.122 A 
ATOM     25  C   UNL     1       2.258  -2.246  -6.607  0.00  0.00    +0.142 A 
ATOM     26  C   UNL     1       1.647  -3.403  -7.109  0.00  0.00    +0.039 A 
ATOM     27  C   UNL     1       1.530  -4.498  -6.305  0.00  0.00    +0.072 A 
ATOM     28  C   UNL     1       2.030  -4.445  -4.992  0.00  0.00    +0.252 A 
ATOM     29  O   UNL     1       1.938  -5.420  -4.264  0.00  0.00    -0.268 OA
BRANCH  25  30
ATOM     30  N   UNL     1       2.393  -1.047  -7.465  0.00  0.00    +0.058 N 
ATOM     31  O   UNL     1       2.924  -0.042  -7.027  0.00  0.00    -0.126 OA
ATOM     32  O   UNL     1       1.974  -1.067  -8.608  0.00  0.00    -0.126 OA
ENDBRANCH  25  30
ENDBRANCH  22  23
ENDBRANCH  19  22
ENDBRANCH   1  18
TORSDOF 8
