REMARK  Name = ZINC39853981
REMARK  7 active torsions:
REMARK  status: ('A' for Active; 'I' for Inactive)
REMARK    1  A    between atoms: C_1  and  C_2
REMARK    2  A    between atoms: C_5  and  O_8
REMARK    3  A    between atoms: O_8  and  C_9
REMARK    4  A    between atoms: C_9  and  C_10
REMARK    5  A    between atoms: C_10  and  N_11
REMARK    6  A    between atoms: C_13  and  C_23
REMARK    7  A    between atoms: N_19  and  O_20
REMARK                            x       y       z     vdW  Elec       q    Type
REMARK                         _______ _______ _______ _____ _____    ______ ____
ROOT
ATOM      1  N   UNL     1       1.251  -7.166   0.467  0.00  0.00    -0.262 N 
ATOM      2  C   UNL     1       2.489  -7.169   1.104  0.00  0.00    +0.049 A 
ATOM      3  C   UNL     1       2.848  -6.902   2.420  0.00  0.00    -0.028 A 
ATOM      4  C   UNL     1       4.171  -6.974   2.806  0.00  0.00    +0.005 A 
ATOM      5  C   UNL     1       5.155  -7.311   1.892  0.00  0.00    +0.001 A 
ATOM      6  C   UNL     1       4.817  -7.580   0.580  0.00  0.00    +0.012 A 
ATOM      7  C   UNL     1       3.487  -7.510   0.183  0.00  0.00    +0.030 A 
ATOM      8  C   UNL     1       2.804  -7.731  -1.114  0.00  0.00    +0.173 C 
ATOM      9  N   UNL     1       3.345  -8.066  -2.250  0.00  0.00    -0.082 NA
ATOM     10  C   UNL     1       1.365  -7.491  -0.832  0.00  0.00    +0.273 C 
ATOM     11  O   UNL     1       0.454  -7.573  -1.633  0.00  0.00    -0.268 OA
ATOM     12  C   UNL     1       1.790  -6.533   3.428  0.00  0.00    +0.046 C 
ENDROOT
BRANCH   9  13
ATOM     13  O   UNL     1       2.534  -8.236  -3.398  0.00  0.00    -0.409 OA
ATOM     14  H   UNL     1       3.025  -8.484  -4.194  0.00  0.00    +0.328 HD
ENDBRANCH   9  13
BRANCH   1  15
ATOM     15  C   UNL     1      -0.017  -6.853   1.130  0.00  0.00    +0.155 C 
BRANCH  15  16
ATOM     16  C   UNL     1      -0.269  -5.345   1.063  0.00  0.00    +0.248 C 
BRANCH  16  17
ATOM     17  O   UNL     1      -0.448  -4.953  -0.300  0.00  0.00    -0.490 OA
BRANCH  17  22
ATOM     18  C   UNL     1      -1.427   0.507  -1.281  0.00  0.00    +0.044 C 
ATOM     19  C   UNL     1      -1.165  -0.954  -1.018  0.00  0.00    -0.050 A 
ATOM     20  C   UNL     1      -1.107  -1.845  -2.074  0.00  0.00    +0.007 A 
ATOM     21  C   UNL     1      -0.867  -3.185  -1.836  0.00  0.00    +0.046 A 
ATOM     22  C   UNL     1      -0.684  -3.635  -0.536  0.00  0.00    +0.121 A 
ATOM     23  C   UNL     1      -0.742  -2.739   0.521  0.00  0.00    +0.046 A 
ATOM     24  C   UNL     1      -0.977  -1.399   0.277  0.00  0.00    +0.007 A 
ENDBRANCH  17  22
ENDBRANCH  16  17
ENDBRANCH  15  16
ENDBRANCH   1  15
TORSDOF 5
