REMARK  Name = ZINC22505034
REMARK  3 active torsions:
REMARK  status: ('A' for Active; 'I' for Inactive)
REMARK    1  A    between atoms: C_4  and  C_7
REMARK    2  A    between atoms: C_9  and  C_13
REMARK    3  A    between atoms: C_16  and  C_21
REMARK                            x       y       z     vdW  Elec       q    Type
REMARK                         _______ _______ _______ _____ _____    ______ ____
ROOT
ATOM      1  C   UNL     1       1.775  -0.220  -0.016  0.00  0.00    +0.150 A 
ATOM      2  N   UNL     1       2.204   1.018  -0.013  0.00  0.00    -0.154 NA
ATOM      3  N   UNL     1       1.316   2.085   0.001  0.00  0.00    -0.185 N 
ATOM      4  C   UNL     1       1.327   3.474   0.008  0.00  0.00    +0.192 A 
ATOM      5  N   UNL     1       0.077   3.884   0.022  0.00  0.00    -0.126 NA
ATOM      6  N   UNL     1      -0.716   2.870   0.028  0.00  0.00    -0.120 NA
ATOM      7  C   UNL     1      -0.022   1.771   0.012  0.00  0.00    +0.219 A 
ATOM      8  S   UNL     1       0.002  -0.004   0.002  0.00  0.00    -0.025 S 
ENDROOT
BRANCH   1  11
ATOM      9  C   UNL     1       3.132  -3.634  -0.046  0.00  0.00    +0.093 A 
ATOM     10  C   UNL     1       2.049  -2.740  -0.026  0.00  0.00    +0.060 A 
ATOM     11  C   UNL     1       2.556  -1.471  -0.030  0.00  0.00    +0.093 A 
ATOM     12  N   UNL     1       3.917  -1.573  -0.044  0.00  0.00    -0.274 N 
ATOM     13  H   UNL     1       4.537  -0.664  -0.045  0.00  0.00    +0.189 HD
ATOM     14  N   UNL     1       4.248  -2.934  -0.053  0.00  0.00    -0.173 NA
BRANCH   9  18
ATOM     15  C   UNL     1       2.855  -7.878  -0.062  0.00  0.00    +0.000 A 
ATOM     16  C   UNL     1       4.097  -7.268  -0.072  0.00  0.00    +0.001 A 
ATOM     17  C   UNL     1       4.192  -5.891  -0.067  0.00  0.00    +0.010 A 
ATOM     18  C   UNL     1       3.035  -5.115  -0.052  0.00  0.00    +0.002 A 
ATOM     19  C   UNL     1       1.788  -5.734  -0.037  0.00  0.00    +0.010 A 
ATOM     20  C   UNL     1       1.704  -7.112  -0.047  0.00  0.00    +0.001 A 
ENDBRANCH   9  18
ENDBRANCH   1  11
BRANCH   4  21
ATOM     21  C   UNL     1       2.522   4.333   0.001  0.00  0.00    +0.058 A 
ATOM     22  C   UNL     1       2.622   5.675  -0.269  0.00  0.00    +0.019 A 
ATOM     23  C   UNL     1       3.863   6.270  -0.213  0.00  0.00    +0.008 A 
ATOM     24  C   UNL     1       4.945   5.515   0.105  0.00  0.00    +0.046 A 
ATOM     25  S   UNL     1       4.220   3.902   0.348  0.00  0.00    -0.093 S 
ENDBRANCH   4  21
TORSDOF 3
