REMARK  Name = ZINC45974490
REMARK  11 active torsions:
REMARK  status: ('A' for Active; 'I' for Inactive)
REMARK    1  A    between atoms: C_1  and  C_2
REMARK    2  A    between atoms: C_2  and  N_3
REMARK    3  A    between atoms: C_7  and  C_9
REMARK    4  A    between atoms: C_9  and  N_10
REMARK    5  A    between atoms: N_10  and  C_11
REMARK    6  A    between atoms: N_10  and  S_20
REMARK    7  A    between atoms: C_11  and  C_12
REMARK    8  A    between atoms: S_20  and  C_23
REMARK    9  A    between atoms: C_24  and  C_31
REMARK   10  A    between atoms: C_26  and  C_30
REMARK   11  A    between atoms: C_28  and  C_29
REMARK                            x       y       z     vdW  Elec       q    Type
REMARK                         _______ _______ _______ _____ _____    ______ ____
ROOT
ATOM      1  N   UNL     1      -1.439  -2.502   1.946  0.00  0.00    -0.169 NA
ENDROOT
BRANCH   1   2
ATOM      2  S   UNL     1      -0.105  -2.859   2.860  0.00  0.00    +0.062 S 
ATOM      3  O   UNL     1      -0.252  -2.154   4.085  0.00  0.00    -0.153 OA
ATOM      4  O   UNL     1       0.058  -4.269   2.808  0.00  0.00    -0.153 OA
BRANCH   2   5
ATOM      5  C   UNL     1       1.290  -2.160   2.041  0.00  0.00    +0.111 A 
ATOM      6  C   UNL     1       1.756  -0.913   2.413  0.00  0.00    -0.024 A 
ATOM      7  C   UNL     1       2.851  -0.364   1.770  0.00  0.00    +0.008 A 
ATOM      8  C   UNL     1       3.479  -1.063   0.757  0.00  0.00    -0.050 A 
ATOM      9  C   UNL     1       3.013  -2.311   0.386  0.00  0.00    +0.008 A 
ATOM     10  C   UNL     1       1.921  -2.861   1.031  0.00  0.00    -0.024 A 
ATOM     11  C   UNL     1       1.417  -4.223   0.630  0.00  0.00    +0.046 C 
ATOM     12  C   UNL     1       4.672  -0.465   0.056  0.00  0.00    +0.044 C 
ATOM     13  C   UNL     1       1.072  -0.151   3.518  0.00  0.00    +0.046 C 
ENDBRANCH   2   5
ENDBRANCH   1   2
BRANCH   1  14
ATOM     14  C   UNL     1      -1.742  -3.295   0.752  0.00  0.00    +0.095 C 
BRANCH  14  19
ATOM     15  N   UNL     1      -1.831  -1.360  -0.763  0.00  0.00    +0.382 N 
ATOM     16  C   UNL     1      -2.446  -1.457  -2.104  0.00  0.00    -0.078 C 
ATOM     17  C   UNL     1      -1.604  -2.522  -2.849  0.00  0.00    -0.020 C 
ATOM     18  C   UNL     1      -1.298  -3.532  -1.712  0.00  0.00    -0.016 C 
ATOM     19  C   UNL     1      -1.127  -2.624  -0.477  0.00  0.00    -0.053 C 
ATOM     20  H   UNL     1      -2.550  -1.208  -0.072  0.00  0.00    -0.081 HD
BRANCH  15  22
ATOM     21  C   UNL     1      -1.627   1.076  -0.910  0.00  0.00    -0.017 C 
ATOM     22  C   UNL     1      -0.875  -0.245  -0.737  0.00  0.00    -0.082 C 
ENDBRANCH  15  22
ENDBRANCH  14  19
ENDBRANCH   1  14
BRANCH   1  23
ATOM     23  C   UNL     1      -2.315  -1.393   2.330  0.00  0.00    +0.205 C 
BRANCH  23  24
ATOM     24  C   UNL     1      -3.520  -1.933   3.056  0.00  0.00    +0.231 C 
ATOM     25  O   UNL     1      -3.636  -3.127   3.235  0.00  0.00    -0.274 OA
ATOM     26  N   UNL     1      -4.470  -1.089   3.507  0.00  0.00    -0.304 N 
ATOM     27  C   UNL     1      -4.354   0.362   3.297  0.00  0.00    +0.089 C 
ATOM     28  C   UNL     1      -5.667   0.872   2.695  0.00  0.00    -0.063 C 
ATOM     29  N   UNL     1      -6.787   0.472   3.557  0.00  0.00    +0.381 N 
ATOM     30  C   UNL     1      -6.904  -0.991   3.578  0.00  0.00    -0.063 C 
ATOM     31  C   UNL     1      -5.654  -1.594   4.218  0.00  0.00    +0.089 C 
ATOM     32  H   UNL     1      -6.625   0.809   4.495  0.00  0.00    -0.086 HD
ATOM     33  H   UNL     1      -7.643   0.872   3.202  0.00  0.00    -0.086 HD
ENDBRANCH  23  24
ENDBRANCH   1  23
TORSDOF 7
