REMARK  Name = ZINC59009752
REMARK  9 active torsions:
REMARK  status: ('A' for Active; 'I' for Inactive)
REMARK    1  A    between atoms: C_1  and  C_2
REMARK    2  A    between atoms: C_2  and  C_3
REMARK    3  A    between atoms: C_3  and  C_4
REMARK    4  A    between atoms: C_4  and  C_5
REMARK    5  A    between atoms: C_5  and  C_23
REMARK    6  A    between atoms: N_8  and  C_12
REMARK    7  A    between atoms: C_12  and  C_13
REMARK    8  A    between atoms: C_17  and  N_20
REMARK    9  A    between atoms: C_18  and  C_19
REMARK                            x       y       z     vdW  Elec       q    Type
REMARK                         _______ _______ _______ _____ _____    ______ ____
ROOT
ATOM      1  C   UNL     1      -3.367  -2.216   0.895  0.00  0.00    +0.138 C 
ATOM      2  C   UNL     1      -3.940  -1.723  -0.419  0.00  0.00    +0.251 C 
ATOM      3  O   UNL     1      -3.442  -1.826  -1.520  0.00  0.00    -0.272 OA
ATOM      4  N   UNL     1      -5.118  -1.148  -0.110  0.00  0.00    -0.220 N 
ATOM      5  C   UNL     1      -5.367  -1.207   1.203  0.00  0.00    +0.310 C 
ATOM      6  O   UNL     1      -6.369  -0.756   1.722  0.00  0.00    -0.252 OA
ATOM      7  N   UNL     1      -4.385  -1.824   1.885  0.00  0.00    -0.281 N 
ATOM      8  H   UNL     1      -4.353  -1.980   2.842  0.00  0.00    +0.152 HD
ENDROOT
BRANCH   1   9
ATOM      9  C   UNL     1      -3.196  -3.713   0.875  0.00  0.00    -0.015 A 
ATOM     10  C   UNL     1      -1.987  -4.266   0.494  0.00  0.00    +0.006 A 
ATOM     11  C   UNL     1      -1.831  -5.639   0.476  0.00  0.00    +0.000 A 
ATOM     12  C   UNL     1      -2.882  -6.460   0.838  0.00  0.00    +0.000 A 
ATOM     13  C   UNL     1      -4.091  -5.907   1.218  0.00  0.00    +0.000 A 
ATOM     14  C   UNL     1      -4.246  -4.534   1.241  0.00  0.00    +0.006 A 
ENDBRANCH   1   9
BRANCH   1  15
ATOM     15  C   UNL     1      -2.033  -1.528   1.192  0.00  0.00    +0.040 C 
BRANCH  15  16
ATOM     16  C   UNL     1      -2.248  -0.015   1.278  0.00  0.00    +0.003 C 
BRANCH  16  18
ATOM     17  C   UNL     1      -1.129   2.186   1.662  0.00  0.00    +0.004 C 
ATOM     18  C   UNL     1      -0.914   0.673   1.576  0.00  0.00    -0.003 C 
ENDBRANCH  16  18
ENDBRANCH  15  16
ENDBRANCH   1  15
BRANCH   4  19
ATOM     19  C   UNL     1      -6.016  -0.532  -1.090  0.00  0.00    +0.153 C 
BRANCH  19  20
ATOM     20  C   UNL     1      -6.910  -1.588  -1.686  0.00  0.00    -0.025 A 
ATOM     21  C   UNL     1      -6.883  -2.878  -1.188  0.00  0.00    +0.005 A 
ATOM     22  C   UNL     1      -7.703  -3.847  -1.735  0.00  0.00    +0.003 A 
ATOM     23  C   UNL     1      -8.552  -3.526  -2.778  0.00  0.00    +0.033 A 
ATOM     24  C   UNL     1      -8.580  -2.237  -3.274  0.00  0.00    +0.129 A 
ATOM     25  C   UNL     1      -7.763  -1.267  -2.725  0.00  0.00    -0.016 A 
ATOM     26  C   UNL     1      -7.798   0.141  -3.263  0.00  0.00    +0.046 C 
BRANCH  24  27
ATOM     27  N   UNL     1      -9.489  -1.894  -4.391  0.00  0.00    +0.057 N 
ATOM     28  O   UNL     1     -10.298  -2.702  -4.782  0.00  0.00    -0.126 OA
ATOM     29  O   UNL     1      -9.421  -0.805  -4.913  0.00  0.00    -0.126 OA
ENDBRANCH  24  27
ENDBRANCH  19  20
ENDBRANCH   4  19
TORSDOF 7
