REMARK  Name = ZINC07918720
REMARK  6 active torsions:
REMARK  status: ('A' for Active; 'I' for Inactive)
REMARK    1  A    between atoms: C_3  and  N_8
REMARK    2  A    between atoms: C_9  and  C_11
REMARK    3  A    between atoms: C_11  and  C_12
REMARK    4  A    between atoms: C_12  and  C_13
REMARK    5  A    between atoms: C_13  and  N_14
REMARK    6  A    between atoms: C_18  and  N_24
REMARK                            x       y       z     vdW  Elec       q    Type
REMARK                         _______ _______ _______ _____ _____    ______ ____
ROOT
ATOM      1  C   UNL     1       8.531   2.055   0.362  0.00  0.00    +0.129 C 
ENDROOT
BRANCH   1   2
ATOM      2  N   UNL     1       9.657   1.121   0.444  0.00  0.00    -0.274 N 
ATOM      3  C   UNL     1      10.200   0.584   1.610  0.00  0.00    +0.090 A 
ATOM      4  C   UNL     1       9.898   0.729   2.955  0.00  0.00    +0.032 A 
ATOM      5  C   UNL     1      10.637   0.047   3.903  0.00  0.00    +0.035 A 
ATOM      6  C   UNL     1      11.676  -0.779   3.512  0.00  0.00    +0.130 A 
ATOM      7  C   UNL     1      11.982  -0.929   2.174  0.00  0.00    +0.081 A 
ATOM      8  C   UNL     1      11.247  -0.249   1.216  0.00  0.00    +0.159 A 
ATOM      9  O   UNL     1      11.313  -0.200  -0.137  0.00  0.00    -0.407 OA
ATOM     10  C   UNL     1      10.353   0.619  -0.596  0.00  0.00    +0.421 A 
ATOM     11  O   UNL     1      10.145   0.871  -1.767  0.00  0.00    -0.223 OA
BRANCH   6  12
ATOM     12  N   UNL     1      12.463  -1.506   4.534  0.00  0.00    +0.057 N 
ATOM     13  O   UNL     1      12.197  -1.376   5.706  0.00  0.00    -0.126 OA
ATOM     14  O   UNL     1      13.371  -2.228   4.196  0.00  0.00    -0.126 OA
ENDBRANCH   6  12
ENDBRANCH   1   2
BRANCH   1  15
ATOM     15  C   UNL     1       7.223   1.269   0.256  0.00  0.00    +0.031 C 
BRANCH  15  16
ATOM     16  C   UNL     1       6.047   2.244   0.171  0.00  0.00    +0.098 C 
BRANCH  16  18
ATOM     17  N   UNL     1       3.584   2.125  -0.021  0.00  0.00    -0.285 N 
ATOM     18  C   UNL     1       4.758   1.470   0.066  0.00  0.00    +0.217 C 
ATOM     19  O   UNL     1       4.778   0.258   0.060  0.00  0.00    -0.275 OA
ATOM     20  H   UNL     1       3.572   3.092  -0.093  0.00  0.00    +0.155 HD
BRANCH  17  23
ATOM     21  C   UNL     1       1.086  -0.461   0.750  0.00  0.00    +0.003 A 
ATOM     22  C   UNL     1       2.274   0.243   0.738  0.00  0.00    +0.023 A 
ATOM     23  C   UNL     1       2.381   1.410  -0.007  0.00  0.00    +0.035 A 
ATOM     24  C   UNL     1       1.292   1.866  -0.738  0.00  0.00    +0.043 A 
ATOM     25  C   UNL     1       0.106   1.158  -0.722  0.00  0.00    +0.043 A 
ATOM     26  C   UNL     1       0.003  -0.005   0.022  0.00  0.00    +0.020 A 
ATOM     27 CL   UNL     1      -1.257   1.727  -1.635  0.00  0.00    -0.083 Cl
ENDBRANCH  17  23
ENDBRANCH  16  18
ENDBRANCH  15  16
ENDBRANCH   1  15
TORSDOF 6
