REMARK  Name = ZINC66683338
REMARK  9 active torsions:
REMARK  status: ('A' for Active; 'I' for Inactive)
REMARK    1  A    between atoms: C_1  and  C_2
REMARK    2  A    between atoms: C_2  and  N_3
REMARK    3  A    between atoms: C_4  and  C_6
REMARK    4  A    between atoms: N_15  and  C_16
REMARK    5  A    between atoms: C_19  and  C_23
REMARK    6  A    between atoms: C_20  and  C_22
REMARK    7  A    between atoms: N_25  and  C_26
REMARK    8  A    between atoms: C_26  and  C_27
REMARK    9  A    between atoms: C_26  and  C_28
REMARK                            x       y       z     vdW  Elec       q    Type
REMARK                         _______ _______ _______ _____ _____    ______ ____
ROOT
ATOM      1  C   UNL     1       3.241  -1.504   1.334  0.00  0.00    +0.092 C 
ATOM      2  C   UNL     1       2.860  -2.986   1.316  0.00  0.00    +0.016 C 
ATOM      3  C   UNL     1       2.955  -3.556   2.733  0.00  0.00    +0.020 C 
ATOM      4  C   UNL     1       4.398  -3.433   3.233  0.00  0.00    +0.109 C 
ATOM      5  N   UNL     1       4.821  -2.031   3.117  0.00  0.00    -0.285 N 
ATOM      6  C   UNL     1       4.687  -1.357   1.819  0.00  0.00    +0.122 C 
ATOM      7  C   UNL     1       5.323  -1.375   4.182  0.00  0.00    +0.306 C 
ATOM      8  O   UNL     1       5.737  -0.238   4.056  0.00  0.00    -0.252 OA
ATOM      9  N   UNL     1       5.365  -1.978   5.387  0.00  0.00    -0.269 N 
ATOM     10  H   UNL     1       5.123  -2.914   5.469  0.00  0.00    +0.156 HD
ENDROOT
BRANCH   9  11
ATOM     11  C   UNL     1       5.758  -1.257   6.514  0.00  0.00    +0.035 A 
ATOM     12  C   UNL     1       5.444   0.094   6.618  0.00  0.00    +0.024 A 
ATOM     13  C   UNL     1       5.830   0.808   7.729  0.00  0.00    +0.015 A 
ATOM     14  C   UNL     1       6.538   0.175   8.754  0.00  0.00    +0.040 A 
ATOM     15  C   UNL     1       6.852  -1.183   8.647  0.00  0.00    -0.037 A 
ATOM     16  C   UNL     1       6.458  -1.893   7.535  0.00  0.00    +0.027 A 
ATOM     17  C   UNL     1       7.615  -1.870   9.749  0.00  0.00    +0.044 C 
BRANCH  14  18
ATOM     18  C   UNL     1       6.954   0.938   9.947  0.00  0.00    +0.245 C 
ATOM     19  O   UNL     1       7.468   0.363  10.888  0.00  0.00    -0.270 OA
ATOM     20  N   UNL     1       6.765   2.271   9.994  0.00  0.00    -0.309 N 
ATOM     21  H   UNL     1       6.355   2.729   9.244  0.00  0.00    +0.149 HD
BRANCH  20  22
ATOM     22  C   UNL     1       7.178   3.028  11.178  0.00  0.00    +0.067 C 
ATOM     23  C   UNL     1       7.447   4.482  10.786  0.00  0.00    +0.027 C 
ATOM     24  C   UNL     1       6.065   2.981  12.228  0.00  0.00    +0.027 C 
ENDBRANCH  20  22
ENDBRANCH  14  18
ENDBRANCH   9  11
BRANCH   1  26
ATOM     25  N   UNL     1       3.403   0.362  -0.282  0.00  0.00    -0.315 N 
ATOM     26  C   UNL     1       3.116  -0.935  -0.056  0.00  0.00    +0.218 C 
ATOM     27  O   UNL     1       2.756  -1.645  -0.971  0.00  0.00    -0.275 OA
ATOM     28  H   UNL     1       3.691   0.930   0.450  0.00  0.00    +0.149 HD
BRANCH  25  30
ATOM     29  C   UNL     1       3.664   2.396  -1.615  0.00  0.00    +0.024 C 
ATOM     30  C   UNL     1       3.282   0.915  -1.633  0.00  0.00    +0.101 C 
ENDBRANCH  25  30
ENDBRANCH   1  26
TORSDOF 5
