REMARK  Name = ZINC39252886
REMARK  6 active torsions:
REMARK  status: ('A' for Active; 'I' for Inactive)
REMARK    1  A    between atoms: C_4  and  N_7
REMARK    2  A    between atoms: N_7  and  C_8
REMARK    3  A    between atoms: C_8  and  C_9
REMARK    4  A    between atoms: C_11  and  C_22
REMARK    5  A    between atoms: N_24  and  N_25
REMARK    6  A    between atoms: C_26  and  C_27
REMARK                            x       y       z     vdW  Elec       q    Type
REMARK                         _______ _______ _______ _____ _____    ______ ____
ROOT
ATOM      1  C   UNL     1       4.873  -2.699   0.112  0.00  0.00    +0.154 C 
ATOM      2  C   UNL     1       4.911  -4.241   0.171  0.00  0.00    +0.240 C 
ATOM      3  N   UNL     1       5.795  -4.530   1.308  0.00  0.00    -0.156 NA
ATOM      4  N   UNL     1       6.205  -3.497   1.827  0.00  0.00    -0.077 NA
ATOM      5  N   UNL     1       5.752  -2.314   1.232  0.00  0.00    -0.176 N 
ATOM      6  C   UNL     1       6.068  -1.015   1.623  0.00  0.00    +0.228 A 
ATOM      7  C   UNL     1       6.859  -0.640   2.800  0.00  0.00    +0.204 A 
ATOM      8  N   UNL     1       6.944   0.660   2.840  0.00  0.00    -0.032 NA
ATOM      9  O   UNL     1       6.236   1.177   1.728  0.00  0.00    -0.239 OA
ATOM     10  N   UNL     1       5.715   0.077   1.002  0.00  0.00    -0.030 NA
ATOM     11  N   UNL     1       7.421  -1.522   3.717  0.00  0.00    -0.338 N 
ATOM     12  H   UNL     1       7.304  -2.478   3.605  0.00  0.00    +0.144 HD
ATOM     13  H   UNL     1       7.931  -1.181   4.468  0.00  0.00    +0.144 HD
ENDROOT
BRANCH   2  14
ATOM     14  C   UNL     1       5.482  -4.805  -1.104  0.00  0.00    +0.261 C 
ATOM     15  O   UNL     1       6.641  -5.162  -1.143  0.00  0.00    -0.272 OA
ATOM     16  N   UNL     1       4.706  -4.913  -2.200  0.00  0.00    -0.205 N 
ATOM     17  H   UNL     1       3.780  -4.628  -2.169  0.00  0.00    +0.177 HD
BRANCH  16  18
ATOM     18  N   UNL     1       5.238  -5.438  -3.386  0.00  0.00    -0.188 NA
ATOM     19  C   UNL     1       4.484  -5.543  -4.451  0.00  0.00    +0.136 C 
BRANCH  19  20
ATOM     20  C   UNL     1       5.016  -6.068  -5.637  0.00  0.00    +0.000 C 
ATOM     21  C   UNL     1       4.356  -6.241  -6.852  0.00  0.00    +0.004 A 
ATOM     22  C   UNL     1       3.034  -5.968  -7.267  0.00  0.00    +0.010 A 
ATOM     23  C   UNL     1       2.658  -6.246  -8.541  0.00  0.00    +0.001 A 
ATOM     24  C   UNL     1       3.550  -6.799  -9.464  0.00  0.00    +0.002 A 
ATOM     25  C   UNL     1       4.833  -7.087  -9.136  0.00  0.00    +0.026 A 
ATOM     26  C   UNL     1       5.301  -6.824  -7.821  0.00  0.00    +0.043 A 
ATOM     27  N   UNL     1       6.478  -7.009  -7.262  0.00  0.00    -0.380 N 
ATOM     28  C   UNL     1       6.428  -6.559  -5.868  0.00  0.00    +0.150 C 
ATOM     29  H   UNL     1       7.257  -7.381  -7.705  0.00  0.00    +0.160 HD
ENDBRANCH  19  20
ENDBRANCH  16  18
ENDBRANCH   2  14
BRANCH   1  30
ATOM     30  C   UNL     1       3.450  -2.181   0.333  0.00  0.00    +0.128 C 
BRANCH  30  31
ATOM     31  N   UNL     1       2.639  -2.460  -0.855  0.00  0.00    -0.342 N 
ATOM     32  H   UNL     1       3.051  -2.845  -1.644  0.00  0.00    +0.146 HD
BRANCH  31  36
ATOM     33  C   UNL     1      -1.434  -1.597  -0.843  0.00  0.00    +0.000 A 
ATOM     34  C   UNL     1      -0.849  -2.147  -1.969  0.00  0.00    +0.002 A 
ATOM     35  C   UNL     1       0.502  -2.434  -1.976  0.00  0.00    +0.023 A 
ATOM     36  C   UNL     1       1.273  -2.170  -0.851  0.00  0.00    +0.027 A 
ATOM     37  C   UNL     1       0.681  -1.618   0.278  0.00  0.00    +0.023 A 
ATOM     38  C   UNL     1      -0.670  -1.334   0.279  0.00  0.00    +0.002 A 
ENDBRANCH  31  36
ENDBRANCH  30  31
ENDBRANCH   1  30
TORSDOF 6
