REMARK  Name = ZINC06432353
REMARK  9 active torsions:
REMARK  status: ('A' for Active; 'I' for Inactive)
REMARK    1  A    between atoms: C_1  and  C_2
REMARK    2  A    between atoms: C_2  and  C_3
REMARK    3  A    between atoms: C_4  and  C_25
REMARK    4  A    between atoms: C_6  and  C_8
REMARK    5  A    between atoms: C_8  and  O_10
REMARK    6  A    between atoms: O_10  and  C_11
REMARK    7  A    between atoms: C_11  and  C_12
REMARK    8  A    between atoms: N_14  and  C_15
REMARK    9  A    between atoms: C_18  and  N_22
REMARK                            x       y       z     vdW  Elec       q    Type
REMARK                         _______ _______ _______ _____ _____    ______ ____
ROOT
ATOM      1  C   UNL     1      -5.973   2.675   0.037  0.00  0.00    +0.255 C 
ATOM      2  O   UNL     1      -5.612   3.833   0.046  0.00  0.00    -0.272 OA
ATOM      3  N   UNL     1      -7.287   2.377   0.048  0.00  0.00    -0.281 N 
ATOM      4  H   UNL     1      -7.576   1.454  -0.024  0.00  0.00    +0.155 HD
ENDROOT
BRANCH   3   5
ATOM      5  C   UNL     1      -8.235   3.401   0.164  0.00  0.00    +0.052 A 
ATOM      6  C   UNL     1      -7.999   4.638  -0.421  0.00  0.00    +0.027 A 
ATOM      7  C   UNL     1      -8.936   5.645  -0.306  0.00  0.00    +0.034 A 
ATOM      8  C   UNL     1     -10.109   5.425   0.392  0.00  0.00    +0.128 A 
ATOM      9  C   UNL     1     -10.348   4.194   0.977  0.00  0.00    +0.054 A 
ATOM     10  C   UNL     1      -9.417   3.180   0.860  0.00  0.00    +0.064 A 
ATOM     11 CL   UNL     1      -9.721   1.633   1.588  0.00  0.00    -0.082 Cl
BRANCH   8  12
ATOM     12  N   UNL     1     -11.111   6.507   0.514  0.00  0.00    +0.056 N 
ATOM     13  O   UNL     1     -10.902   7.591  -0.001  0.00  0.00    -0.126 OA
ATOM     14  O   UNL     1     -12.145   6.314   1.128  0.00  0.00    -0.126 OA
ENDBRANCH   8  12
ENDBRANCH   3   5
BRANCH   1  15
ATOM     15  C   UNL     1      -4.950   1.568   0.015  0.00  0.00    +0.328 C 
BRANCH  15  16
ATOM     16  O   UNL     1      -3.616   2.142   0.007  0.00  0.00    -0.451 OA
BRANCH  16  17
ATOM     17  C   UNL     1      -2.579   1.279  -0.013  0.00  0.00    +0.346 C 
ATOM     18  O   UNL     1      -2.784   0.081  -0.024  0.00  0.00    -0.244 OA
BRANCH  17  22
ATOM     19  C   UNL     1       1.076   3.169  -0.038  0.00  0.00    -0.007 A 
ATOM     20  C   UNL     1       1.148   1.812  -0.053  0.00  0.00    -0.039 A 
ATOM     21  C   UNL     1      -0.012   1.079  -0.043  0.00  0.00    +0.026 A 
ATOM     22  C   UNL     1      -1.206   1.786  -0.023  0.00  0.00    +0.097 A 
ATOM     23  S   UNL     1      -0.630   3.475  -0.008  0.00  0.00    -0.087 S 
ATOM     24  C   UNL     1       2.486   1.119  -0.081  0.00  0.00    +0.044 C 
BRANCH  19  26
ATOM     25  C   UNL     1       2.565   4.519  -1.491  0.00  0.00    +0.009 C 
ATOM     26  C   UNL     1       2.206   4.166  -0.046  0.00  0.00    +0.039 C 
ENDBRANCH  19  26
ENDBRANCH  17  22
ENDBRANCH  16  17
ENDBRANCH  15  16
ENDBRANCH   1  15
TORSDOF 7
