REMARK  Name = ZINC35318110
REMARK  6 active torsions:
REMARK  status: ('A' for Active; 'I' for Inactive)
REMARK    1  A    between atoms: C_1  and  C_2
REMARK    2  A    between atoms: N_5  and  C_8
REMARK    3  A    between atoms: C_8  and  C_10
REMARK    4  A    between atoms: C_8  and  C_22
REMARK    5  A    between atoms: C_15  and  N_16
REMARK    6  A    between atoms: N_24  and  C_25
REMARK                            x       y       z     vdW  Elec       q    Type
REMARK                         _______ _______ _______ _____ _____    ______ ____
ROOT
ATOM      1  C   UNL     1      -0.833  -3.912   1.359  0.00  0.00    +0.176 C 
ENDROOT
BRANCH   1   2
ATOM      2  C   UNL     1      -0.066  -3.958   2.655  0.00  0.00    +0.012 A 
ATOM      3  C   UNL     1       1.294  -4.208   2.643  0.00  0.00    +0.057 A 
ATOM      4  C   UNL     1       2.002  -4.252   3.833  0.00  0.00    +0.167 A 
ATOM      5  C   UNL     1       1.340  -4.043   5.041  0.00  0.00    +0.168 A 
ATOM      6  C   UNL     1      -0.022  -3.793   5.046  0.00  0.00    +0.082 A 
ATOM      7  C   UNL     1      -0.721  -3.745   3.853  0.00  0.00    +0.135 A 
ATOM      8  O   UNL     1       2.246  -4.137   6.057  0.00  0.00    -0.453 OA
ATOM      9  C   UNL     1       3.388  -4.808   5.493  0.00  0.00    +0.466 C 
ATOM     10  O   UNL     1       3.323  -4.476   4.093  0.00  0.00    -0.453 OA
BRANCH   7  11
ATOM     11  N   UNL     1      -2.176  -3.471   3.860  0.00  0.00    +0.057 N 
ATOM     12  O   UNL     1      -2.764  -3.355   4.910  0.00  0.00    -0.126 OA
ATOM     13  O   UNL     1      -2.776  -3.364   2.816  0.00  0.00    -0.126 OA
ENDBRANCH   7  11
ENDBRANCH   1   2
BRANCH   1  18
ATOM     14  C   UNL     1      -1.543   1.390  -0.654  0.00  0.00    +0.007 C 
ATOM     15  C   UNL     1      -1.088  -0.060  -0.479  0.00  0.00    -0.012 C 
ATOM     16  C   UNL     1      -2.308  -0.985  -0.494  0.00  0.00    +0.018 C 
ATOM     17  C   UNL     1      -1.852  -2.426  -0.258  0.00  0.00    +0.086 C 
ATOM     18  N   UNL     1      -1.163  -2.517   1.036  0.00  0.00    -0.288 NA
ATOM     19  C   UNL     1       0.039  -1.674   1.057  0.00  0.00    +0.086 C 
ATOM     20  C   UNL     1      -0.360  -0.210   0.860  0.00  0.00    +0.018 C 
ENDBRANCH   1  18
BRANCH   1  21
ATOM     21  C   UNL     1       0.009  -4.498   0.256  0.00  0.00    +0.235 C 
ATOM     22  O   UNL     1       0.605  -3.767  -0.506  0.00  0.00    -0.274 OA
ATOM     23  N   UNL     1       0.099  -5.836   0.115  0.00  0.00    -0.311 N 
ATOM     24  H   UNL     1      -0.432  -6.420   0.679  0.00  0.00    +0.149 HD
BRANCH  23  25
ATOM     25  C   UNL     1       1.000  -6.408  -0.889  0.00  0.00    +0.073 C 
ATOM     26  C   UNL     1       0.287  -6.461  -2.242  0.00  0.00    +0.022 C 
ATOM     27  C   UNL     1       1.228  -7.058  -3.290  0.00  0.00    +0.002 C 
ATOM     28  C   UNL     1       1.629  -8.473  -2.869  0.00  0.00    +0.000 C 
ATOM     29  C   UNL     1       2.341  -8.420  -1.516  0.00  0.00    +0.002 C 
ATOM     30  C   UNL     1       1.400  -7.823  -0.467  0.00  0.00    +0.022 C 
ENDBRANCH  23  25
ENDBRANCH   1  21
TORSDOF 5
