REMARK  Name = ZINC08695094
REMARK  6 active torsions:
REMARK  status: ('A' for Active; 'I' for Inactive)
REMARK    1  A    between atoms: C_6  and  C_7
REMARK    2  A    between atoms: C_7  and  C_8
REMARK    3  A    between atoms: N_14  and  C_17
REMARK    4  A    between atoms: N_24  and  C_25
REMARK    5  A    between atoms: C_25  and  C_26
REMARK    6  A    between atoms: C_26  and  C_27
REMARK                            x       y       z     vdW  Elec       q    Type
REMARK                         _______ _______ _______ _____ _____    ______ ____
ROOT
ATOM      1  C   UNL     1       3.447   6.391   0.207  0.00  0.00    +0.064 C 
ATOM      2  N   UNL     1       3.446   7.671   0.680  0.00  0.00    -0.286 NA
ENDROOT
BRANCH   1   3
ATOM      3  C   UNL     1       2.257   5.812  -0.245  0.00  0.00    +0.210 C 
ATOM      4  C   UNL     1       0.962   6.484  -0.067  0.00  0.00    +0.238 C 
ATOM      5  O   UNL     1       0.891   7.569   0.481  0.00  0.00    -0.274 OA
ATOM      6  N   UNL     1      -0.146   5.868  -0.527  0.00  0.00    -0.238 N 
ATOM      7  C   UNL     1      -0.082   4.676  -1.137  0.00  0.00    +0.319 C 
ATOM      8  O   UNL     1      -1.115   4.174  -1.534  0.00  0.00    -0.251 OA
ATOM      9  N   UNL     1       1.064   4.006  -1.327  0.00  0.00    -0.193 N 
ATOM     10  C   UNL     1       2.248   4.505  -0.917  0.00  0.00    +0.245 C 
ATOM     11  O   UNL     1       3.282   3.890  -1.100  0.00  0.00    -0.274 OA
ATOM     12  H   UNL     1      -1.009   6.298  -0.418  0.00  0.00    +0.159 HD
BRANCH   9  13
ATOM     13  C   UNL     1       1.031   2.761  -1.971  0.00  0.00    +0.045 A 
ATOM     14  C   UNL     1       1.105   1.591  -1.226  0.00  0.00    +0.025 A 
ATOM     15  C   UNL     1       1.072   0.366  -1.863  0.00  0.00    +0.017 A 
ATOM     16  C   UNL     1       0.966   0.303  -3.241  0.00  0.00    +0.018 A 
ATOM     17  C   UNL     1       0.892   1.468  -3.985  0.00  0.00    +0.017 A 
ATOM     18  C   UNL     1       0.925   2.696  -3.353  0.00  0.00    +0.025 A 
ATOM     19 BR   UNL     1       0.921  -1.376  -4.109  0.00  0.00    -0.050 Br
ENDBRANCH   9  13
ENDBRANCH   1   3
BRANCH   1  25
ATOM     20  C   UNL     1       4.766   4.357   0.768  0.00  0.00    +0.012 A 
ATOM     21  C   UNL     1       5.941   3.639   0.727  0.00  0.00    +0.039 A 
ATOM     22  C   UNL     1       7.061   4.170   0.103  0.00  0.00    +0.123 A 
ATOM     23  C   UNL     1       7.004   5.425  -0.486  0.00  0.00    +0.039 A 
ATOM     24  C   UNL     1       5.834   6.151  -0.456  0.00  0.00    +0.012 A 
ATOM     25  C   UNL     1       4.701   5.621   0.171  0.00  0.00    -0.003 A 
ATOM     26  F   UNL     1       8.211   3.463   0.071  0.00  0.00    -0.205 F 
ENDBRANCH   1  25
BRANCH   2  27
ATOM     27  C   UNL     1       4.692   8.278   1.153  0.00  0.00    +0.148 C 
BRANCH  27  28
ATOM     28  C   UNL     1       4.395   9.657   1.747  0.00  0.00    +0.078 C 
BRANCH  28  29
ATOM     29  C   UNL     1       5.678  10.281   2.233  0.00  0.00    +0.037 A 
ATOM     30  C   UNL     1       6.557  10.987   1.496  0.00  0.00    +0.133 A 
ATOM     31  N   UNL     1       7.561  11.367   2.300  0.00  0.00    -0.244 NA
ATOM     32  C   UNL     1       7.337  10.924   3.507  0.00  0.00    +0.196 A 
ATOM     33  N   UNL     1       6.170  10.245   3.510  0.00  0.00    -0.348 N 
ATOM     34  H   UNL     1       5.744   9.800   4.298  0.00  0.00    +0.166 HD
ENDBRANCH  28  29
ENDBRANCH  27  28
ENDBRANCH   2  27
TORSDOF 6
