REMARK  Name = ZINC35032647
REMARK  13 active torsions:
REMARK  status: ('A' for Active; 'I' for Inactive)
REMARK    1  A    between atoms: C_1  and  C_2
REMARK    2  A    between atoms: C_2  and  C_4
REMARK    3  A    between atoms: C_2  and  N_19
REMARK    4  A    between atoms: N_14  and  C_15
REMARK    5  A    between atoms: C_15  and  C_16
REMARK    6  A    between atoms: C_16  and  O_17
REMARK    7  A    between atoms: O_17  and  C_18
REMARK    8  A    between atoms: N_19  and  C_20
REMARK    9  A    between atoms: C_20  and  C_21
REMARK   10  A    between atoms: C_21  and  N_22
REMARK   11  A    between atoms: N_22  and  C_23
REMARK   12  A    between atoms: N_22  and  C_24
REMARK   13  A    between atoms: N_27  and  C_28
REMARK                            x       y       z     vdW  Elec       q    Type
REMARK                         _______ _______ _______ _____ _____    ______ ____
ROOT
ATOM      1  N   UNL     1       0.949   0.121  -1.254  0.00  0.00    -0.277 N 
ATOM      2  C   UNL     1       2.070  -0.626  -1.235  0.00  0.00    +0.307 C 
ATOM      3  O   UNL     1       2.489  -1.067  -0.182  0.00  0.00    -0.252 OA
ATOM      4  N   UNL     1       2.727  -0.886  -2.383  0.00  0.00    -0.268 N 
ATOM      5  H   UNL     1       2.432  -0.479  -3.213  0.00  0.00    +0.156 HD
ENDROOT
BRANCH   4   6
ATOM      6  C   UNL     1       3.835  -1.741  -2.378  0.00  0.00    +0.049 A 
ATOM      7  C   UNL     1       4.616  -1.862  -1.236  0.00  0.00    +0.024 A 
ATOM      8  C   UNL     1       5.708  -2.707  -1.234  0.00  0.00    +0.002 A 
ATOM      9  C   UNL     1       6.025  -3.433  -2.367  0.00  0.00    +0.001 A 
ATOM     10  C   UNL     1       5.250  -3.316  -3.506  0.00  0.00    +0.017 A 
ATOM     11  C   UNL     1       4.152  -2.476  -3.513  0.00  0.00    +0.039 A 
ATOM     12 BR   UNL     1       3.088  -2.322  -5.069  0.00  0.00    -0.048 Br
ENDBRANCH   4   6
BRANCH   1  14
ATOM     13  C   UNL     1       0.182   1.915   0.221  0.00  0.00    +0.036 C 
ATOM     14  C   UNL     1       0.235   0.403  -0.006  0.00  0.00    +0.141 C 
BRANCH  14  15
ATOM     15  C   UNL     1      -1.167  -0.141  -0.096  0.00  0.00    +0.133 A 
ATOM     16  N   UNL     1      -1.976   0.382  -0.967  0.00  0.00    -0.232 NA
ATOM     17  C   UNL     1      -3.253  -0.056  -1.105  0.00  0.00    +0.078 A 
ATOM     18  C   UNL     1      -4.123   0.505  -2.041  0.00  0.00    +0.028 A 
ATOM     19  C   UNL     1      -5.410   0.029  -2.147  0.00  0.00    +0.002 A 
ATOM     20  C   UNL     1      -5.856  -1.004  -1.333  0.00  0.00    +0.001 A 
ATOM     21  C   UNL     1      -5.016  -1.574  -0.401  0.00  0.00    +0.015 A 
ATOM     22  C   UNL     1      -3.709  -1.107  -0.278  0.00  0.00    +0.065 A 
ATOM     23  C   UNL     1      -2.768  -1.676   0.697  0.00  0.00    +0.262 A 
ATOM     24  O   UNL     1      -3.099  -2.583   1.439  0.00  0.00    -0.267 OA
ATOM     25  N   UNL     1      -1.519  -1.157   0.735  0.00  0.00    -0.292 N 
BRANCH  25  26
ATOM     26  C   UNL     1      -0.539  -1.691   1.684  0.00  0.00    +0.154 C 
BRANCH  26  27
ATOM     27  C   UNL     1      -0.533  -0.831   2.949  0.00  0.00    +0.181 C 
BRANCH  27  28
ATOM     28  O   UNL     1      -1.783  -0.972   3.627  0.00  0.00    -0.381 OA
ATOM     29  C   UNL     1      -1.882  -0.205   4.829  0.00  0.00    +0.194 C 
ENDBRANCH  27  28
ENDBRANCH  26  27
ENDBRANCH  25  26
ENDBRANCH  14  15
ENDBRANCH   1  14
BRANCH   1  30
ATOM     30  C   UNL     1       0.444   0.652  -2.523  0.00  0.00    +0.091 C 
BRANCH  30  31
ATOM     31  C   UNL     1       1.060   2.029  -2.780  0.00  0.00    -0.060 C 
BRANCH  31  32
ATOM     32  N   UNL     1       0.554   2.561  -4.053  0.00  0.00    +0.377 N 
ATOM     33  C   UNL     1       1.050   3.931  -4.242  0.00  0.00    -0.097 C 
ATOM     34  C   UNL     1       1.020   1.714  -5.158  0.00  0.00    -0.097 C 
ATOM     35  H   UNL     1      -0.455   2.568  -4.036  0.00  0.00    -0.083 HD
ENDBRANCH  31  32
ENDBRANCH  30  31
ENDBRANCH   1  30
TORSDOF 9
