REMARK  Name = ZINC67401214
REMARK  8 active torsions:
REMARK  status: ('A' for Active; 'I' for Inactive)
REMARK    1  A    between atoms: C_1  and  C_2
REMARK    2  A    between atoms: C_2  and  C_4
REMARK    3  A    between atoms: C_2  and  N_14
REMARK    4  A    between atoms: N_10  and  C_11
REMARK    5  A    between atoms: N_10  and  C_12
REMARK    6  A    between atoms: C_17  and  C_20
REMARK    7  A    between atoms: C_20  and  C_22
REMARK    8  A    between atoms: C_20  and  O_29
REMARK                            x       y       z     vdW  Elec       q    Type
REMARK                         _______ _______ _______ _____ _____    ______ ____
ROOT
ATOM      1  N   UNL     1       0.713  -0.491   1.192  0.00  0.00    +0.386 N 
ATOM      2  C   UNL     1       0.724  -1.958   1.187  0.00  0.00    -0.077 C 
ATOM      3  C   UNL     1       1.392  -2.471   2.465  0.00  0.00    -0.012 C 
ATOM      4  C   UNL     1       2.829  -1.948   2.528  0.00  0.00    +0.019 C 
ATOM      5  C   UNL     1       2.809  -0.419   2.458  0.00  0.00    -0.012 C 
ATOM      6  C   UNL     1       2.089   0.018   1.180  0.00  0.00    -0.077 C 
ATOM      7  H   UNL     1       0.241  -0.163   2.022  0.00  0.00    -0.081 HD
ENDROOT
BRANCH   1   9
ATOM      8  C   UNL     1      -0.019   1.526   0.010  0.00  0.00    -0.005 C 
ATOM      9  C   UNL     1       0.002  -0.004   0.002  0.00  0.00    -0.002 C 
BRANCH   9  10
ATOM     10  C   UNL     1      -1.412  -0.526   0.013  0.00  0.00    +0.123 A 
ATOM     11  N   UNL     1      -2.124  -0.477   1.125  0.00  0.00    -0.201 NA
ATOM     12  C   UNL     1      -3.373  -0.936   1.138  0.00  0.00    +0.217 A 
ATOM     13  N   UNL     1      -3.904  -1.444   0.031  0.00  0.00    -0.181 NA
ATOM     14  C   UNL     1      -3.185  -1.492  -1.085  0.00  0.00    +0.222 A 
ATOM     15  N   UNL     1      -1.938  -1.026  -1.091  0.00  0.00    -0.201 NA
ATOM     16  N   UNL     1      -3.732  -2.019  -2.237  0.00  0.00    -0.306 N 
ATOM     17  C   UNL     1      -5.106  -2.527  -2.229  0.00  0.00    +0.132 C 
ATOM     18  C   UNL     1      -2.938  -2.071  -3.467  0.00  0.00    +0.132 C 
ATOM     19  N   UNL     1      -4.116  -0.885   2.300  0.00  0.00    -0.327 N 
ATOM     20  H   UNL     1      -3.728  -0.514   3.108  0.00  0.00    +0.145 HD
ATOM     21  H   UNL     1      -5.026  -1.220   2.309  0.00  0.00    +0.145 HD
ENDBRANCH   9  10
ENDBRANCH   1   9
BRANCH   4  22
ATOM     22  C   UNL     1       3.478  -2.392   3.842  0.00  0.00    +0.147 C 
BRANCH  22  23
ATOM     23  C   UNL     1       4.893  -1.876   3.902  0.00  0.00    -0.019 A 
ATOM     24  C   UNL     1       5.897  -2.534   3.218  0.00  0.00    +0.007 A 
ATOM     25  C   UNL     1       7.195  -2.062   3.274  0.00  0.00    +0.020 A 
ATOM     26  C   UNL     1       7.489  -0.930   4.014  0.00  0.00    +0.041 A 
ATOM     27  C   UNL     1       6.482  -0.273   4.699  0.00  0.00    +0.020 A 
ATOM     28  C   UNL     1       5.184  -0.743   4.638  0.00  0.00    +0.007 A 
ATOM     29 CL   UNL     1       9.118  -0.337   4.085  0.00  0.00    -0.084 Cl
ENDBRANCH  22  23
BRANCH  22  30
ATOM     30  O   UNL     1       3.487  -3.819   3.910  0.00  0.00    -0.387 OA
ATOM     31  H   UNL     1       3.977  -4.244   3.193  0.00  0.00    +0.210 HD
ENDBRANCH  22  30
ENDBRANCH   4  22
TORSDOF 5
