REMARK  Name = ZINC63366875
REMARK  8 active torsions:
REMARK  status: ('A' for Active; 'I' for Inactive)
REMARK    1  A    between atoms: C_1  and  C_2
REMARK    2  A    between atoms: C_2  and  C_3
REMARK    3  A    between atoms: C_2  and  C_4
REMARK    4  A    between atoms: C_4  and  C_5
REMARK    5  A    between atoms: C_5  and  C_7
REMARK    6  A    between atoms: C_5  and  N_17
REMARK    7  A    between atoms: C_18  and  C_20
REMARK    8  A    between atoms: C_20  and  C_21
REMARK                            x       y       z     vdW  Elec       q    Type
REMARK                         _______ _______ _______ _____ _____    ______ ____
ROOT
ATOM      1  C   UNL     1      -1.416  -2.058  -0.121  0.00  0.00    +0.113 C 
ENDROOT
BRANCH   1   2
ATOM      2  C   UNL     1      -2.841  -2.598   0.015  0.00  0.00    +0.201 C 
ATOM      3  N   UNL     1      -3.420  -2.206   1.310  0.00  0.00    -0.245 N 
ATOM      4  N   UNL     1      -3.699  -3.396   1.992  0.00  0.00    -0.170 NA
ATOM      5  C   UNL     1      -3.367  -4.442   1.285  0.00  0.00    +0.144 C 
ATOM      6  N   UNL     1      -2.833  -4.067   0.054  0.00  0.00    -0.268 N 
ATOM      7  C   UNL     1      -2.420  -5.012  -0.846  0.00  0.00    +0.078 C 
ATOM      8  C   UNL     1      -2.518  -6.324  -0.572  0.00  0.00    +0.015 C 
ATOM      9  C   UNL     1      -3.052  -6.773   0.655  0.00  0.00    +0.005 C 
ATOM     10  C   UNL     1      -3.474  -5.875   1.588  0.00  0.00    +0.045 C 
ATOM     11  H   UNL     1      -3.577  -1.303   1.628  0.00  0.00    +0.170 HD
ENDBRANCH   1   2
BRANCH   1  12
ATOM     12  N   UNL     1      -0.876  -2.426  -1.433  0.00  0.00    -0.309 N 
ATOM     13  C   UNL     1       0.456  -2.525  -1.610  0.00  0.00    +0.217 C 
ATOM     14  O   UNL     1       1.209  -2.308  -0.684  0.00  0.00    -0.275 OA
ATOM     15  H   UNL     1      -1.478  -2.600  -2.173  0.00  0.00    +0.149 HD
BRANCH  13  16
ATOM     16  C   UNL     1       1.011  -2.904  -2.959  0.00  0.00    +0.129 C 
BRANCH  16  17
ATOM     17  C   UNL     1       2.515  -2.943  -2.890  0.00  0.00    -0.033 C 
ATOM     18  C   UNL     1       3.291  -4.030  -2.674  0.00  0.00    -0.001 A 
ATOM     19  C   UNL     1       2.978  -5.445  -2.445  0.00  0.00    +0.010 A 
ATOM     20  C   UNL     1       3.993  -6.319  -2.254  0.00  0.00    +0.001 A 
ATOM     21  C   UNL     1       5.333  -5.907  -2.269  0.00  0.00    +0.002 A 
ATOM     22  C   UNL     1       5.699  -4.624  -2.473  0.00  0.00    +0.026 A 
ATOM     23  C   UNL     1       4.714  -3.620  -2.685  0.00  0.00    +0.043 A 
ATOM     24  N   UNL     1       4.814  -2.331  -2.900  0.00  0.00    -0.380 N 
ATOM     25  C   UNL     1       3.464  -1.777  -3.056  0.00  0.00    +0.145 C 
ATOM     26  H   UNL     1       5.642  -1.828  -2.952  0.00  0.00    +0.160 HD
ENDBRANCH  16  17
ENDBRANCH  13  16
ENDBRANCH   1  12
BRANCH   1  27
ATOM     27  C   UNL     1      -1.433  -0.534   0.013  0.00  0.00    +0.029 C 
BRANCH  27  29
ATOM     28  C   UNL     1      -0.019   1.526   0.010  0.00  0.00    +0.007 C 
ATOM     29  C   UNL     1       0.002  -0.004   0.002  0.00  0.00    -0.015 C 
ATOM     30  C   UNL     1       0.742  -0.511   1.242  0.00  0.00    +0.007 C 
ENDBRANCH  27  29
ENDBRANCH   1  27
TORSDOF 6
