REMARK  Name = ZINC62566559
REMARK  7 active torsions:
REMARK  status: ('A' for Active; 'I' for Inactive)
REMARK    1  A    between atoms: C_4  and  C_7
REMARK    2  A    between atoms: C_16  and  C_18
REMARK    3  A    between atoms: C_18  and  N_19
REMARK    4  A    between atoms: N_19  and  C_20
REMARK    5  A    between atoms: N_19  and  C_33
REMARK    6  A    between atoms: C_20  and  C_21
REMARK    7  A    between atoms: C_33  and  C_34
REMARK                            x       y       z     vdW  Elec       q    Type
REMARK                         _______ _______ _______ _____ _____    ______ ____
ROOT
ATOM      1  N   UNL     1       6.438  -5.174   3.026  0.00  0.00    -0.286 NA
ENDROOT
BRANCH   1   2
ATOM      2  C   UNL     1       5.091  -4.736   3.416  0.00  0.00    +0.159 C 
BRANCH   2  12
ATOM      3  C   UNL     1       3.581  -0.541  -0.135  0.00  0.00    +0.004 A 
ATOM      4  C   UNL     1       4.544  -0.260  -1.045  0.00  0.00    +0.056 A 
ATOM      5  S   UNL     1       5.843  -1.411  -0.640  0.00  0.00    -0.076 S 
ATOM      6  C   UNL     1       5.071  -2.234   0.728  0.00  0.00    +0.116 A 
ATOM      7  C   UNL     1       3.826  -1.594   0.843  0.00  0.00    +0.080 A 
ATOM      8  C   UNL     1       2.979  -2.068   1.895  0.00  0.00    +0.260 A 
ATOM      9  O   UNL     1       1.877  -1.578   2.071  0.00  0.00    -0.267 OA
ATOM     10  N   UNL     1       3.418  -3.064   2.687  0.00  0.00    -0.309 N 
ATOM     11  H   UNL     1       2.849  -3.389   3.402  0.00  0.00    +0.170 HD
ATOM     12  C   UNL     1       4.643  -3.622   2.505  0.00  0.00    +0.125 A 
ATOM     13  N   UNL     1       5.433  -3.218   1.547  0.00  0.00    -0.225 NA
BRANCH   3  17
ATOM     14  C   UNL     1      -0.081   1.619  -0.121  0.00  0.00    +0.000 A 
ATOM     15  C   UNL     1       1.122   2.302  -0.152  0.00  0.00    +0.001 A 
ATOM     16  C   UNL     1       2.313   1.606  -0.157  0.00  0.00    +0.008 A 
ATOM     17  C   UNL     1       2.304   0.212  -0.130  0.00  0.00    -0.017 A 
ATOM     18  C   UNL     1       1.089  -0.471  -0.098  0.00  0.00    +0.008 A 
ATOM     19  C   UNL     1      -0.097   0.236  -0.094  0.00  0.00    +0.001 A 
ENDBRANCH   3  17
ENDBRANCH   2  12
ENDBRANCH   1   2
BRANCH   1  20
ATOM     20  C   UNL     1       7.005  -6.087   4.028  0.00  0.00    +0.159 C 
BRANCH  20  21
ATOM     21  C   UNL     1       7.453  -5.297   5.231  0.00  0.00    +0.125 A 
ATOM     22  N   UNL     1       7.913  -5.977   6.313  0.00  0.00    -0.309 N 
ATOM     23  H   UNL     1       7.945  -6.946   6.294  0.00  0.00    +0.170 HD
ATOM     24  C   UNL     1       8.328  -5.314   7.418  0.00  0.00    +0.259 A 
ATOM     25  O   UNL     1       8.744  -5.911   8.395  0.00  0.00    -0.267 OA
ATOM     26  C   UNL     1       8.258  -3.846   7.393  0.00  0.00    +0.065 A 
ATOM     27  C   UNL     1       8.660  -3.070   8.478  0.00  0.00    +0.015 A 
ATOM     28  C   UNL     1       8.572  -1.697   8.400  0.00  0.00    +0.001 A 
ATOM     29  C   UNL     1       8.088  -1.084   7.252  0.00  0.00    +0.002 A 
ATOM     30  C   UNL     1       7.685  -1.833   6.169  0.00  0.00    +0.028 A 
ATOM     31  C   UNL     1       7.765  -3.226   6.223  0.00  0.00    +0.078 A 
ATOM     32  N   UNL     1       7.385  -4.002   5.178  0.00  0.00    -0.232 NA
ENDBRANCH  20  21
ENDBRANCH   1  20
BRANCH   1  33
ATOM     33  C   UNL     1       6.425  -5.795   1.695  0.00  0.00    +0.116 C 
BRANCH  33  34
ATOM     34  C   UNL     1       7.845  -5.813   1.127  0.00  0.00    +0.132 C 
ATOM     35  C   UNL     1       7.822  -6.338  -0.325  0.00  0.00    +0.035 C 
ATOM     36  C   UNL     1       9.103  -7.215  -0.379  0.00  0.00    +0.031 C 
ATOM     37  C   UNL     1       9.137  -7.774   1.065  0.00  0.00    +0.160 C 
ATOM     38  O   UNL     1       8.666  -6.699   1.897  0.00  0.00    -0.375 OA
ENDBRANCH  33  34
ENDBRANCH   1  33
TORSDOF 7
