REMARK  Name = ZINC48742175
REMARK  10 active torsions:
REMARK  status: ('A' for Active; 'I' for Inactive)
REMARK    1  A    between atoms: C_1  and  C_2
REMARK    2  A    between atoms: C_5  and  N_11
REMARK    3  A    between atoms: C_7  and  N_8
REMARK    4  A    between atoms: C_12  and  C_14
REMARK    5  A    between atoms: N_16  and  C_17
REMARK    6  A    between atoms: C_17  and  C_18
REMARK    7  A    between atoms: C_18  and  C_20
REMARK    8  A    between atoms: C_18  and  N_25
REMARK    9  A    between atoms: N_25  and  C_26
REMARK   10  A    between atoms: N_25  and  C_27
REMARK                            x       y       z     vdW  Elec       q    Type
REMARK                         _______ _______ _______ _____ _____    ______ ____
ROOT
ATOM      1  C   UNL     1       0.668  -7.196  -0.300  0.00  0.00    +0.299 C 
ATOM      2  O   UNL     1       0.624  -7.504   0.873  0.00  0.00    -0.265 OA
ATOM      3  N   UNL     1       0.762  -8.153  -1.244  0.00  0.00    -0.309 N 
ATOM      4  H   UNL     1       0.798  -7.907  -2.182  0.00  0.00    +0.149 HD
ENDROOT
BRANCH   1   6
ATOM      5  N   UNL     1       0.524  -4.801   0.247  0.00  0.00    -0.278 N 
ATOM      6  C   UNL     1       0.619  -5.757  -0.697  0.00  0.00    +0.303 C 
ATOM      7  O   UNL     1       0.663  -5.450  -1.871  0.00  0.00    -0.265 OA
ATOM      8  H   UNL     1       0.414  -5.048   1.178  0.00  0.00    +0.155 HD
BRANCH   5  13
ATOM      9  C   UNL     1       0.779   0.670  -1.226  0.00  0.00    +0.046 C 
ATOM     10  C   UNL     1       0.711  -0.783  -0.835  0.00  0.00    -0.020 A 
ATOM     11  C   UNL     1       1.264  -1.202   0.362  0.00  0.00    +0.007 A 
ATOM     12  C   UNL     1       1.204  -2.533   0.724  0.00  0.00    +0.024 A 
ATOM     13  C   UNL     1       0.587  -3.453  -0.116  0.00  0.00    +0.036 A 
ATOM     14  C   UNL     1       0.032  -3.028  -1.317  0.00  0.00    +0.056 A 
ATOM     15  C   UNL     1       0.091  -1.694  -1.670  0.00  0.00    +0.131 A 
BRANCH  15  16
ATOM     16  N   UNL     1      -0.504  -1.241  -2.947  0.00  0.00    +0.057 N 
ATOM     17  O   UNL     1      -0.913  -0.108  -3.054  0.00  0.00    -0.126 OA
ATOM     18  O   UNL     1      -0.581  -2.003  -3.882  0.00  0.00    -0.126 OA
ENDBRANCH  15  16
ENDBRANCH   5  13
ENDBRANCH   1   6
BRANCH   3  19
ATOM     19  C   UNL     1       0.811  -9.565  -0.855  0.00  0.00    +0.094 C 
BRANCH  19  20
ATOM     20  C   UNL     1       1.042 -10.429  -2.096  0.00  0.00    -0.014 C 
BRANCH  20  21
ATOM     21  C   UNL     1       2.382 -10.093  -2.699  0.00  0.00    -0.022 A 
ATOM     22  C   UNL     1       2.666  -9.296  -3.758  0.00  0.00    +0.009 A 
ATOM     23  C   UNL     1       3.985  -9.130  -4.138  0.00  0.00    +0.008 A 
ATOM     24  C   UNL     1       4.955  -9.770  -3.441  0.00  0.00    +0.045 A 
ATOM     25  S   UNL     1       4.008 -10.636  -2.199  0.00  0.00    -0.103 S 
ENDBRANCH  20  21
BRANCH  20  26
ATOM     26  N   UNL     1       1.018 -11.848  -1.716  0.00  0.00    +0.382 N 
ATOM     27  C   UNL     1      -0.325 -12.205  -1.241  0.00  0.00    -0.096 C 
ATOM     28  C   UNL     1       1.360 -12.673  -2.883  0.00  0.00    -0.096 C 
ATOM     29  H   UNL     1       1.690 -12.011  -0.981  0.00  0.00    -0.082 HD
ENDBRANCH  20  26
ENDBRANCH  19  20
ENDBRANCH   3  19
TORSDOF 7
