REMARK  Name = ZINC20734990
REMARK  5 active torsions:
REMARK  status: ('A' for Active; 'I' for Inactive)
REMARK    1  A    between atoms: C_1  and  C_2
REMARK    2  A    between atoms: C_2  and  C_3
REMARK    3  A    between atoms: C_2  and  C_4
REMARK    4  A    between atoms: C_7  and  C_10
REMARK    5  A    between atoms: C_12  and  C_15
REMARK                            x       y       z     vdW  Elec       q    Type
REMARK                         _______ _______ _______ _____ _____    ______ ____
ROOT
ATOM      1  C   UNL     1      -2.709   2.943   4.747  0.00  0.00    +0.202 A 
ATOM      2  N   UNL     1      -2.913   4.230   5.097  0.00  0.00    -0.187 NA
ATOM      3  C   UNL     1      -3.567   4.184   6.245  0.00  0.00    +0.264 A 
ATOM      4  O   UNL     1      -3.726   2.886   6.550  0.00  0.00    -0.332 OA
ATOM      5  N   UNL     1      -3.231   2.195   5.685  0.00  0.00    -0.056 NA
ENDROOT
BRANCH   3   6
ATOM      6  C   UNL     1      -4.027   5.336   7.041  0.00  0.00    +0.102 A 
ATOM      7  C   UNL     1      -3.795   6.623   6.608  0.00  0.00    +0.100 A 
ATOM      8  N   UNL     1      -4.199   7.696   7.306  0.00  0.00    -0.360 N 
ATOM      9  H   UNL     1      -3.994   8.708   6.927  0.00  0.00    +0.165 HD
ATOM     10  C   UNL     1      -4.875   7.595   8.502  0.00  0.00    +0.050 A 
ATOM     11  C   UNL     1      -5.274   8.739   9.188  0.00  0.00    +0.026 A 
ATOM     12  C   UNL     1      -5.950   8.620  10.383  0.00  0.00    +0.002 A 
ATOM     13  C   UNL     1      -6.239   7.371  10.913  0.00  0.00    +0.001 A 
ATOM     14  C   UNL     1      -5.856   6.234  10.256  0.00  0.00    +0.014 A 
ATOM     15  C   UNL     1      -5.170   6.333   9.045  0.00  0.00    +0.046 A 
ATOM     16  C   UNL     1      -4.747   5.130   8.306  0.00  0.00    +0.202 A 
ATOM     17  O   UNL     1      -4.981   4.010   8.729  0.00  0.00    -0.286 OA
ENDBRANCH   3   6
BRANCH   1  21
ATOM     18  C   UNL     1      -0.718   1.572   1.248  0.00  0.00    -0.045 A 
ATOM     19  C   UNL     1      -0.854   2.929   1.476  0.00  0.00    +0.004 A 
ATOM     20  C   UNL     1      -1.504   3.380   2.607  0.00  0.00    +0.012 A 
ATOM     21  C   UNL     1      -2.014   2.465   3.526  0.00  0.00    +0.022 A 
ATOM     22  C   UNL     1      -1.869   1.099   3.294  0.00  0.00    +0.012 A 
ATOM     23  C   UNL     1      -1.222   0.659   2.157  0.00  0.00    +0.004 A 
BRANCH  18  25
ATOM     24  C   UNL     1       1.423   1.615  -0.003  0.00  0.00    +0.012 C 
ATOM     25  C   UNL     1      -0.013   1.086   0.008  0.00  0.00    +0.013 C 
ATOM     26  C   UNL     1      -0.753   1.593  -1.232  0.00  0.00    +0.012 C 
ENDBRANCH  18  25
ENDBRANCH   1  21
TORSDOF 3
