REMARK  Name = ZINC17093017
REMARK  9 active torsions:
REMARK  status: ('A' for Active; 'I' for Inactive)
REMARK    1  A    between atoms: C_4  and  N_29
REMARK    2  A    between atoms: C_5  and  N_7
REMARK    3  A    between atoms: C_8  and  C_10
REMARK    4  A    between atoms: C_10  and  C_27
REMARK    5  A    between atoms: C_11  and  C_12
REMARK    6  A    between atoms: C_15  and  O_18
REMARK    7  A    between atoms: O_18  and  C_19
REMARK    8  A    between atoms: C_19  and  C_20
REMARK    9  A    between atoms: C_20  and  N_21
REMARK                            x       y       z     vdW  Elec       q    Type
REMARK                         _______ _______ _______ _____ _____    ______ ____
ROOT
ATOM      1  C   UNL     1      -4.916  -0.261  -0.099  0.00  0.00    +0.114 C 
ATOM      2  C   UNL     1      -5.880  -0.704   0.781  0.00  0.00    +0.032 C 
ENDROOT
BRANCH   2   3
ATOM      3  C   UNL     1      -7.150   0.015   0.897  0.00  0.00    -0.023 A 
ATOM      4  C   UNL     1      -7.211   1.388   0.615  0.00  0.00    +0.011 A 
ATOM      5  C   UNL     1      -8.400   2.052   0.720  0.00  0.00    +0.046 A 
ATOM      6  C   UNL     1      -9.547   1.372   1.117  0.00  0.00    +0.121 A 
ATOM      7  C   UNL     1      -9.492   0.011   1.403  0.00  0.00    +0.046 A 
ATOM      8  C   UNL     1      -8.310  -0.665   1.296  0.00  0.00    +0.011 A 
BRANCH   6   9
ATOM      9  O   UNL     1     -10.724   2.038   1.225  0.00  0.00    -0.491 OA
BRANCH   9  10
ATOM     10  C   UNL     1     -10.710   3.433   0.917  0.00  0.00    +0.244 C 
BRANCH  10  11
ATOM     11  C   UNL     1     -12.117   4.009   1.095  0.00  0.00    +0.125 C 
BRANCH  11  12
ATOM     12  N   UNL     1     -12.496   3.945   2.513  0.00  0.00    -0.295 NA
ATOM     13  C   UNL     1     -13.953   4.052   2.674  0.00  0.00    +0.112 C 
ATOM     14  C   UNL     1     -14.308   3.921   4.157  0.00  0.00    +0.175 C 
ATOM     15  O   UNL     1     -13.607   4.923   4.899  0.00  0.00    -0.377 OA
ATOM     16  C   UNL     1     -12.185   4.849   4.766  0.00  0.00    +0.175 C 
ATOM     17  C   UNL     1     -11.809   4.988   3.288  0.00  0.00    +0.112 C 
ENDBRANCH  11  12
ENDBRANCH  10  11
ENDBRANCH   9  10
ENDBRANCH   6   9
ENDBRANCH   2   3
BRANCH   1  19
ATOM     18  N   UNL     1      -2.635  -0.441  -0.954  0.00  0.00    -0.279 N 
ATOM     19  C   UNL     1      -3.579  -0.874  -0.094  0.00  0.00    +0.259 C 
ATOM     20  O   UNL     1      -3.324  -1.772   0.687  0.00  0.00    -0.269 OA
ATOM     21  H   UNL     1      -2.839   0.422  -1.604  0.00  0.00    +0.155 HD
BRANCH  18  26
ATOM     22  C   UNL     1      -0.100  -3.103  -0.901  0.00  0.00    +0.002 A 
ATOM     23  C   UNL     1       1.049  -2.374  -1.149  0.00  0.00    +0.002 A 
ATOM     24  C   UNL     1       0.977  -1.006  -1.338  0.00  0.00    +0.034 A 
ATOM     25  C   UNL     1      -0.243  -0.362  -1.269  0.00  0.00    +0.147 A 
ATOM     26  C   UNL     1      -1.399  -1.090  -1.020  0.00  0.00    +0.064 A 
ATOM     27  C   UNL     1      -1.323  -2.465  -0.836  0.00  0.00    +0.025 A 
BRANCH  25  28
ATOM     28  N   UNL     1      -0.319   1.103  -1.466  0.00  0.00    +0.058 N 
ATOM     29  O   UNL     1       0.703   1.754  -1.598  0.00  0.00    -0.126 OA
ATOM     30  O   UNL     1      -1.403   1.658  -1.501  0.00  0.00    -0.126 OA
ENDBRANCH  25  28
ENDBRANCH  18  26
ENDBRANCH   1  19
BRANCH   1  31
ATOM     31  C   UNL     1      -5.215   0.796  -1.017  0.00  0.00    +0.104 C 
ATOM     32  N   UNL     1      -5.453   1.634  -1.746  0.00  0.00    -0.191 NA
ENDBRANCH   1  31
TORSDOF 9
