REMARK  Name = ZINC38965336
REMARK  5 active torsions:
REMARK  status: ('A' for Active; 'I' for Inactive)
REMARK    1  A    between atoms: C_3  and  C_8
REMARK    2  A    between atoms: N_14  and  N_15
REMARK    3  A    between atoms: C_16  and  C_17
REMARK    4  A    between atoms: C_20  and  O_24
REMARK    5  A    between atoms: C_21  and  O_23
REMARK                            x       y       z     vdW  Elec       q    Type
REMARK                         _______ _______ _______ _____ _____    ______ ____
ROOT
ATOM      1  C   UNL     1       3.844   2.280   0.089  0.00  0.00    +0.264 C 
ATOM      2  N   UNL     1       3.611   3.491  -0.713  0.00  0.00    -0.189 NA
ATOM      3  N   UNL     1       4.215   3.366  -1.781  0.00  0.00    -0.219 N 
ATOM      4  C   UNL     1       4.888   2.189  -1.886  0.00  0.00    +0.174 C 
ATOM      5  S   UNL     1       5.822   1.710  -3.239  0.00  0.00    -0.015 S 
ATOM      6  N   UNL     1       4.713   1.450  -0.764  0.00  0.00    -0.172 N 
ATOM      7  H   UNL     1       4.211   4.041  -2.478  0.00  0.00    +0.176 HD
ENDROOT
BRANCH   1  10
ATOM      8  C   UNL     1       0.187   1.652   0.789  0.00  0.00    +0.002 A 
ATOM      9  C   UNL     1       1.381   2.301   0.534  0.00  0.00    +0.007 A 
ATOM     10  C   UNL     1       2.543   1.572   0.367  0.00  0.00    -0.001 A 
ATOM     11  C   UNL     1       2.512   0.193   0.454  0.00  0.00    +0.027 A 
ATOM     12  C   UNL     1       1.318  -0.458   0.709  0.00  0.00    +0.041 A 
ATOM     13  C   UNL     1       0.155   0.273   0.877  0.00  0.00    +0.020 A 
ATOM     14 CL   UNL     1       1.279  -2.190   0.819  0.00  0.00    -0.084 Cl
ENDBRANCH   1  10
BRANCH   6  15
ATOM     15  N   UNL     1       5.239   0.183  -0.478  0.00  0.00    -0.183 NA
ATOM     16  C   UNL     1       6.084  -0.370  -1.295  0.00  0.00    +0.138 C 
BRANCH  16  17
ATOM     17  C   UNL     1       6.556  -1.744  -1.048  0.00  0.00    -0.002 A 
ATOM     18  C   UNL     1       6.091  -2.456   0.061  0.00  0.00    +0.013 A 
ATOM     19  C   UNL     1       6.534  -3.742   0.289  0.00  0.00    +0.050 A 
ATOM     20  C   UNL     1       7.441  -4.331  -0.580  0.00  0.00    +0.158 A 
ATOM     21  C   UNL     1       7.909  -3.627  -1.687  0.00  0.00    +0.159 A 
ATOM     22  C   UNL     1       7.466  -2.340  -1.926  0.00  0.00    +0.058 A 
BRANCH  21  23
ATOM     23  O   UNL     1       8.799  -4.208  -2.536  0.00  0.00    -0.503 OA
ATOM     24  H   UNL     1       8.388  -4.693  -3.265  0.00  0.00    +0.292 HD
ENDBRANCH  21  23
BRANCH  20  25
ATOM     25  O   UNL     1       7.875  -5.598  -0.349  0.00  0.00    -0.503 OA
ATOM     26  H   UNL     1       7.333  -6.282  -0.766  0.00  0.00    +0.292 HD
ENDBRANCH  20  25
ENDBRANCH  16  17
ENDBRANCH   6  15
TORSDOF 5
