REMARK  Name = ZINC12285172
REMARK  12 active torsions:
REMARK  status: ('A' for Active; 'I' for Inactive)
REMARK    1  A    between atoms: C_1  and  C_2
REMARK    2  A    between atoms: C_2  and  O_3
REMARK    3  A    between atoms: O_3  and  C_4
REMARK    4  A    between atoms: C_4  and  C_6
REMARK    5  A    between atoms: C_10  and  N_11
REMARK    6  A    between atoms: C_12  and  C_14
REMARK    7  A    between atoms: C_14  and  N_15
REMARK    8  A    between atoms: C_17  and  N_20
REMARK    9  A    between atoms: C_24  and  C_28
REMARK   10  A    between atoms: C_28  and  C_29
REMARK   11  A    between atoms: C_28  and  C_30
REMARK   12  A    between atoms: C_28  and  C_31
REMARK                            x       y       z     vdW  Elec       q    Type
REMARK                         _______ _______ _______ _____ _____    ______ ____
ROOT
ATOM      1  C   UNL     1      -8.690   3.732   2.868  0.00  0.00    +0.091 A 
ATOM      2  C   UNL     1      -8.992   4.521   4.051  0.00  0.00    -0.021 A 
ATOM      3  C   UNL     1      -7.922   5.071   4.664  0.00  0.00    -0.004 A 
ATOM      4  S   UNL     1      -6.531   4.552   3.700  0.00  0.00    -0.077 S 
ATOM      5  C   UNL     1      -7.358   3.625   2.492  0.00  0.00    +0.086 A 
ATOM      6  C   UNL     1      -7.927   5.925   5.894  0.00  0.00    +0.046 C 
ATOM      7  C   UNL     1      -9.294   5.781   6.579  0.00  0.00    -0.000 C 
ATOM      8  C   UNL     1     -10.393   5.945   5.525  0.00  0.00    +0.009 C 
ATOM      9  C   UNL     1     -10.402   4.734   4.590  0.00  0.00    +0.037 C 
ENDROOT
BRANCH   5  10
ATOM     10  N   UNL     1      -6.819   2.938   1.415  0.00  0.00    -0.278 N 
ATOM     11  C   UNL     1      -5.488   2.948   1.208  0.00  0.00    +0.239 C 
ATOM     12  O   UNL     1      -4.761   3.557   1.963  0.00  0.00    -0.273 OA
ATOM     13  H   UNL     1      -7.401   2.450   0.811  0.00  0.00    +0.155 HD
BRANCH  11  14
ATOM     14  C   UNL     1      -4.902   2.201   0.037  0.00  0.00    +0.239 C 
BRANCH  14  15
ATOM     15  N   UNL     1      -3.447   2.365   0.031  0.00  0.00    -0.260 N 
ATOM     16  C   UNL     1      -2.535   1.370   0.021  0.00  0.00    +0.141 A 
ATOM     17  C   UNL     1      -1.306   1.936   0.019  0.00  0.00    +0.163 A 
ATOM     18  C   UNL     1      -1.472   3.325   0.033  0.00  0.00    +0.167 A 
ATOM     19  N   UNL     1      -2.755   3.583   0.035  0.00  0.00    -0.177 NA
BRANCH  17  20
ATOM     20  N   UNL     1      -0.014   1.214   0.009  0.00  0.00    +0.059 N 
ATOM     21  O   UNL     1       0.002  -0.004   0.002  0.00  0.00    -0.126 OA
ATOM     22  O   UNL     1       1.032   1.837   0.002  0.00  0.00    -0.126 OA
ENDBRANCH  17  20
ENDBRANCH  14  15
ENDBRANCH  11  14
ENDBRANCH   5  10
BRANCH   7  23
ATOM     23  C   UNL     1      -9.447   6.862   7.651  0.00  0.00    -0.035 C 
ATOM     24  C   UNL     1     -10.816   6.727   8.319  0.00  0.00    +0.011 C 
ATOM     25  C   UNL     1      -8.348   6.696   8.703  0.00  0.00    +0.011 C 
ATOM     26  C   UNL     1      -9.329   8.243   7.004  0.00  0.00    +0.011 C 
ENDBRANCH   7  23
BRANCH   1  27
ATOM     27  C   UNL     1      -9.752   3.076   2.101  0.00  0.00    +0.342 C 
ATOM     28  O   UNL     1     -10.093   1.943   2.381  0.00  0.00    -0.245 OA
BRANCH  27  29
ATOM     29  O   UNL     1     -10.350   3.729   1.083  0.00  0.00    -0.461 OA
BRANCH  29  31
ATOM     30  C   UNL     1     -11.950   3.911  -0.743  0.00  0.00    +0.048 C 
ATOM     31  C   UNL     1     -11.394   3.017   0.367  0.00  0.00    +0.229 C 
ENDBRANCH  29  31
ENDBRANCH  27  29
ENDBRANCH   1  27
TORSDOF 8
