REMARK  Name = ZINC08762089
REMARK  11 active torsions:
REMARK  status: ('A' for Active; 'I' for Inactive)
REMARK    1  A    between atoms: C_1  and  O_2
REMARK    2  A    between atoms: O_2  and  C_3
REMARK    3  A    between atoms: C_6  and  O_32
REMARK    4  A    between atoms: C_7  and  C_9
REMARK    5  A    between atoms: N_10  and  N_11
REMARK    6  A    between atoms: N_11  and  C_12
REMARK    7  A    between atoms: C_15  and  S_21
REMARK    8  A    between atoms: C_17  and  N_18
REMARK    9  A    between atoms: S_21  and  N_24
REMARK   10  A    between atoms: C_27  and  C_30
REMARK   11  A    between atoms: O_32  and  C_33
REMARK                            x       y       z     vdW  Elec       q    Type
REMARK                         _______ _______ _______ _____ _____    ______ ____
ROOT
ATOM      1  C   UNL     1       1.100   1.659   0.024  0.00  0.00    +0.079 A 
ATOM      2  C   UNL     1      -0.165   1.082   0.021  0.00  0.00    +0.029 A 
ATOM      3  C   UNL     1      -1.288   1.885   0.007  0.00  0.00    +0.030 A 
ATOM      4  C   UNL     1      -1.156   3.262   0.006  0.00  0.00    +0.108 A 
ATOM      5  C   UNL     1       0.101   3.840   0.010  0.00  0.00    +0.063 A 
ATOM      6  C   UNL     1       1.229   3.043   0.018  0.00  0.00    +0.150 A 
ENDROOT
BRANCH   6   7
ATOM      7  N   UNL     1       2.574   3.662   0.022  0.00  0.00    +0.058 N 
ATOM      8  O   UNL     1       2.688   4.870   0.123  0.00  0.00    -0.126 OA
ATOM      9  O   UNL     1       3.566   2.963  -0.077  0.00  0.00    -0.126 OA
ENDBRANCH   6   7
BRANCH   4  10
ATOM     10  S   UNL     1      -2.592   4.283  -0.006  0.00  0.00    +0.061 S 
ATOM     11  O   UNL     1      -3.647   3.506   0.544  0.00  0.00    -0.153 OA
ATOM     12  O   UNL     1      -2.204   5.536   0.541  0.00  0.00    -0.153 OA
BRANCH  10  13
ATOM     13  N   UNL     1      -2.983   4.559  -1.591  0.00  0.00    -0.177 NA
ATOM     14  C   UNL     1      -2.432   5.718  -2.307  0.00  0.00    +0.110 C 
ATOM     15  C   UNL     1      -3.582   6.516  -2.920  0.00  0.00    +0.032 C 
ATOM     16  C   UNL     1      -4.438   5.590  -3.787  0.00  0.00    +0.105 C 
ATOM     17  C   UNL     1      -5.030   4.478  -2.917  0.00  0.00    +0.032 C 
ATOM     18  C   UNL     1      -3.893   3.653  -2.306  0.00  0.00    +0.110 C 
BRANCH  16  19
ATOM     19  C   UNL     1      -5.554   6.382  -4.417  0.00  0.00    +0.359 C 
ATOM     20  O   UNL     1      -6.705   6.088  -4.194  0.00  0.00    -0.246 OA
ATOM     21  O   UNL     1      -5.271   7.415  -5.226  0.00  0.00    -0.246 OA
ENDBRANCH  16  19
ENDBRANCH  10  13
ENDBRANCH   4  10
BRANCH   1  22
ATOM     22  N   UNL     1       2.237   0.851   0.032  0.00  0.00    -0.236 N 
ATOM     23  H   UNL     1       3.117   1.251  -0.047  0.00  0.00    +0.174 HD
BRANCH  22  25
ATOM     24  C   UNL     1       3.166  -1.291   0.162  0.00  0.00    +0.142 C 
ATOM     25  N   UNL     1       2.108  -0.539   0.154  0.00  0.00    -0.190 NA
BRANCH  24  30
ATOM     26  C   UNL     1       4.031  -4.937   0.420  0.00  0.00    +0.121 A 
ATOM     27  C   UNL     1       2.769  -5.506   0.532  0.00  0.00    +0.049 A 
ATOM     28  C   UNL     1       1.641  -4.709   0.525  0.00  0.00    +0.050 A 
ATOM     29  C   UNL     1       1.761  -3.334   0.410  0.00  0.00    +0.129 A 
ATOM     30  C   UNL     1       3.030  -2.753   0.290  0.00  0.00    +0.040 A 
ATOM     31  C   UNL     1       4.166  -3.566   0.299  0.00  0.00    +0.058 A 
BRANCH  26  33
ATOM     32  C   UNL     1       4.924  -7.137   0.556  0.00  0.00    +0.277 C 
ATOM     33  O   UNL     1       5.136  -5.729   0.428  0.00  0.00    -0.495 OA
ENDBRANCH  26  33
BRANCH  29  34
ATOM     34  O   UNL     1       0.650  -2.551   0.409  0.00  0.00    -0.494 OA
ATOM     35  C   UNL     1      -0.610  -3.212   0.535  0.00  0.00    +0.277 C 
ENDBRANCH  29  34
ENDBRANCH  24  30
ENDBRANCH  22  25
ENDBRANCH   1  22
TORSDOF 9
