REMARK  Name = ZINC22688745
REMARK  9 active torsions:
REMARK  status: ('A' for Active; 'I' for Inactive)
REMARK    1  A    between atoms: C_1  and  C_2
REMARK    2  A    between atoms: C_2  and  C_4
REMARK    3  A    between atoms: C_2  and  O_27
REMARK    4  A    between atoms: N_6  and  N_7
REMARK    5  A    between atoms: C_8  and  C_10
REMARK    6  A    between atoms: C_15  and  N_16
REMARK    7  A    between atoms: N_16  and  S_17
REMARK    8  A    between atoms: S_17  and  C_20
REMARK    9  A    between atoms: O_27  and  C_28
REMARK                            x       y       z     vdW  Elec       q    Type
REMARK                         _______ _______ _______ _____ _____    ______ ____
ROOT
ATOM      1  N   UNL     1      -2.511   1.949   2.962  0.00  0.00    -0.230 N 
ATOM      2  C   UNL     1      -3.853   1.832   3.010  0.00  0.00    +0.262 C 
ATOM      3  O   UNL     1      -4.448   1.282   2.103  0.00  0.00    -0.269 OA
ATOM      4  H   UNL     1      -1.973   2.447   3.782  0.00  0.00    +0.173 HD
ENDROOT
BRANCH   2   5
ATOM      5  C   UNL     1      -4.599   2.372   4.161  0.00  0.00    +0.060 A 
ATOM      6  C   UNL     1      -3.920   3.001   5.207  0.00  0.00    +0.015 A 
ATOM      7  C   UNL     1      -4.623   3.508   6.277  0.00  0.00    +0.001 A 
ATOM      8  C   UNL     1      -6.003   3.389   6.328  0.00  0.00    +0.002 A 
ATOM      9  C   UNL     1      -6.689   2.767   5.305  0.00  0.00    +0.025 A 
ATOM     10  C   UNL     1      -5.997   2.253   4.215  0.00  0.00    +0.060 A 
BRANCH  10  11
ATOM     11  N   UNL     1      -6.684   1.626   3.184  0.00  0.00    -0.216 N 
ATOM     12  H   UNL     1      -6.237   0.762   2.670  0.00  0.00    +0.174 HD
BRANCH  11  13
ATOM     13  S   UNL     1      -8.178   2.177   2.729  0.00  0.00    +0.072 S 
ATOM     14  O   UNL     1      -8.559   1.422   1.587  0.00  0.00    -0.150 OA
ATOM     15  O   UNL     1      -8.970   2.226   3.909  0.00  0.00    -0.150 OA
BRANCH  13  16
ATOM     16  C   UNL     1      -7.976   3.842   2.189  0.00  0.00    +0.109 A 
ATOM     17  C   UNL     1      -8.101   4.881   3.092  0.00  0.00    +0.031 A 
ATOM     18  C   UNL     1      -7.938   6.187   2.670  0.00  0.00    +0.040 A 
ATOM     19  C   UNL     1      -7.661   6.455   1.340  0.00  0.00    +0.124 A 
ATOM     20  C   UNL     1      -7.542   5.413   0.435  0.00  0.00    +0.040 A 
ATOM     21  C   UNL     1      -7.700   4.108   0.861  0.00  0.00    +0.031 A 
ATOM     22  F   UNL     1      -7.506   7.731   0.925  0.00  0.00    -0.205 F 
ENDBRANCH  13  16
ENDBRANCH  11  13
ENDBRANCH  10  11
ENDBRANCH   2   5
BRANCH   1  25
ATOM     23  C   UNL     1      -0.460   1.552   1.821  0.00  0.00    +0.270 C 
ATOM     24  O   UNL     1       0.134   2.101   2.725  0.00  0.00    -0.270 OA
ATOM     25  N   UNL     1      -1.802   1.435   1.869  0.00  0.00    -0.231 N 
ATOM     26  H   UNL     1      -2.340   0.937   1.049  0.00  0.00    +0.173 HD
BRANCH  23  28
ATOM     27  C   UNL     1       0.160  -0.523   0.613  0.00  0.00    +0.062 C 
ATOM     28  C   UNL     1       0.303   1.000   0.644  0.00  0.00    +0.257 C 
BRANCH  28  29
ATOM     29  O   UNL     1       1.684   1.346   0.767  0.00  0.00    -0.477 OA
BRANCH  29  30
ATOM     30  C   UNL     1       2.417   1.375  -0.377  0.00  0.00    +0.157 A 
ATOM     31  C   UNL     1       1.804   1.157  -1.601  0.00  0.00    +0.048 A 
ATOM     32  C   UNL     1       2.551   1.187  -2.763  0.00  0.00    +0.004 A 
ATOM     33  C   UNL     1       3.910   1.434  -2.707  0.00  0.00    +0.003 A 
ATOM     34  C   UNL     1       4.526   1.652  -1.489  0.00  0.00    +0.042 A 
ATOM     35  C   UNL     1       3.782   1.627  -0.323  0.00  0.00    +0.165 A 
ATOM     36  F   UNL     1       4.383   1.845   0.868  0.00  0.00    -0.202 F 
ENDBRANCH  29  30
ENDBRANCH  28  29
ENDBRANCH  23  28
ENDBRANCH   1  25
TORSDOF 8
