REMARK  Name = ZINC39940576
REMARK  9 active torsions:
REMARK  status: ('A' for Active; 'I' for Inactive)
REMARK    1  A    between atoms: C_1  and  C_2
REMARK    2  A    between atoms: C_2  and  C_3
REMARK    3  A    between atoms: C_2  and  C_4
REMARK    4  A    between atoms: C_2  and  C_5
REMARK    5  A    between atoms: N_20  and  C_23
REMARK    6  A    between atoms: C_25  and  C_33
REMARK    7  A    between atoms: C_26  and  N_32
REMARK    8  A    between atoms: C_27  and  C_28
REMARK    9  A    between atoms: C_27  and  C_30
REMARK                            x       y       z     vdW  Elec       q    Type
REMARK                         _______ _______ _______ _____ _____    ______ ____
ROOT
ATOM      1  C   UNL     1       0.718  -0.497  -1.257  0.00  0.00    -0.001 C 
ATOM      2  C   UNL     1       0.753  -2.030  -1.264  0.00  0.00    +0.031 C 
ATOM      3  C   UNL     1       1.535  -2.489  -2.463  0.00  0.00    -0.024 C 
ATOM      4  C   UNL     1       2.465  -1.771  -3.013  0.00  0.00    -0.030 C 
ATOM      5  C   UNL     1       2.877  -0.405  -2.533  0.00  0.00    +0.042 C 
ATOM      6  C   UNL     1       2.156   0.018  -1.266  0.00  0.00    +0.014 C 
ATOM      7  C   UNL     1       2.604   0.595  -3.658  0.00  0.00    +0.117 C 
ATOM      8  C   UNL     1       3.216   1.924  -3.341  0.00  0.00    -0.004 A 
ATOM      9  C   UNL     1       4.527   2.303  -3.154  0.00  0.00    +0.022 A 
ATOM     10  C   UNL     1       4.762   3.644  -2.866  0.00  0.00    +0.018 A 
ATOM     11  C   UNL     1       3.725   4.551  -2.772  0.00  0.00    +0.017 A 
ATOM     12  C   UNL     1       2.404   4.177  -2.961  0.00  0.00    +0.025 A 
ATOM     13  C   UNL     1       2.155   2.834  -3.251  0.00  0.00    +0.041 A 
ATOM     14  N   UNL     1       0.951   2.194  -3.484  0.00  0.00    -0.273 N 
ATOM     15  C   UNL     1       1.117   0.878  -3.732  0.00  0.00    +0.236 C 
ATOM     16  O   UNL     1       0.240   0.074  -3.970  0.00  0.00    -0.274 OA
ATOM     17  C   UNL     1      -0.351   2.866  -3.464  0.00  0.00    +0.138 C 
ATOM     18 BR   UNL     1       6.537   4.237  -2.596  0.00  0.00    -0.050 Br
ATOM     19  C   UNL     1       3.094   0.072  -4.972  0.00  0.00    +0.069 C 
ATOM     20  C   UNL     1       3.346  -1.210  -5.235  0.00  0.00    +0.055 C 
ATOM     21  C   UNL     1       3.201  -2.314  -4.225  0.00  0.00    +0.202 C 
ENDROOT
BRANCH   1  23
ATOM     22  C   UNL     1      -0.019   1.526   0.010  0.00  0.00    +0.011 C 
ATOM     23  C   UNL     1       0.002  -0.004   0.002  0.00  0.00    -0.035 C 
ATOM     24  C   UNL     1       0.742  -0.511   1.242  0.00  0.00    +0.011 C 
ATOM     25  C   UNL     1      -1.433  -0.534   0.013  0.00  0.00    +0.011 C 
ENDBRANCH   1  23
BRANCH  20  26
ATOM     26  N   UNL     1       3.762  -1.540  -6.498  0.00  0.00    -0.358 N 
ATOM     27  H   UNL     1       3.865  -0.849  -7.171  0.00  0.00    +0.142 HD
ATOM     28  H   UNL     1       3.953  -2.465  -6.720  0.00  0.00    +0.142 HD
ENDBRANCH  20  26
BRANCH  21  29
ATOM     29  C   UNL     1       2.432  -3.424  -4.813  0.00  0.00    +0.095 C 
ATOM     30  N   UNL     1       1.839  -4.279  -5.267  0.00  0.00    -0.194 NA
ENDBRANCH  21  29
BRANCH  21  31
ATOM     31  C   UNL     1       4.533  -2.792  -3.821  0.00  0.00    +0.095 C 
ATOM     32  N   UNL     1       5.561  -3.161  -3.509  0.00  0.00    -0.194 NA
ENDBRANCH  21  31
BRANCH  19  33
ATOM     33  C   UNL     1       3.307   1.019  -6.024  0.00  0.00    +0.098 C 
ATOM     34  N   UNL     1       3.477   1.771  -6.859  0.00  0.00    -0.191 NA
ENDBRANCH  19  33
TORSDOF 5
