REMARK  Name = ZINC64780342
REMARK  7 active torsions:
REMARK  status: ('A' for Active; 'I' for Inactive)
REMARK    1  A    between atoms: C_1  and  C_2
REMARK    2  A    between atoms: C_2  and  C_3
REMARK    3  A    between atoms: C_2  and  O_16
REMARK    4  A    between atoms: N_5  and  C_6
REMARK    5  A    between atoms: N_10  and  C_11
REMARK    6  A    between atoms: O_16  and  C_17
REMARK    7  A    between atoms: C_22  and  N_23
REMARK                            x       y       z     vdW  Elec       q    Type
REMARK                         _______ _______ _______ _____ _____    ______ ____
ROOT
ATOM      1  C   UNL     1       0.627  -0.284  -1.345  0.00  0.00    +0.259 C 
ATOM      2  O   UNL     1      -0.044  -0.757  -2.238  0.00  0.00    -0.271 OA
ATOM      3  N   UNL     1       1.928  -0.002  -1.555  0.00  0.00    -0.268 N 
ATOM      4  H   UNL     1       2.464   0.375  -0.841  0.00  0.00    +0.156 HD
ENDROOT
BRANCH   3   5
ATOM      5  C   UNL     1       2.503  -0.254  -2.801  0.00  0.00    +0.124 A 
ATOM      6  C   UNL     1       1.870  -0.773  -3.889  0.00  0.00    +0.065 A 
ATOM      7  C   UNL     1       2.804  -0.861  -4.925  0.00  0.00    +0.136 A 
ATOM      8  N   UNL     1       3.952  -0.415  -4.483  0.00  0.00    -0.178 NA
ATOM      9  N   UNL     1       3.789  -0.021  -3.149  0.00  0.00    -0.247 N 
BRANCH   9  10
ATOM     10  C   UNL     1       4.828   0.541  -2.283  0.00  0.00    +0.109 C 
ATOM     11  C   UNL     1       5.419   1.814  -2.924  0.00  0.00    +0.027 C 
ATOM     12  C   UNL     1       6.926   1.753  -2.569  0.00  0.00    +0.002 C 
ATOM     13  C   UNL     1       7.246   0.243  -2.694  0.00  0.00    +0.002 C 
ATOM     14  C   UNL     1       5.989  -0.458  -2.137  0.00  0.00    +0.027 C 
ENDBRANCH   9  10
ENDBRANCH   3   5
BRANCH   1  16
ATOM     15  C   UNL     1       0.005   1.494   0.268  0.00  0.00    +0.062 C 
ATOM     16  C   UNL     1       0.005  -0.013   0.001  0.00  0.00    +0.256 C 
BRANCH  16  17
ATOM     17  O   UNL     1      -1.339  -0.499   0.012  0.00  0.00    -0.478 OA
BRANCH  17  18
ATOM     18  C   UNL     1      -1.869  -0.818   1.222  0.00  0.00    +0.152 A 
ATOM     19  C   UNL     1      -1.155  -0.561   2.384  0.00  0.00    +0.049 A 
ATOM     20  C   UNL     1      -1.696  -0.886   3.612  0.00  0.00    +0.024 A 
ATOM     21  C   UNL     1      -2.950  -1.468   3.685  0.00  0.00    +0.043 A 
ATOM     22  C   UNL     1      -3.663  -1.725   2.528  0.00  0.00    +0.056 A 
ATOM     23  C   UNL     1      -3.128  -1.395   1.298  0.00  0.00    +0.169 A 
ATOM     24 CL   UNL     1      -3.628  -1.876   5.230  0.00  0.00    -0.083 Cl
BRANCH  23  25
ATOM     25  N   UNL     1      -3.895  -1.664   0.060  0.00  0.00    +0.060 N 
ATOM     26  O   UNL     1      -4.992  -2.167   0.127  0.00  0.00    -0.126 OA
ATOM     27  O   UNL     1      -3.424  -1.381  -1.016  0.00  0.00    -0.126 OA
ENDBRANCH  23  25
ENDBRANCH  17  18
ENDBRANCH  16  17
ENDBRANCH   1  16
TORSDOF 6
