REMARK  Name = ZINC39691661
REMARK  9 active torsions:
REMARK  status: ('A' for Active; 'I' for Inactive)
REMARK    1  A    between atoms: C_1  and  C_2
REMARK    2  A    between atoms: C_4  and  C_36
REMARK    3  A    between atoms: C_10  and  C_14
REMARK    4  A    between atoms: C_14  and  S_15
REMARK    5  A    between atoms: S_15  and  C_16
REMARK    6  A    between atoms: C_19  and  C_27
REMARK    7  A    between atoms: N_20  and  C_21
REMARK    8  A    between atoms: C_30  and  O_33
REMARK    9  A    between atoms: O_33  and  C_34
REMARK                            x       y       z     vdW  Elec       q    Type
REMARK                         _______ _______ _______ _____ _____    ______ ____
ROOT
ATOM      1  C   UNL     1       6.499  -1.337  -4.540  0.00  0.00    +0.193 A 
ATOM      2  N   UNL     1       7.668  -1.012  -4.035  0.00  0.00    -0.122 NA
ATOM      3  N   UNL     1       8.547  -0.934  -4.969  0.00  0.00    -0.128 NA
ATOM      4  C   UNL     1       7.994  -1.204  -6.129  0.00  0.00    +0.165 A 
ATOM      5  N   UNL     1       6.667  -1.476  -5.889  0.00  0.00    -0.299 N 
ENDROOT
BRANCH   5   6
ATOM      6  C   UNL     1       5.645  -1.837  -6.875  0.00  0.00    +0.091 C 
ATOM      7  C   UNL     1       4.978  -3.150  -6.462  0.00  0.00    +0.025 C 
ATOM      8  C   UNL     1       3.911  -3.527  -7.492  0.00  0.00    +0.002 C 
ATOM      9  C   UNL     1       2.857  -2.420  -7.562  0.00  0.00    +0.000 C 
ATOM     10  C   UNL     1       3.524  -1.106  -7.976  0.00  0.00    +0.002 C 
ATOM     11  C   UNL     1       4.591  -0.730  -6.946  0.00  0.00    +0.025 C 
ENDBRANCH   5   6
BRANCH   4  12
ATOM     12  C   UNL     1       8.670  -1.219  -7.443  0.00  0.00    +0.020 A 
ATOM     13  C   UNL     1       7.968  -0.865  -8.596  0.00  0.00    +0.015 A 
ATOM     14  C   UNL     1       8.602  -0.879  -9.820  0.00  0.00    +0.046 A 
ATOM     15  C   UNL     1       9.939  -1.245  -9.906  0.00  0.00    +0.120 A 
ATOM     16  C   UNL     1      10.642  -1.598  -8.762  0.00  0.00    +0.046 A 
ATOM     17  C   UNL     1      10.016  -1.581  -7.534  0.00  0.00    +0.015 A 
BRANCH  15  18
ATOM     18  O   UNL     1      10.561  -1.259 -11.114  0.00  0.00    -0.495 OA
ATOM     19  C   UNL     1      11.937  -1.645 -11.131  0.00  0.00    +0.277 C 
ENDBRANCH  15  18
ENDBRANCH   4  12
BRANCH   1  20
ATOM     20  S   UNL     1       4.998  -1.560  -3.645  0.00  0.00    -0.078 S 
BRANCH  20  21
ATOM     21  C   UNL     1       5.462  -1.229  -1.923  0.00  0.00    +0.151 C 
BRANCH  21  29
ATOM     22  C   UNL     1      -0.722  -0.444  -0.418  0.00  0.00    +0.053 C 
ATOM     23  C   UNL     1      -0.179  -1.853  -0.173  0.00  0.00    +0.191 C 
ATOM     24  C   UNL     1       0.702  -1.888   1.100  0.00  0.00    +0.183 C 
ATOM     25  C   UNL     1       2.084  -1.663   0.525  0.00  0.00    +0.096 A 
ATOM     26  H   UNL     1       5.247  -0.945   0.661  0.00  0.00    +0.170 HD
ATOM     27  C   UNL     1       2.001  -1.873  -0.838  0.00  0.00    +0.226 A 
ATOM     28  N   UNL     1       3.114  -1.716  -1.579  0.00  0.00    -0.199 NA
ATOM     29  C   UNL     1       4.253  -1.387  -1.038  0.00  0.00    +0.124 A 
ATOM     30  N   UNL     1       4.384  -1.183   0.288  0.00  0.00    -0.310 N 
ATOM     31  C   UNL     1       3.309  -1.313   1.098  0.00  0.00    +0.259 A 
ATOM     32  O   UNL     1       3.407  -1.129   2.300  0.00  0.00    -0.267 OA
ATOM     33  O   UNL     1       0.743  -2.232  -1.209  0.00  0.00    -0.472 OA
BRANCH  24  34
ATOM     34  C   UNL     1       0.612  -3.229   1.782  0.00  0.00    +0.367 C 
ATOM     35  O   UNL     1       1.561  -3.655   2.417  0.00  0.00    -0.246 OA
ATOM     36  O   UNL     1      -0.411  -3.888   1.698  0.00  0.00    -0.246 OA
ENDBRANCH  24  34
ENDBRANCH  21  29
ENDBRANCH  20  21
ENDBRANCH   1  20
TORSDOF 7
