REMARK  Name = ZINC07061756
REMARK  10 active torsions:
REMARK  status: ('A' for Active; 'I' for Inactive)
REMARK    1  A    between atoms: C_1  and  C_2
REMARK    2  A    between atoms: C_4  and  C_10
REMARK    3  A    between atoms: C_6  and  C_9
REMARK    4  A    between atoms: C_7  and  O_8
REMARK    5  A    between atoms: C_10  and  N_11
REMARK    6  A    between atoms: C_12  and  C_14
REMARK    7  A    between atoms: C_14  and  O_15
REMARK    8  A    between atoms: O_15  and  C_16
REMARK    9  A    between atoms: C_16  and  C_18
REMARK   10  A    between atoms: C_22  and  N_24
REMARK                            x       y       z     vdW  Elec       q    Type
REMARK                         _______ _______ _______ _____ _____    ______ ____
ROOT
ATOM      1  N   UNL     1       4.806   1.562  -0.035  0.00  0.00    -0.308 N 
ATOM      2  C   UNL     1       3.554   2.060  -0.021  0.00  0.00    +0.251 C 
ATOM      3  O   UNL     1       3.379   3.260  -0.013  0.00  0.00    -0.272 OA
ATOM      4  H   UNL     1       4.946   0.602  -0.042  0.00  0.00    +0.149 HD
ENDROOT
BRANCH   1   5
ATOM      5  C   UNL     1       5.956   2.470  -0.042  0.00  0.00    +0.139 C 
BRANCH   5   9
ATOM      6  C   UNL     1       9.595   0.175  -2.596  0.00  0.00    +0.047 C 
ATOM      7  C   UNL     1       8.971   0.569  -1.281  0.00  0.00    -0.008 A 
ATOM      8  C   UNL     1       7.803   1.305  -1.264  0.00  0.00    +0.012 A 
ATOM      9  C   UNL     1       7.231   1.667  -0.058  0.00  0.00    -0.030 A 
ATOM     10  C   UNL     1       7.829   1.297   1.132  0.00  0.00    +0.012 A 
ATOM     11  C   UNL     1       8.994   0.556   1.120  0.00  0.00    -0.008 A 
ATOM     12  C   UNL     1       9.571   0.192  -0.088  0.00  0.00    +0.123 A 
ATOM     13  C   UNL     1       9.643   0.148   2.418  0.00  0.00    +0.047 C 
BRANCH  12  14
ATOM     14  O   UNL     1      10.720  -0.533  -0.103  0.00  0.00    -0.506 OA
ATOM     15  H   UNL     1      11.524   0.004  -0.108  0.00  0.00    +0.292 HD
ENDBRANCH  12  14
ENDBRANCH   5   9
ENDBRANCH   1   5
BRANCH   2  16
ATOM     16  C   UNL     1       2.371   1.126  -0.015  0.00  0.00    +0.328 C 
BRANCH  16  17
ATOM     17  O   UNL     1       1.143   1.900   0.001  0.00  0.00    -0.452 OA
BRANCH  17  18
ATOM     18  C   UNL     1      -0.014   1.211   0.009  0.00  0.00    +0.340 C 
ATOM     19  O   UNL     1       0.002  -0.004   0.002  0.00  0.00    -0.245 OA
BRANCH  18  20
ATOM     20  C   UNL     1      -1.303   1.931   0.019  0.00  0.00    +0.061 A 
ATOM     21  C   UNL     1      -1.325   3.328   0.032  0.00  0.00    +0.016 A 
ATOM     22  C   UNL     1      -2.532   3.995   0.035  0.00  0.00    +0.023 A 
ATOM     23  C   UNL     1      -3.720   3.284   0.037  0.00  0.00    +0.071 A 
ATOM     24  C   UNL     1      -3.705   1.899   0.030  0.00  0.00    +0.145 A 
ATOM     25  C   UNL     1      -2.505   1.220   0.021  0.00  0.00    +0.049 A 
ATOM     26 CL   UNL     1      -5.235   4.131   0.048  0.00  0.00    -0.081 Cl
BRANCH  24  27
ATOM     27  N   UNL     1      -4.979   1.146   0.032  0.00  0.00    +0.058 N 
ATOM     28  O   UNL     1      -4.967  -0.072   0.025  0.00  0.00    -0.126 OA
ATOM     29  O   UNL     1      -6.040   1.744   0.040  0.00  0.00    -0.126 OA
ENDBRANCH  24  27
ENDBRANCH  18  20
ENDBRANCH  17  18
ENDBRANCH  16  17
ENDBRANCH   2  16
TORSDOF 8
