REMARK  Name = ZINC52594634
REMARK  14 active torsions:
REMARK  status: ('A' for Active; 'I' for Inactive)
REMARK    1  A    between atoms: C_1  and  C_2
REMARK    2  A    between atoms: C_2  and  C_3
REMARK    3  A    between atoms: C_2  and  C_4
REMARK    4  A    between atoms: C_4  and  C_5
REMARK    5  A    between atoms: C_5  and  C_7
REMARK    6  A    between atoms: C_5  and  C_12
REMARK    7  A    between atoms: C_7  and  C_8
REMARK    8  A    between atoms: N_10  and  O_11
REMARK    9  A    between atoms: N_14  and  C_15
REMARK   10  A    between atoms: C_15  and  C_17
REMARK   11  A    between atoms: C_15  and  C_27
REMARK   12  A    between atoms: C_17  and  C_18
REMARK   13  A    between atoms: N_29  and  C_30
REMARK   14  A    between atoms: C_30  and  C_31
REMARK                            x       y       z     vdW  Elec       q    Type
REMARK                         _______ _______ _______ _____ _____    ______ ____
ROOT
ATOM      1  C   UNL     1       0.251  -1.403  -3.849  0.00  0.00    +0.163 C 
ENDROOT
BRANCH   1   4
ATOM      2  C   UNL     1      -1.622  -0.706  -2.454  0.00  0.00    +0.217 C 
ATOM      3  O   UNL     1      -2.367  -1.298  -3.206  0.00  0.00    -0.275 OA
ATOM      4  N   UNL     1      -0.302  -0.652  -2.718  0.00  0.00    -0.303 N 
ATOM      5  H   UNL     1       0.283  -0.116  -2.160  0.00  0.00    +0.149 HD
BRANCH   2   6
ATOM      6  C   UNL     1      -2.172  -0.032  -1.224  0.00  0.00    +0.084 C 
BRANCH   6   7
ATOM      7  C   UNL     1      -1.820  -0.860   0.013  0.00  0.00    +0.016 C 
BRANCH   7   9
ATOM      8  C   UNL     1       0.154   0.576   0.549  0.00  0.00    +0.007 C 
ATOM      9  C   UNL     1      -0.304  -0.847   0.220  0.00  0.00    -0.016 C 
ATOM     10  C   UNL     1       0.061  -1.780   1.377  0.00  0.00    +0.007 C 
ENDBRANCH   7   9
ENDBRANCH   6   7
BRANCH   6  11
ATOM     11  C   UNL     1      -3.693   0.084  -1.343  0.00  0.00    +0.110 C 
BRANCH  11  12
ATOM     12  C   UNL     1      -4.231   0.867  -0.173  0.00  0.00    +0.236 C 
ATOM     13  O   UNL     1      -3.472   1.290   0.673  0.00  0.00    -0.274 OA
ATOM     14  N   UNL     1      -5.555   1.096  -0.067  0.00  0.00    -0.197 N 
ATOM     15  H   UNL     1      -6.162   0.757  -0.743  0.00  0.00    +0.182 HD
BRANCH  14  16
ATOM     16  O   UNL     1      -6.060   1.832   1.033  0.00  0.00    -0.295 OA
ATOM     17  H   UNL     1      -7.020   1.944   1.023  0.00  0.00    +0.241 HD
ENDBRANCH  14  16
ENDBRANCH  11  12
ENDBRANCH   6  11
ENDBRANCH   2   6
ENDBRANCH   1   4
BRANCH   1  18
ATOM     18  C   UNL     1       1.708  -1.692  -3.596  0.00  0.00    +0.234 C 
ATOM     19  O   UNL     1       2.233  -1.310  -2.572  0.00  0.00    -0.274 OA
ATOM     20  N   UNL     1       2.427  -2.377  -4.507  0.00  0.00    -0.310 N 
ATOM     21  H   UNL     1       2.006  -2.683  -5.326  0.00  0.00    +0.149 HD
BRANCH  20  22
ATOM     22  C   UNL     1       3.843  -2.659  -4.261  0.00  0.00    +0.139 C 
BRANCH  22  23
ATOM     23  C   UNL     1       4.411  -3.431  -5.424  0.00  0.00    -0.027 A 
ATOM     24  C   UNL     1       4.377  -4.817  -5.440  0.00  0.00    +0.025 A 
ATOM     25  C   UNL     1       4.908  -5.491  -6.524  0.00  0.00    +0.111 A 
ATOM     26  N   UNL     1       5.441  -4.831  -7.533  0.00  0.00    -0.263 NA
ATOM     27  C   UNL     1       5.491  -3.514  -7.552  0.00  0.00    +0.111 A 
ATOM     28  C   UNL     1       4.975  -2.772  -6.506  0.00  0.00    +0.025 A 
ENDBRANCH  22  23
ENDBRANCH  20  22
ENDBRANCH   1  18
BRANCH   1  29
ATOM     29  C   UNL     1       0.110  -0.575  -5.128  0.00  0.00    +0.065 C 
BRANCH  29  30
ATOM     30  C   UNL     1      -1.351  -0.390  -5.448  0.00  0.00    -0.039 C 
ATOM     31  C   UNL     1      -2.129   0.666  -5.115  0.00  0.00    -0.001 A 
ATOM     32  C   UNL     1      -1.858   1.909  -4.384  0.00  0.00    +0.010 A 
ATOM     33  C   UNL     1      -2.862   2.797  -4.205  0.00  0.00    +0.001 A 
ATOM     34  C   UNL     1      -4.152   2.560  -4.698  0.00  0.00    +0.002 A 
ATOM     35  C   UNL     1      -4.478   1.441  -5.379  0.00  0.00    +0.026 A 
ATOM     36  C   UNL     1      -3.499   0.440  -5.627  0.00  0.00    +0.043 A 
ATOM     37  N   UNL     1      -3.567  -0.712  -6.250  0.00  0.00    -0.380 N 
ATOM     38  C   UNL     1      -2.243  -1.343  -6.211  0.00  0.00    +0.144 C 
ATOM     39  H   UNL     1      -4.358  -1.082  -6.671  0.00  0.00    +0.160 HD
ENDBRANCH  29  30
ENDBRANCH   1  29
TORSDOF 12
