REMARK  Name = ZINC12752184
REMARK  10 active torsions:
REMARK  status: ('A' for Active; 'I' for Inactive)
REMARK    1  A    between atoms: C_1  and  C_2
REMARK    2  A    between atoms: C_2  and  C_3
REMARK    3  A    between atoms: C_2  and  C_4
REMARK    4  A    between atoms: C_2  and  C_5
REMARK    5  A    between atoms: C_7  and  N_16
REMARK    6  A    between atoms: N_8  and  C_10
REMARK    7  A    between atoms: C_17  and  C_19
REMARK    8  A    between atoms: C_19  and  S_20
REMARK    9  A    between atoms: S_20  and  C_21
REMARK   10  A    between atoms: C_24  and  C_26
REMARK                            x       y       z     vdW  Elec       q    Type
REMARK                         _______ _______ _______ _____ _____    ______ ____
ROOT
ATOM      1  N   UNL     1       8.452   7.945  -0.041  0.00  0.00    -0.270 N 
ATOM      2  C   UNL     1       7.107   8.026  -0.027  0.00  0.00    +0.229 C 
ATOM      3  O   UNL     1       6.565   9.111  -0.016  0.00  0.00    -0.275 OA
ATOM      4  H   UNL     1       8.886   7.077  -0.050  0.00  0.00    +0.156 HD
ENDROOT
BRANCH   1   7
ATOM      5  C   UNL     1       9.848  11.249  -0.038  0.00  0.00    +0.071 A 
ATOM      6  C   UNL     1       8.749  10.385  -0.031  0.00  0.00    +0.069 A 
ATOM      7  C   UNL     1       9.221   9.108  -0.043  0.00  0.00    +0.129 A 
ATOM      8  N   UNL     1      10.580   9.175  -0.051  0.00  0.00    -0.218 N 
ATOM      9  N   UNL     1      10.941  10.529  -0.053  0.00  0.00    -0.169 NA
BRANCH   8  10
ATOM     10  C   UNL     1      11.461   8.085  -0.058  0.00  0.00    +0.067 A 
ATOM     11  C   UNL     1      11.139   6.926   0.636  0.00  0.00    +0.028 A 
ATOM     12  C   UNL     1      12.007   5.852   0.622  0.00  0.00    +0.002 A 
ATOM     13  C   UNL     1      13.200   5.933  -0.072  0.00  0.00    +0.000 A 
ATOM     14  C   UNL     1      13.526   7.088  -0.759  0.00  0.00    +0.002 A 
ATOM     15  C   UNL     1      12.660   8.164  -0.754  0.00  0.00    +0.028 A 
ENDBRANCH   8  10
BRANCH   5  17
ATOM     16  C   UNL     1       9.406  13.240   1.371  0.00  0.00    +0.017 C 
ATOM     17  C   UNL     1       9.786  12.754  -0.029  0.00  0.00    +0.006 C 
ATOM     18  C   UNL     1      11.152  13.324  -0.414  0.00  0.00    +0.017 C 
ATOM     19  C   UNL     1       8.735  13.227  -1.035  0.00  0.00    +0.017 C 
ENDBRANCH   5  17
ENDBRANCH   1   7
BRANCH   2  20
ATOM     20  C   UNL     1       6.276   6.769  -0.025  0.00  0.00    +0.175 C 
BRANCH  20  21
ATOM     21  S   UNL     1       4.520   7.206  -0.005  0.00  0.00    -0.056 S 
BRANCH  21  22
ATOM     22  C   UNL     1       3.804   5.596  -0.006  0.00  0.00    +0.278 A 
ATOM     23  N   UNL     1       4.455   4.455  -0.019  0.00  0.00    -0.101 NA
ATOM     24  N   UNL     1       3.614   3.482  -0.015  0.00  0.00    -0.106 NA
ATOM     25  C   UNL     1       2.394   3.961   0.000  0.00  0.00    +0.249 A 
ATOM     26  O   UNL     1       2.489   5.309   0.001  0.00  0.00    -0.411 OA
BRANCH  25  27
ATOM     27  C   UNL     1       1.145   3.172   0.008  0.00  0.00    +0.041 A 
ATOM     28  C   UNL     1       1.178   1.772   0.000  0.00  0.00    +0.033 A 
ATOM     29  C   UNL     1      -0.013   1.076   0.008  0.00  0.00    +0.111 A 
ATOM     30  N   UNL     1      -1.169   1.711   0.017  0.00  0.00    -0.263 NA
ATOM     31  C   UNL     1      -1.245   3.028   0.030  0.00  0.00    +0.111 A 
ATOM     32  C   UNL     1      -0.105   3.804   0.024  0.00  0.00    +0.033 A 
ENDBRANCH  25  27
ENDBRANCH  21  22
ENDBRANCH  20  21
ENDBRANCH   2  20
TORSDOF 7
