REMARK  Name = ZINC04948427
REMARK  9 active torsions:
REMARK  status: ('A' for Active; 'I' for Inactive)
REMARK    1  A    between atoms: C_1  and  C_2
REMARK    2  A    between atoms: C_2  and  C_4
REMARK    3  A    between atoms: C_2  and  S_16
REMARK    4  A    between atoms: N_6  and  C_7
REMARK    5  A    between atoms: C_12  and  N_13
REMARK    6  A    between atoms: S_16  and  C_17
REMARK    7  A    between atoms: N_27  and  C_28
REMARK    8  A    between atoms: C_28  and  C_29
REMARK    9  A    between atoms: C_28  and  C_30
REMARK                            x       y       z     vdW  Elec       q    Type
REMARK                         _______ _______ _______ _____ _____    ______ ____
ROOT
ATOM      1  C   UNL     1      -0.009   1.560   0.038  0.00  0.00    +0.029 C 
ATOM      2  C   UNL     1      -0.004   0.030   0.017  0.00  0.00    +0.137 C 
ENDROOT
BRANCH   2   3
ATOM      3  C   UNL     1       0.724  -0.487   1.230  0.00  0.00    +0.230 C 
ATOM      4  O   UNL     1       1.901  -0.771   1.156  0.00  0.00    -0.274 OA
ATOM      5  N   UNL     1       0.068  -0.635   2.398  0.00  0.00    -0.283 N 
ATOM      6  H   UNL     1      -0.855  -0.347   2.475  0.00  0.00    +0.155 HD
BRANCH   5   7
ATOM      7  C   UNL     1       0.718  -1.202   3.499  0.00  0.00    +0.064 A 
ATOM      8  C   UNL     1       2.070  -0.961   3.710  0.00  0.00    +0.025 A 
ATOM      9  C   UNL     1       2.709  -1.523   4.798  0.00  0.00    +0.002 A 
ATOM     10  C   UNL     1       2.004  -2.325   5.677  0.00  0.00    +0.002 A 
ATOM     11  C   UNL     1       0.659  -2.568   5.470  0.00  0.00    +0.034 A 
ATOM     12  C   UNL     1       0.013  -2.004   4.387  0.00  0.00    +0.147 A 
BRANCH  12  13
ATOM     13  N   UNL     1      -1.429  -2.258   4.170  0.00  0.00    +0.058 N 
ATOM     14  O   UNL     1      -2.065  -2.874   4.993  0.00  0.00    -0.126 OA
ATOM     15  O   UNL     1      -1.971  -1.850   3.169  0.00  0.00    -0.126 OA
ENDBRANCH  12  13
ENDBRANCH   5   7
ENDBRANCH   2   3
BRANCH   2  16
ATOM     16  S   UNL     1       0.833  -0.550  -1.484  0.00  0.00    -0.075 S 
BRANCH  16  17
ATOM     17  C   UNL     1      -0.206   0.004  -2.794  0.00  0.00    +0.173 A 
ATOM     18  N   UNL     1      -1.290   0.676  -2.490  0.00  0.00    -0.223 NA
ATOM     19  C   UNL     1      -2.130   1.130  -3.441  0.00  0.00    +0.079 A 
ATOM     20  C   UNL     1      -3.286   1.847  -3.117  0.00  0.00    +0.028 A 
ATOM     21  C   UNL     1      -4.109   2.289  -4.113  0.00  0.00    +0.002 A 
ATOM     22  C   UNL     1      -3.816   2.036  -5.448  0.00  0.00    +0.001 A 
ATOM     23  C   UNL     1      -2.693   1.338  -5.796  0.00  0.00    +0.015 A 
ATOM     24  C   UNL     1      -1.835   0.875  -4.800  0.00  0.00    +0.065 A 
ATOM     25  C   UNL     1      -0.615   0.120  -5.116  0.00  0.00    +0.263 A 
ATOM     26  O   UNL     1      -0.307  -0.130  -6.267  0.00  0.00    -0.267 OA
ATOM     27  N   UNL     1       0.157  -0.281  -4.079  0.00  0.00    -0.285 N 
BRANCH  27  28
ATOM     28  C   UNL     1       1.388  -1.032  -4.337  0.00  0.00    +0.087 C 
ATOM     29  C   UNL     1       1.050  -2.326  -5.080  0.00  0.00    +0.031 C 
ATOM     30  C   UNL     1       2.333  -0.185  -5.193  0.00  0.00    +0.031 C 
ENDBRANCH  27  28
ENDBRANCH  16  17
ENDBRANCH   2  16
TORSDOF 6
