REMARK  Name = ZINC09235363
REMARK  11 active torsions:
REMARK  status: ('A' for Active; 'I' for Inactive)
REMARK    1  A    between atoms: C_1  and  C_2
REMARK    2  A    between atoms: C_2  and  O_3
REMARK    3  A    between atoms: O_3  and  C_4
REMARK    4  A    between atoms: C_6  and  C_17
REMARK    5  A    between atoms: C_9  and  O_10
REMARK    6  A    between atoms: O_10  and  C_11
REMARK    7  A    between atoms: C_11  and  C_12
REMARK    8  A    between atoms: C_12  and  O_14
REMARK    9  A    between atoms: O_14  and  C_15
REMARK   10  A    between atoms: C_18  and  C_19
REMARK   11  A    between atoms: C_20  and  N_28
REMARK                            x       y       z     vdW  Elec       q    Type
REMARK                         _______ _______ _______ _____ _____    ______ ____
ROOT
ATOM      1  C   UNL     1       0.664  -1.809  -1.393  0.00  0.00    +0.164 A 
ATOM      2  C   UNL     1       0.147  -2.664  -0.438  0.00  0.00    +0.057 A 
ATOM      3  C   UNL     1       0.282  -4.047  -0.596  0.00  0.00    -0.020 A 
ATOM      4  C   UNL     1       0.939  -4.558  -1.720  0.00  0.00    +0.031 A 
ATOM      5  C   UNL     1       1.452  -3.698  -2.668  0.00  0.00    +0.087 A 
ATOM      6  C   UNL     1       1.313  -2.325  -2.513  0.00  0.00    +0.181 A 
ATOM      7 CL   UNL     1       2.268  -4.333  -4.062  0.00  0.00    -0.080 Cl
ENDROOT
BRANCH   3   8
ATOM      8  C   UNL     1      -0.266  -4.962   0.418  0.00  0.00    +0.010 C 
ATOM      9  C   UNL     1      -0.136  -6.293   0.264  0.00  0.00    +0.031 C 
BRANCH   9  10
ATOM     10  C   UNL     1      -0.683  -7.207   1.276  0.00  0.00    +0.105 A 
ATOM     11  C   UNL     1      -0.646  -8.583   1.070  0.00  0.00    +0.215 A 
ATOM     12  C   UNL     1      -1.177  -9.423   2.058  0.00  0.00    +0.285 A 
ATOM     13  O   UNL     1      -1.164 -10.635   1.915  0.00  0.00    -0.265 OA
ATOM     14  N   UNL     1      -1.703  -8.869   3.170  0.00  0.00    -0.272 N 
ATOM     15  H   UNL     1      -2.075  -9.437   3.864  0.00  0.00    +0.174 HD
ATOM     16  C   UNL     1      -1.715  -7.518   3.324  0.00  0.00    +0.349 A 
ATOM     17  O   UNL     1      -2.246  -6.987   4.444  0.00  0.00    -0.245 OA
ATOM     18  N   UNL     1      -1.217  -6.719   2.410  0.00  0.00    -0.191 NA
BRANCH  11  19
ATOM     19  N   UNL     1      -0.060  -9.147  -0.166  0.00  0.00    +0.064 N 
ATOM     20  O   UNL     1       0.489  -8.421  -0.962  0.00  0.00    -0.126 OA
ATOM     21  O   UNL     1      -0.129 -10.335  -0.381  0.00  0.00    -0.126 OA
ENDBRANCH  11  19
ENDBRANCH   9  10
ENDBRANCH   3   8
BRANCH   1  22
ATOM     22  O   UNL     1       0.534  -0.463  -1.242  0.00  0.00    -0.489 OA
BRANCH  22  24
ATOM     23  C   UNL     1      -0.191   1.525  -0.075  0.00  0.00    +0.048 C 
ATOM     24  C   UNL     1      -0.143  -0.004  -0.070  0.00  0.00    +0.226 C 
ENDBRANCH  22  24
ENDBRANCH   1  22
BRANCH   6  25
ATOM     25  O   UNL     1       1.816  -1.482  -3.453  0.00  0.00    -0.476 OA
BRANCH  25  26
ATOM     26  C   UNL     1       3.164  -1.043  -3.276  0.00  0.00    +0.349 C 
BRANCH  26  27
ATOM     27  C   UNL     1       3.545  -0.122  -4.406  0.00  0.00    +0.345 C 
ATOM     28  O   UNL     1       2.744   0.132  -5.274  0.00  0.00    -0.247 OA
BRANCH  27  29
ATOM     29  O   UNL     1       4.774   0.416  -4.449  0.00  0.00    -0.466 OA
ATOM     30  C   UNL     1       5.067   1.279  -5.549  0.00  0.00    +0.280 C 
ENDBRANCH  27  29
ENDBRANCH  26  27
ENDBRANCH  25  26
ENDBRANCH   6  25
TORSDOF 9
