REMARK  Name = ZINC63807365
REMARK  6 active torsions:
REMARK  status: ('A' for Active; 'I' for Inactive)
REMARK    1  A    between atoms: C_5  and  C_7
REMARK    2  A    between atoms: N_12  and  C_14
REMARK    3  A    between atoms: C_14  and  C_15
REMARK    4  A    between atoms: N_17  and  C_18
REMARK    5  A    between atoms: C_18  and  C_19
REMARK    6  A    between atoms: C_19  and  C_20
REMARK                            x       y       z     vdW  Elec       q    Type
REMARK                         _______ _______ _______ _____ _____    ______ ____
ROOT
ATOM      1  C   UNL     1      -1.582  -4.847  -1.996  0.00  0.00    +0.232 C 
ATOM      2  O   UNL     1      -0.808  -4.322  -2.768  0.00  0.00    -0.274 OA
ATOM      3  N   UNL     1      -2.724  -5.396  -2.456  0.00  0.00    -0.314 N 
ATOM      4  H   UNL     1      -3.343  -5.816  -1.839  0.00  0.00    +0.149 HD
ENDROOT
BRANCH   1   5
ATOM      5  C   UNL     1      -1.268  -4.884  -0.523  0.00  0.00    +0.226 C 
BRANCH   5  11
ATOM      6  C   UNL     1       1.247  -2.163  -0.022  0.00  0.00    +0.051 C 
ATOM      7  C   UNL     1       2.408  -2.799  -0.133  0.00  0.00    +0.007 C 
ATOM      8  C   UNL     1       2.498  -4.296  -0.142  0.00  0.00    +0.126 C 
ATOM      9  C   UNL     1       1.161  -4.922  -0.412  0.00  0.00    +0.236 C 
ATOM     10  O   UNL     1       1.110  -6.083  -0.757  0.00  0.00    -0.274 OA
ATOM     11  N   UNL     1       0.018  -4.226  -0.281  0.00  0.00    -0.213 N 
ATOM     12  N   UNL     1       0.054  -2.875   0.091  0.00  0.00    -0.261 N 
ATOM     13  H   UNL     1      -0.746  -2.437   0.422  0.00  0.00    +0.170 HD
BRANCH   6  18
ATOM     14  C   UNL     1       1.940   1.405   0.929  0.00  0.00    +0.001 A 
ATOM     15  C   UNL     1       1.171   2.087   0.003  0.00  0.00    +0.003 A 
ATOM     16  C   UNL     1       0.425   1.393  -0.931  0.00  0.00    +0.039 A 
ATOM     17  C   UNL     1       0.445   0.010  -0.946  0.00  0.00    +0.132 A 
ATOM     18  C   UNL     1       1.220  -0.682  -0.014  0.00  0.00    +0.032 A 
ATOM     19  C   UNL     1       1.969   0.026   0.925  0.00  0.00    +0.012 A 
ATOM     20  F   UNL     1      -0.284  -0.668  -1.859  0.00  0.00    -0.205 F 
ENDBRANCH   6  18
ENDBRANCH   5  11
ENDBRANCH   1   5
BRANCH   3  21
ATOM     21  C   UNL     1      -3.029  -5.360  -3.888  0.00  0.00    +0.108 C 
BRANCH  21  22
ATOM     22  C   UNL     1      -4.373  -6.047  -4.141  0.00  0.00    +0.052 C 
BRANCH  22  23
ATOM     23  C   UNL     1      -4.687  -6.009  -5.614  0.00  0.00    -0.040 C 
ATOM     24  C   UNL     1      -4.436  -6.978  -6.524  0.00  0.00    +0.000 A 
ATOM     25  C   UNL     1      -3.819  -8.306  -6.418  0.00  0.00    +0.030 A 
ATOM     26  C   UNL     1      -3.702  -9.066  -7.532  0.00  0.00    +0.042 A 
ATOM     27  C   UNL     1      -4.155  -8.617  -8.781  0.00  0.00    +0.022 A 
ATOM     28  C   UNL     1      -4.732  -7.410  -8.957  0.00  0.00    +0.027 A 
ATOM     29  C   UNL     1      -4.906  -6.529  -7.854  0.00  0.00    +0.043 A 
ATOM     30  N   UNL     1      -5.427  -5.329  -7.770  0.00  0.00    -0.380 N 
ATOM     31  C   UNL     1      -5.353  -4.883  -6.374  0.00  0.00    +0.144 C 
ATOM     32 CL   UNL     1      -2.972 -10.636  -7.411  0.00  0.00    -0.084 Cl
ATOM     33  H   UNL     1      -5.803  -4.822  -8.507  0.00  0.00    +0.160 HD
ENDBRANCH  22  23
ENDBRANCH  21  22
ENDBRANCH   3  21
TORSDOF 6
