REMARK  Name = ZINC05307512
REMARK  8 active torsions:
REMARK  status: ('A' for Active; 'I' for Inactive)
REMARK    1  A    between atoms: C_1  and  C_2
REMARK    2  A    between atoms: C_2  and  C_4
REMARK    3  A    between atoms: C_2  and  O_17
REMARK    4  A    between atoms: N_6  and  C_7
REMARK    5  A    between atoms: C_10  and  S_13
REMARK    6  A    between atoms: S_13  and  N_16
REMARK    7  A    between atoms: O_17  and  C_18
REMARK    8  A    between atoms: C_18  and  C_20
REMARK                            x       y       z     vdW  Elec       q    Type
REMARK                         _______ _______ _______ _____ _____    ______ ____
ROOT
ATOM      1  C   UNL     1      -1.255   3.412   0.128  0.00  0.00    +0.258 C 
ATOM      2  O   UNL     1      -0.215   4.035   0.127  0.00  0.00    -0.271 OA
ATOM      3  N   UNL     1      -1.237   2.069   0.019  0.00  0.00    -0.282 N 
ATOM      4  H   UNL     1      -2.070   1.577  -0.057  0.00  0.00    +0.155 HD
ENDROOT
BRANCH   3   5
ATOM      5  C   UNL     1      -0.017   1.384   0.015  0.00  0.00    +0.034 A 
ATOM      6  C   UNL     1       0.127   0.222  -0.732  0.00  0.00    +0.025 A 
ATOM      7  C   UNL     1       1.331  -0.454  -0.730  0.00  0.00    +0.030 A 
ATOM      8  C   UNL     1       2.392   0.023   0.017  0.00  0.00    +0.105 A 
ATOM      9  C   UNL     1       2.252   1.180   0.762  0.00  0.00    +0.030 A 
ATOM     10  C   UNL     1       1.051   1.861   0.763  0.00  0.00    +0.025 A 
BRANCH   8  11
ATOM     11  S   UNL     1       3.927  -0.843   0.017  0.00  0.00    +0.056 S 
ATOM     12  O   UNL     1       3.970  -1.593  -1.189  0.00  0.00    -0.153 OA
ATOM     13  O   UNL     1       4.928   0.105   0.361  0.00  0.00    -0.153 OA
BRANCH  11  14
ATOM     14  N   UNL     1       3.869  -1.941   1.256  0.00  0.00    -0.204 NA
ATOM     15  H   UNL     1       3.077  -2.002   1.813  0.00  0.00    +0.144 HD
ATOM     16  H   UNL     1       4.626  -2.522   1.424  0.00  0.00    +0.144 HD
ENDBRANCH  11  14
ENDBRANCH   8  11
ENDBRANCH   3   5
BRANCH   1  18
ATOM     17  C   UNL     1      -3.375   3.960  -1.036  0.00  0.00    +0.062 C 
ATOM     18  C   UNL     1      -2.569   4.140   0.252  0.00  0.00    +0.259 C 
BRANCH  18  19
ATOM     19  O   UNL     1      -2.320   5.554   0.473  0.00  0.00    -0.448 OA
BRANCH  19  20
ATOM     20  C   UNL     1      -3.237   6.231   1.195  0.00  0.00    +0.347 C 
ATOM     21  O   UNL     1      -4.217   5.656   1.627  0.00  0.00    -0.244 OA
BRANCH  20  22
ATOM     22  C   UNL     1      -3.051   7.659   1.458  0.00  0.00    +0.097 A 
ATOM     23  C   UNL     1      -3.861   8.529   2.166  0.00  0.00    +0.026 A 
ATOM     24  C   UNL     1      -3.464   9.851   2.276  0.00  0.00    -0.036 A 
ATOM     25  C   UNL     1      -2.289  10.192   1.667  0.00  0.00    -0.006 A 
ATOM     26  S   UNL     1      -1.717   8.733   0.955  0.00  0.00    -0.086 S 
ATOM     27  C   UNL     1      -1.647  11.545   1.639  0.00  0.00    +0.043 C 
ATOM     28  C   UNL     1      -2.688  12.584   2.080  0.00  0.00    +0.005 C 
ATOM     29  C   UNL     1      -3.371  12.086   3.357  0.00  0.00    +0.005 C 
ATOM     30  C   UNL     1      -4.277  10.897   3.034  0.00  0.00    +0.036 C 
ENDBRANCH  20  22
ENDBRANCH  19  20
ENDBRANCH  18  19
ENDBRANCH   1  18
TORSDOF 7
