REMARK  Name = ZINC40124169
REMARK  11 active torsions:
REMARK  status: ('A' for Active; 'I' for Inactive)
REMARK    1  A    between atoms: C_1  and  C_2
REMARK    2  A    between atoms: C_4  and  C_14
REMARK    3  A    between atoms: C_6  and  C_13
REMARK    4  A    between atoms: C_7  and  O_8
REMARK    5  A    between atoms: O_8  and  C_9
REMARK    6  A    between atoms: C_9  and  C_10
REMARK    7  A    between atoms: C_10  and  C_11
REMARK    8  A    between atoms: C_10  and  C_12
REMARK    9  A    between atoms: C_14  and  C_16
REMARK   10  A    between atoms: C_21  and  C_23
REMARK   11  A    between atoms: C_27  and  N_29
REMARK                            x       y       z     vdW  Elec       q    Type
REMARK                         _______ _______ _______ _____ _____    ______ ____
ROOT
ATOM      1  C   UNL     1       0.278  -4.652  -2.343  0.00  0.00    +0.076 C 
ATOM      2  C   UNL     1      -0.450  -5.698  -2.799  0.00  0.00    +0.249 C 
ATOM      3  C   UNL     1       0.199  -6.959  -2.382  0.00  0.00    +0.285 C 
ATOM      4  O   UNL     1      -0.214  -8.073  -2.639  0.00  0.00    -0.267 OA
ATOM      5  N   UNL     1       1.313  -6.692  -1.677  0.00  0.00    -0.298 N 
ATOM      6  C   UNL     1       1.458  -5.233  -1.599  0.00  0.00    +0.142 C 
ATOM      7  O   UNL     1      -1.589  -5.604  -3.522  0.00  0.00    -0.282 OA
ATOM      8  H   UNL     1       1.915  -7.347  -1.291  0.00  0.00    +0.150 HD
ENDROOT
BRANCH   6   9
ATOM      9  C   UNL     1       2.746  -4.802  -2.253  0.00  0.00    -0.020 A 
ATOM     10  C   UNL     1       3.143  -5.380  -3.445  0.00  0.00    +0.006 A 
ATOM     11  C   UNL     1       4.324  -4.984  -4.045  0.00  0.00    +0.003 A 
ATOM     12  C   UNL     1       5.107  -4.011  -3.454  0.00  0.00    +0.033 A 
ATOM     13  C   UNL     1       4.710  -3.433  -2.263  0.00  0.00    +0.127 A 
ATOM     14  C   UNL     1       3.526  -3.826  -1.665  0.00  0.00    +0.038 A 
BRANCH  13  15
ATOM     15  N   UNL     1       5.549  -2.392  -1.629  0.00  0.00    +0.056 N 
ATOM     16  O   UNL     1       6.575  -2.035  -2.161  0.00  0.00    -0.126 OA
ATOM     17  O   UNL     1       5.210  -1.897  -0.579  0.00  0.00    -0.126 OA
ENDBRANCH  13  15
ENDBRANCH   6   9
BRANCH   1  18
ATOM     18  C   UNL     1      -0.018  -3.229  -2.537  0.00  0.00    +0.195 C 
ATOM     19  O   UNL     1       0.009  -2.750  -3.655  0.00  0.00    -0.287 OA
BRANCH  18  23
ATOM     20  C   UNL     1      -1.094   1.260  -0.651  0.00  0.00    +0.047 C 
ATOM     21  C   UNL     1      -0.869  -0.218  -0.466  0.00  0.00    -0.008 A 
ATOM     22  C   UNL     1      -0.559  -1.008  -1.550  0.00  0.00    +0.018 A 
ATOM     23  C   UNL     1      -0.350  -2.379  -1.377  0.00  0.00    +0.023 A 
ATOM     24  C   UNL     1      -0.457  -2.943  -0.102  0.00  0.00    +0.018 A 
ATOM     25  C   UNL     1      -0.766  -2.147   0.977  0.00  0.00    -0.008 A 
ATOM     26  C   UNL     1      -0.968  -0.782   0.801  0.00  0.00    +0.126 A 
ATOM     27  C   UNL     1      -0.882  -2.754   2.351  0.00  0.00    +0.047 C 
BRANCH  26  28
ATOM     28  O   UNL     1      -1.268   0.000   1.869  0.00  0.00    -0.491 OA
BRANCH  28  29
ATOM     29  C   UNL     1      -2.652   0.161   2.187  0.00  0.00    +0.232 C 
BRANCH  29  30
ATOM     30  C   UNL     1      -2.792   1.069   3.410  0.00  0.00    +0.020 C 
ATOM     31  C   UNL     1      -2.290   2.473   3.063  0.00  0.00    +0.010 C 
ATOM     32  C   UNL     1      -4.262   1.142   3.826  0.00  0.00    +0.010 C 
ENDBRANCH  29  30
ENDBRANCH  28  29
ENDBRANCH  26  28
ENDBRANCH  18  23
ENDBRANCH   1  18
TORSDOF 7
