REMARK  Name = ZINC39774295
REMARK  11 active torsions:
REMARK  status: ('A' for Active; 'I' for Inactive)
REMARK    1  A    between atoms: C_1  and  C_2
REMARK    2  A    between atoms: N_4  and  C_28
REMARK    3  A    between atoms: C_6  and  C_27
REMARK    4  A    between atoms: N_9  and  O_10
REMARK    5  A    between atoms: O_10  and  C_11
REMARK    6  A    between atoms: C_11  and  C_12
REMARK    7  A    between atoms: C_12  and  O_13
REMARK    8  A    between atoms: O_13  and  N_14
REMARK    9  A    between atoms: C_16  and  C_25
REMARK   10  A    between atoms: N_19  and  C_24
REMARK   11  A    between atoms: C_20  and  C_23
REMARK                            x       y       z     vdW  Elec       q    Type
REMARK                         _______ _______ _______ _____ _____    ______ ____
ROOT
ATOM      1  C   UNL     1      -0.212  -3.177   4.344  0.00  0.00    +0.306 C 
ENDROOT
BRANCH   1   2
ATOM      2  O   UNL     1       0.094  -2.213   3.334  0.00  0.00    -0.390 OA
BRANCH   2   9
ATOM      3  C   UNL     1      -0.019   1.526   0.010  0.00  0.00    -0.013 C 
ATOM      4  C   UNL     1       0.002  -0.004   0.002  0.00  0.00    -0.066 C 
ATOM      5  N   UNL     1       0.689  -0.477  -1.206  0.00  0.00    +0.380 N 
ATOM      6  C   UNL     1       0.579  -1.937  -1.312  0.00  0.00    -0.070 C 
ATOM      7  C   UNL     1       1.365  -2.593  -0.170  0.00  0.00    +0.017 C 
ATOM      8  C   UNL     1       0.866  -2.018   1.139  0.00  0.00    +0.057 C 
ATOM      9  N   UNL     1       0.558  -2.778   2.122  0.00  0.00    -0.094 NA
ATOM     10  C   UNL     1       0.743  -0.512   1.244  0.00  0.00    +0.039 C 
ATOM     11  C   UNL     1       2.857  -2.293  -0.331  0.00  0.00    +0.012 C 
ATOM     12  C   UNL     1       0.078   0.144  -2.388  0.00  0.00    -0.096 C 
ATOM     13  H   UNL     1       1.663  -0.218  -1.160  0.00  0.00    -0.082 HD
ENDBRANCH   2   9
ENDBRANCH   1   2
BRANCH   1  14
ATOM     14  C   UNL     1      -0.702  -2.458   5.603  0.00  0.00    +0.306 C 
BRANCH  14  15
ATOM     15  O   UNL     1      -1.938  -1.798   5.325  0.00  0.00    -0.390 OA
BRANCH  15  16
ATOM     16  N   UNL     1      -2.479  -1.099   6.431  0.00  0.00    -0.094 NA
ATOM     17  C   UNL     1      -3.584  -0.466   6.308  0.00  0.00    +0.057 C 
ATOM     18  C   UNL     1      -4.185   0.296   7.472  0.00  0.00    +0.017 C 
ATOM     19  C   UNL     1      -4.577   1.693   6.978  0.00  0.00    -0.070 C 
ATOM     20  N   UNL     1      -5.457   1.570   5.810  0.00  0.00    +0.380 N 
ATOM     21  C   UNL     1      -4.720   0.999   4.677  0.00  0.00    -0.066 C 
ATOM     22  C   UNL     1      -4.336  -0.447   4.993  0.00  0.00    +0.039 C 
ATOM     23  C   UNL     1      -5.600   1.032   3.426  0.00  0.00    -0.013 C 
ATOM     24  C   UNL     1      -5.964   2.899   5.441  0.00  0.00    -0.096 C 
ATOM     25  C   UNL     1      -3.155   0.415   8.597  0.00  0.00    +0.012 C 
ATOM     26  H   UNL     1      -6.235   0.970   6.040  0.00  0.00    -0.082 HD
ENDBRANCH  15  16
ENDBRANCH  14  15
ENDBRANCH   1  14
TORSDOF 5
