REMARK  Name = ZINC02518529
REMARK  9 active torsions:
REMARK  status: ('A' for Active; 'I' for Inactive)
REMARK    1  A    between atoms: C_1  and  O_2
REMARK    2  A    between atoms: O_2  and  C_3
REMARK    3  A    between atoms: C_5  and  C_19
REMARK    4  A    between atoms: C_8  and  O_9
REMARK    5  A    between atoms: O_9  and  C_10
REMARK    6  A    between atoms: C_10  and  C_12
REMARK    7  A    between atoms: N_20  and  N_21
REMARK    8  A    between atoms: C_22  and  C_24
REMARK    9  A    between atoms: N_26  and  C_27
REMARK                            x       y       z     vdW  Elec       q    Type
REMARK                         _______ _______ _______ _____ _____    ______ ____
ROOT
ATOM      1  C   UNL     1      -0.515   1.280   0.198  0.00  0.00    +0.163 A 
ATOM      2  C   UNL     1      -0.407  -0.098   0.180  0.00  0.00    +0.059 A 
ATOM      3  C   UNL     1       0.850  -0.696   0.050  0.00  0.00    -0.002 A 
ATOM      4  C   UNL     1       1.991   0.103  -0.061  0.00  0.00    +0.013 A 
ATOM      5  C   UNL     1       1.876   1.476  -0.042  0.00  0.00    +0.051 A 
ATOM      6  C   UNL     1       0.628   2.069   0.087  0.00  0.00    +0.173 A 
ENDROOT
BRANCH   1   8
ATOM      7  C   UNL     1      -2.865   0.994   0.422  0.00  0.00    +0.277 C 
ATOM      8  O   UNL     1      -1.736   1.864   0.319  0.00  0.00    -0.491 OA
ENDBRANCH   1   8
BRANCH   3   9
ATOM      9  C   UNL     1       0.971  -2.164   0.029  0.00  0.00    +0.138 C 
ATOM     10  N   UNL     1       2.140  -2.718  -0.092  0.00  0.00    -0.187 NA
BRANCH  10  11
ATOM     11  N   UNL     1       2.255  -4.114  -0.112  0.00  0.00    -0.199 N 
ATOM     12  C   UNL     1       3.467  -4.689  -0.237  0.00  0.00    +0.318 C 
ATOM     13  O   UNL     1       4.460  -3.996  -0.333  0.00  0.00    -0.263 OA
ATOM     14  H   UNL     1       1.462  -4.667  -0.035  0.00  0.00    +0.178 HD
BRANCH  12  15
ATOM     15  C   UNL     1       3.590  -6.174  -0.258  0.00  0.00    +0.305 C 
ATOM     16  O   UNL     1       2.597  -6.867  -0.162  0.00  0.00    -0.265 OA
ATOM     17  N   UNL     1       4.803  -6.749  -0.384  0.00  0.00    -0.278 N 
ATOM     18  H   UNL     1       5.588  -6.198  -0.528  0.00  0.00    +0.155 HD
BRANCH  17  19
ATOM     19  C   UNL     1       4.929  -8.139  -0.306  0.00  0.00    +0.034 A 
ATOM     20  C   UNL     1       6.056  -8.704   0.279  0.00  0.00    +0.026 A 
ATOM     21  C   UNL     1       6.176 -10.077   0.360  0.00  0.00    +0.040 A 
ATOM     22  C   UNL     1       5.179 -10.891  -0.151  0.00  0.00    +0.124 A 
ATOM     23  C   UNL     1       4.058 -10.331  -0.740  0.00  0.00    +0.040 A 
ATOM     24  C   UNL     1       3.931  -8.958  -0.818  0.00  0.00    +0.026 A 
ATOM     25  F   UNL     1       5.301 -12.235  -0.075  0.00  0.00    -0.205 F 
ENDBRANCH  17  19
ENDBRANCH  12  15
ENDBRANCH  10  11
ENDBRANCH   3   9
BRANCH   6  26
ATOM     26  O   UNL     1       0.520   3.424   0.105  0.00  0.00    -0.419 OA
BRANCH  26  27
ATOM     27  C   UNL     1       0.504   4.020   1.313  0.00  0.00    +0.345 C 
ATOM     28  O   UNL     1       0.492   3.345   2.324  0.00  0.00    -0.245 OA
BRANCH  27  29
ATOM     29  C   UNL     1       0.502   5.494   1.410  0.00  0.00    +0.059 A 
ATOM     30  C   UNL     1       0.523   6.272   0.250  0.00  0.00    +0.016 A 
ATOM     31  C   UNL     1       0.515   7.647   0.347  0.00  0.00    +0.021 A 
ATOM     32  C   UNL     1       0.500   8.257   1.590  0.00  0.00    +0.041 A 
ATOM     33  C   UNL     1       0.485   7.491   2.744  0.00  0.00    +0.021 A 
ATOM     34  C   UNL     1       0.486   6.114   2.661  0.00  0.00    +0.016 A 
ATOM     35 CL   UNL     1       0.497   9.990   1.704  0.00  0.00    -0.084 Cl
ENDBRANCH  27  29
ENDBRANCH  26  27
ENDBRANCH   6  26
TORSDOF 8
