REMARK  Name = ZINC13880661
REMARK  6 active torsions:
REMARK  status: ('A' for Active; 'I' for Inactive)
REMARK    1  A    between atoms: C_1  and  C_2
REMARK    2  A    between atoms: C_4  and  O_25
REMARK    3  A    between atoms: C_6  and  O_24
REMARK    4  A    between atoms: C_7  and  C_8
REMARK    5  A    between atoms: N_9  and  N_10
REMARK    6  A    between atoms: C_11  and  C_13
REMARK                            x       y       z     vdW  Elec       q    Type
REMARK                         _______ _______ _______ _____ _____    ______ ____
ROOT
ATOM      1  N   UNL     1      -1.334   5.868  -0.210  0.00  0.00    -0.204 N 
ATOM      2  C   UNL     1      -1.378   7.204  -0.382  0.00  0.00    +0.276 C 
ATOM      3  O   UNL     1      -2.444   7.783  -0.359  0.00  0.00    -0.270 OA
ATOM      4  H   UNL     1      -0.482   5.404  -0.228  0.00  0.00    +0.177 HD
ENDROOT
BRANCH   2   5
ATOM      5  C   UNL     1      -0.104   7.977  -0.602  0.00  0.00    +0.297 C 
ATOM      6  C   UNL     1       0.762   7.920   0.664  0.00  0.00    +0.283 C 
ATOM      7  O   UNL     1       1.955   8.675   0.425  0.00  0.00    -0.484 OA
ATOM      8  C   UNL     1       1.800   9.899  -0.150  0.00  0.00    +0.162 A 
ATOM      9  C   UNL     1       2.837  10.817  -0.086  0.00  0.00    +0.049 A 
ATOM     10  C   UNL     1       2.697  12.062  -0.671  0.00  0.00    +0.004 A 
ATOM     11  C   UNL     1       1.523  12.394  -1.321  0.00  0.00    +0.004 A 
ATOM     12  C   UNL     1       0.485  11.484  -1.387  0.00  0.00    +0.049 A 
ATOM     13  C   UNL     1       0.619  10.234  -0.802  0.00  0.00    +0.163 A 
ATOM     14  O   UNL     1      -0.413   9.349  -0.873  0.00  0.00    -0.472 OA
ENDBRANCH   2   5
BRANCH   1  16
ATOM     15  C   UNL     1      -2.487   3.853   0.070  0.00  0.00    +0.142 C 
ATOM     16  N   UNL     1      -2.519   5.148  -0.005  0.00  0.00    -0.187 NA
BRANCH  15  23
ATOM     17  C   UNL     1      -1.944   1.829  -1.922  0.00  0.00    +0.044 C 
ATOM     18  C   UNL     1      -0.918   2.167  -0.872  0.00  0.00    -0.035 A 
ATOM     19  C   UNL     1       0.291   1.507  -0.851  0.00  0.00    +0.049 A 
ATOM     20  C   UNL     1       1.242   1.819   0.112  0.00  0.00    +0.121 A 
ATOM     21  C   UNL     1       0.980   2.794   1.064  0.00  0.00    +0.091 A 
ATOM     22  C   UNL     1      -0.232   3.461   1.057  0.00  0.00    +0.129 A 
ATOM     23  C   UNL     1      -1.194   3.147   0.085  0.00  0.00    +0.039 A 
BRANCH  22  24
ATOM     24  O   UNL     1      -0.490   4.416   1.987  0.00  0.00    -0.506 OA
ATOM     25  H   UNL     1      -0.153   5.292   1.755  0.00  0.00    +0.292 HD
ENDBRANCH  22  24
BRANCH  20  26
ATOM     26  O   UNL     1       2.434   1.167   0.123  0.00  0.00    -0.507 OA
ATOM     27  H   UNL     1       3.120   1.593  -0.410  0.00  0.00    +0.292 HD
ENDBRANCH  20  26
ENDBRANCH  15  23
ENDBRANCH   1  16
TORSDOF 5
