REMARK  Name = ZINC58988168
REMARK  8 active torsions:
REMARK  status: ('A' for Active; 'I' for Inactive)
REMARK    1  A    between atoms: C_4  and  N_7
REMARK    2  A    between atoms: C_8  and  C_29
REMARK    3  A    between atoms: C_11  and  S_12
REMARK    4  A    between atoms: S_12  and  C_13
REMARK    5  A    between atoms: C_13  and  C_14
REMARK    6  A    between atoms: N_16  and  N_17
REMARK    7  A    between atoms: C_18  and  C_19
REMARK    8  A    between atoms: C_21  and  N_26
REMARK                            x       y       z     vdW  Elec       q    Type
REMARK                         _______ _______ _______ _____ _____    ______ ____
ROOT
ATOM      1  S   UNL     1       4.509   0.200   2.479  0.00  0.00    -0.076 S 
ENDROOT
BRANCH   1   6
ATOM      2  N   UNL     1       3.623  -0.652  -0.037  0.00  0.00    -0.270 N 
ATOM      3  C   UNL     1       4.118  -1.453  -1.043  0.00  0.00    +0.171 A 
ATOM      4  N   UNL     1       5.290  -1.890  -0.646  0.00  0.00    -0.128 NA
ATOM      5  N   UNL     1       5.561  -1.425   0.521  0.00  0.00    -0.122 NA
ATOM      6  C   UNL     1       4.580  -0.658   0.941  0.00  0.00    +0.197 A 
BRANCH   2  10
ATOM      7  C   UNL     1      -0.017   1.379   0.010  0.00  0.00    +0.000 A 
ATOM      8  C   UNL     1       1.170   2.089   0.002  0.00  0.00    +0.002 A 
ATOM      9  C   UNL     1       2.377   1.419  -0.013  0.00  0.00    +0.026 A 
ATOM     10  C   UNL     1       2.399   0.031  -0.021  0.00  0.00    +0.051 A 
ATOM     11  C   UNL     1       1.207  -0.680  -0.013  0.00  0.00    +0.026 A 
ATOM     12  C   UNL     1       0.002  -0.004   0.002  0.00  0.00    +0.002 A 
ENDBRANCH   2  10
BRANCH   3  13
ATOM     13  C   UNL     1       3.453  -1.763  -2.326  0.00  0.00    +0.038 A 
ATOM     14  C   UNL     1       3.899  -2.826  -3.121  0.00  0.00    +0.014 A 
ATOM     15  C   UNL     1       3.242  -3.074  -4.313  0.00  0.00    +0.020 A 
ATOM     16  C   UNL     1       2.176  -2.272  -4.678  0.00  0.00    +0.111 A 
ATOM     17  N   UNL     1       1.777  -1.277  -3.909  0.00  0.00    -0.263 NA
ATOM     18  C   UNL     1       2.366  -1.005  -2.763  0.00  0.00    +0.122 A 
ENDBRANCH   3  13
ENDBRANCH   1   6
BRANCH   1  19
ATOM     19  C   UNL     1       6.073  -0.227   3.292  0.00  0.00    +0.174 C 
BRANCH  19  20
ATOM     20  C   UNL     1       6.142   0.451   4.637  0.00  0.00    +0.242 C 
ATOM     21  O   UNL     1       5.225   1.153   5.009  0.00  0.00    -0.273 OA
ATOM     22  N   UNL     1       7.221   0.277   5.425  0.00  0.00    -0.206 N 
ATOM     23  H   UNL     1       7.953  -0.285   5.127  0.00  0.00    +0.177 HD
BRANCH  22  24
ATOM     24  N   UNL     1       7.285   0.907   6.675  0.00  0.00    -0.188 NA
ATOM     25  C   UNL     1       8.324   0.739   7.434  0.00  0.00    +0.142 C 
BRANCH  25  26
ATOM     26  C   UNL     1       8.391   1.402   8.748  0.00  0.00    +0.043 A 
ATOM     27  C   UNL     1       9.510   1.229   9.566  0.00  0.00    +0.046 A 
ATOM     28  C   UNL     1       9.567   1.853  10.794  0.00  0.00    +0.127 A 
ATOM     29  C   UNL     1       8.518   2.650  11.222  0.00  0.00    +0.036 A 
ATOM     30  C   UNL     1       7.405   2.829  10.422  0.00  0.00    +0.054 A 
ATOM     31  C   UNL     1       7.335   2.215   9.182  0.00  0.00    +0.188 A 
ATOM     32  O   UNL     1       6.244   2.395   8.393  0.00  0.00    -0.287 OA
BRANCH  28  33
ATOM     33  N   UNL     1      10.753   1.669  11.660  0.00  0.00    +0.056 N 
ATOM     34  O   UNL     1      11.670   0.973  11.290  0.00  0.00    -0.126 OA
ATOM     35  O   UNL     1      10.805   2.215  12.738  0.00  0.00    -0.126 OA
ENDBRANCH  28  33
ENDBRANCH  25  26
ENDBRANCH  22  24
ENDBRANCH  19  20
ENDBRANCH   1  19
TORSDOF 8
