REMARK  Name = ZINC03474358
REMARK  8 active torsions:
REMARK  status: ('A' for Active; 'I' for Inactive)
REMARK    1  A    between atoms: C_1  and  C_2
REMARK    2  A    between atoms: C_2  and  C_4
REMARK    3  A    between atoms: C_2  and  O_17
REMARK    4  A    between atoms: N_6  and  C_7
REMARK    5  A    between atoms: C_9  and  N_14
REMARK    6  A    between atoms: O_17  and  C_18
REMARK    7  A    between atoms: C_18  and  C_20
REMARK    8  A    between atoms: C_23  and  C_26
REMARK                            x       y       z     vdW  Elec       q    Type
REMARK                         _______ _______ _______ _____ _____    ______ ____
ROOT
ATOM      1  C   UNL     1      -4.894  -0.151  -0.076  0.00  0.00    +0.258 C 
ATOM      2  O   UNL     1      -3.838  -0.748  -0.085  0.00  0.00    -0.271 OA
ATOM      3  N   UNL     1      -4.908   1.192   0.032  0.00  0.00    -0.281 N 
ATOM      4  H   UNL     1      -5.752   1.665   0.104  0.00  0.00    +0.155 HD
ENDROOT
BRANCH   3   5
ATOM      5  C   UNL     1      -3.703   1.906   0.041  0.00  0.00    +0.054 A 
ATOM      6  C   UNL     1      -2.575   1.359   0.638  0.00  0.00    +0.057 A 
ATOM      7  C   UNL     1      -1.389   2.066   0.646  0.00  0.00    +0.128 A 
ATOM      8  C   UNL     1      -1.324   3.319   0.064  0.00  0.00    +0.034 A 
ATOM      9  C   UNL     1      -2.444   3.865  -0.536  0.00  0.00    +0.024 A 
ATOM     10  C   UNL     1      -3.635   3.163  -0.547  0.00  0.00    +0.062 A 
ATOM     11 CL   UNL     1      -5.042   3.850  -1.296  0.00  0.00    -0.082 Cl
BRANCH   7  12
ATOM     12  N   UNL     1      -0.186   1.484   1.282  0.00  0.00    +0.056 N 
ATOM     13  O   UNL     1      -0.243   0.382   1.799  0.00  0.00    -0.126 OA
ATOM     14  O   UNL     1       0.863   2.104   1.285  0.00  0.00    -0.126 OA
ENDBRANCH   7  12
ENDBRANCH   3   5
BRANCH   1  16
ATOM     15  C   UNL     1      -7.043  -0.649   1.056  0.00  0.00    +0.062 C 
ATOM     16  C   UNL     1      -6.191  -0.911  -0.187  0.00  0.00    +0.259 C 
BRANCH  16  17
ATOM     17  O   UNL     1      -5.911  -2.332  -0.292  0.00  0.00    -0.449 OA
BRANCH  17  18
ATOM     18  C   UNL     1      -6.790  -3.078  -0.989  0.00  0.00    +0.340 C 
ATOM     19  O   UNL     1      -7.763  -2.556  -1.495  0.00  0.00    -0.245 OA
BRANCH  18  20
ATOM     20  C   UNL     1      -6.570  -4.532  -1.137  0.00  0.00    +0.059 A 
ATOM     21  C   UNL     1      -5.448  -5.132  -0.560  0.00  0.00    +0.016 A 
ATOM     22  C   UNL     1      -5.247  -6.487  -0.694  0.00  0.00    +0.019 A 
ATOM     23  C   UNL     1      -6.158  -7.261  -1.416  0.00  0.00    +0.052 A 
ATOM     24  C   UNL     1      -7.277  -6.661  -1.998  0.00  0.00    +0.019 A 
ATOM     25  C   UNL     1      -7.482  -5.306  -1.860  0.00  0.00    +0.016 A 
BRANCH  23  26
ATOM     26  C   UNL     1      -5.946  -8.670  -1.559  0.00  0.00    +0.099 C 
ATOM     27  N   UNL     1      -5.777  -9.788  -1.673  0.00  0.00    -0.191 NA
ENDBRANCH  23  26
ENDBRANCH  18  20
ENDBRANCH  17  18
ENDBRANCH  16  17
ENDBRANCH   1  16
TORSDOF 7
