REMARK  Name = ZINC36218798
REMARK  11 active torsions:
REMARK  status: ('A' for Active; 'I' for Inactive)
REMARK    1  A    between atoms: C_1  and  C_2
REMARK    2  A    between atoms: C_5  and  C_8
REMARK    3  A    between atoms: C_8  and  N_9
REMARK    4  A    between atoms: C_10  and  C_29
REMARK    5  A    between atoms: C_12  and  C_17
REMARK    6  A    between atoms: C_21  and  N_23
REMARK    7  A    between atoms: C_24  and  C_26
REMARK    8  A    between atoms: C_26  and  C_27
REMARK    9  A    between atoms: C_26  and  C_28
REMARK   10  A    between atoms: N_31  and  C_32
REMARK   11  A    between atoms: C_32  and  C_33
REMARK                            x       y       z     vdW  Elec       q    Type
REMARK                         _______ _______ _______ _____ _____    ______ ____
ROOT
ATOM      1  N   UNL     1       1.438  -4.763  -0.038  0.00  0.00    -0.248 N 
ATOM      2  C   UNL     1       2.261  -5.023  -1.235  0.00  0.00    +0.210 C 
ATOM      3  C   UNL     1       3.686  -5.115  -0.640  0.00  0.00    +0.238 C 
ATOM      4  O   UNL     1       3.416  -5.485   0.727  0.00  0.00    -0.440 OA
ATOM      5  C   UNL     1       2.192  -5.031   1.045  0.00  0.00    +0.405 C 
ATOM      6  O   UNL     1       1.805  -4.883   2.187  0.00  0.00    -0.226 OA
ENDROOT
BRANCH   3   7
ATOM      7  C   UNL     1       4.493  -6.180  -1.337  0.00  0.00    -0.003 A 
ATOM      8  C   UNL     1       4.318  -7.510  -1.002  0.00  0.00    +0.007 A 
ATOM      9  C   UNL     1       5.056  -8.490  -1.639  0.00  0.00    +0.002 A 
ATOM     10  C   UNL     1       5.971  -8.142  -2.614  0.00  0.00    +0.023 A 
ATOM     11  C   UNL     1       6.149  -6.808  -2.953  0.00  0.00    +0.034 A 
ATOM     12  C   UNL     1       5.402  -5.826  -2.314  0.00  0.00    +0.030 A 
BRANCH  11  13
ATOM     13  N   UNL     1       7.076  -6.453  -3.939  0.00  0.00    -0.285 N 
ATOM     14  C   UNL     1       8.224  -7.147  -4.067  0.00  0.00    +0.220 C 
ATOM     15  O   UNL     1       8.417  -8.130  -3.383  0.00  0.00    -0.275 OA
ATOM     16  H   UNL     1       6.891  -5.707  -4.532  0.00  0.00    +0.155 HD
BRANCH  14  17
ATOM     17  C   UNL     1       9.268  -6.702  -5.059  0.00  0.00    +0.069 C 
ATOM     18  C   UNL     1      10.463  -7.655  -5.003  0.00  0.00    +0.017 C 
ATOM     19  C   UNL     1       8.670  -6.713  -6.467  0.00  0.00    +0.017 C 
ENDBRANCH  14  17
ENDBRANCH  11  13
ENDBRANCH   3   7
BRANCH   2  20
ATOM     20  C   UNL     1       1.862  -6.322  -1.888  0.00  0.00    +0.238 C 
ATOM     21  O   UNL     1       1.230  -7.146  -1.261  0.00  0.00    -0.274 OA
ATOM     22  N   UNL     1       2.208  -6.568  -3.167  0.00  0.00    -0.307 N 
ATOM     23  H   UNL     1       2.714  -5.908  -3.668  0.00  0.00    +0.149 HD
BRANCH  22  24
ATOM     24  C   UNL     1       1.821  -7.830  -3.801  0.00  0.00    +0.178 C 
BRANCH  24  25
ATOM     25  C   UNL     1       2.326  -7.855  -5.220  0.00  0.00    +0.122 A 
ATOM     26  C   UNL     1       3.519  -8.329  -5.623  0.00  0.00    +0.046 A 
ATOM     27  C   UNL     1       3.576  -8.157  -7.025  0.00  0.00    +0.041 A 
ATOM     28  C   UNL     1       2.415  -7.589  -7.396  0.00  0.00    +0.195 A 
ATOM     29  O   UNL     1       1.659  -7.413  -6.299  0.00  0.00    -0.466 OA
ENDBRANCH  24  25
ENDBRANCH  22  24
ENDBRANCH   2  20
BRANCH   1  30
ATOM     30  C   UNL     1       0.051  -4.290  -0.029  0.00  0.00    +0.147 C 
BRANCH  30  35
ATOM     31  C   UNL     1      -0.017   1.488   0.042  0.00  0.00    +0.044 C 
ATOM     32  C   UNL     1       0.001  -0.019   0.024  0.00  0.00    -0.050 A 
ATOM     33  C   UNL     1       0.007  -0.695  -1.182  0.00  0.00    +0.003 A 
ATOM     34  C   UNL     1       0.023  -2.077  -1.199  0.00  0.00    +0.005 A 
ATOM     35  C   UNL     1       0.034  -2.783  -0.010  0.00  0.00    -0.030 A 
ATOM     36  C   UNL     1       0.029  -2.107   1.195  0.00  0.00    +0.005 A 
ATOM     37  C   UNL     1       0.017  -0.724   1.212  0.00  0.00    +0.003 A 
ENDBRANCH  30  35
ENDBRANCH   1  30
TORSDOF 8
