REMARK  Name = ZINC14697618
REMARK  9 active torsions:
REMARK  status: ('A' for Active; 'I' for Inactive)
REMARK    1  A    between atoms: C_1  and  N_2
REMARK    2  A    between atoms: C_7  and  C_9
REMARK    3  A    between atoms: N_11  and  C_12
REMARK    4  A    between atoms: N_11  and  C_20
REMARK    5  A    between atoms: C_12  and  C_13
REMARK    6  A    between atoms: C_13  and  C_14
REMARK    7  A    between atoms: C_21  and  N_36
REMARK    8  A    between atoms: N_22  and  C_29
REMARK    9  A    between atoms: C_29  and  C_30
REMARK                            x       y       z     vdW  Elec       q    Type
REMARK                         _______ _______ _______ _____ _____    ______ ____
ROOT
ATOM      1  C   UNL     1      -0.910   5.589   0.413  0.00  0.00    +0.271 C 
ATOM      2  O   UNL     1      -0.361   6.557   0.903  0.00  0.00    -0.268 OA
ATOM      3  N   UNL     1      -2.196   5.671   0.019  0.00  0.00    -0.259 N 
ENDROOT
BRANCH   3   4
ATOM      4  C   UNL     1      -2.873   6.907   0.076  0.00  0.00    +0.140 A 
ATOM      5  C   UNL     1      -3.142   7.506   1.290  0.00  0.00    +0.128 A 
ATOM      6  N   UNL     1      -3.799   8.714   1.312  0.00  0.00    -0.276 N 
ATOM      7  C   UNL     1      -4.185   9.300   0.165  0.00  0.00    +0.331 A 
ATOM      8  O   UNL     1      -4.769  10.366   0.206  0.00  0.00    -0.246 OA
ATOM      9  N   UNL     1      -3.936   8.730  -1.027  0.00  0.00    -0.273 N 
ATOM     10  H   UNL     1      -4.233   9.187  -1.866  0.00  0.00    +0.173 HD
ATOM     11  C   UNL     1      -3.291   7.549  -1.105  0.00  0.00    +0.277 A 
ATOM     12  O   UNL     1      -3.071   7.040  -2.192  0.00  0.00    -0.266 OA
BRANCH   5  13
ATOM     13  N   UNL     1      -2.753   6.904   2.463  0.00  0.00    -0.343 N 
ATOM     14  H   UNL     1      -2.262   6.068   2.439  0.00  0.00    +0.144 HD
ATOM     15  H   UNL     1      -2.969   7.316   3.314  0.00  0.00    +0.144 HD
ENDBRANCH   5  13
BRANCH   6  16
ATOM     16  C   UNL     1      -4.085   9.363   2.594  0.00  0.00    +0.163 C 
BRANCH  16  17
ATOM     17  C   UNL     1      -5.427   8.901   3.102  0.00  0.00    -0.028 A 
ATOM     18  C   UNL     1      -6.572   9.598   2.762  0.00  0.00    +0.005 A 
ATOM     19  C   UNL     1      -7.803   9.172   3.224  0.00  0.00    +0.000 A 
ATOM     20  C   UNL     1      -7.888   8.055   4.034  0.00  0.00    +0.000 A 
ATOM     21  C   UNL     1      -6.743   7.361   4.378  0.00  0.00    +0.000 A 
ATOM     22  C   UNL     1      -5.513   7.785   3.912  0.00  0.00    +0.005 A 
ENDBRANCH  16  17
ENDBRANCH   6  16
ENDBRANCH   3   4
BRANCH   1  29
ATOM     23  C   UNL     1      -0.945   0.980  -0.859  0.00  0.00    +0.176 C 
ATOM     24  N   UNL     1      -0.187   2.127  -0.355  0.00  0.00    -0.232 N 
ATOM     25  C   UNL     1       1.120   1.975  -0.070  0.00  0.00    +0.267 A 
ATOM     26  O   UNL     1       1.662   0.894  -0.231  0.00  0.00    -0.266 OA
ATOM     27  C   UNL     1       1.862   3.077   0.410  0.00  0.00    +0.074 A 
ATOM     28  C   UNL     1       1.210   4.263   0.573  0.00  0.00    +0.040 A 
ATOM     29  C   UNL     1      -0.168   4.321   0.251  0.00  0.00    +0.146 A 
ATOM     30  N   UNL     1      -0.788   3.250  -0.192  0.00  0.00    -0.164 NA
ENDBRANCH   1  29
BRANCH   3  31
ATOM     31  C   UNL     1      -2.892   4.477  -0.468  0.00  0.00    +0.118 C 
BRANCH  31  32
ATOM     32  C   UNL     1      -3.420   3.673   0.722  0.00  0.00    +0.050 C 
BRANCH  32  33
ATOM     33  C   UNL     1      -4.275   2.538   0.221  0.00  0.00    -0.072 C 
ATOM     34  C   UNL     1      -3.733   1.367   0.125  0.00  0.00    -0.028 C 
ATOM     35  C   UNL     1      -4.453   0.144  -0.365  0.00  0.00    +0.027 C 
ATOM     36  C   UNL     1      -5.965   0.371  -0.322  0.00  0.00    +0.004 C 
ATOM     37  C   UNL     1      -6.275   1.711  -1.000  0.00  0.00    +0.005 C 
ATOM     38  C   UNL     1      -5.704   2.835  -0.129  0.00  0.00    +0.030 C 
ENDBRANCH  32  33
ENDBRANCH  31  32
ENDBRANCH   3  31
TORSDOF 8
