REMARK  Name = ZINC03468873
REMARK  7 active torsions:
REMARK  status: ('A' for Active; 'I' for Inactive)
REMARK    1  A    between atoms: C_4  and  N_7
REMARK    2  A    between atoms: C_16  and  C_18
REMARK    3  A    between atoms: C_18  and  O_20
REMARK    4  A    between atoms: O_20  and  C_21
REMARK    5  A    between atoms: C_21  and  C_22
REMARK    6  A    between atoms: N_27  and  C_28
REMARK    7  A    between atoms: C_28  and  C_29
REMARK                            x       y       z     vdW  Elec       q    Type
REMARK                         _______ _______ _______ _____ _____    ______ ____
ROOT
ATOM      1  C   UNL     1       2.331   4.387  -0.270  0.00  0.00    +0.361 C 
ATOM      2  O   UNL     1       3.420   3.848  -0.295  0.00  0.00    -0.243 OA
ENDROOT
BRANCH   1  12
ATOM      3  N   UNL     1      -1.175   3.514   0.031  0.00  0.00    -0.196 N 
ATOM      4  C   UNL     1      -1.257   2.173   0.144  0.00  0.00    +0.280 A 
ATOM      5  O   UNL     1      -2.336   1.622   0.256  0.00  0.00    -0.265 OA
ATOM      6  C   UNL     1      -0.012   1.392   0.135  0.00  0.00    +0.051 A 
ATOM      7  C   UNL     1       0.011   0.006   0.250  0.00  0.00    +0.014 A 
ATOM      8  C   UNL     1       1.222  -0.654   0.226  0.00  0.00    +0.001 A 
ATOM      9  C   UNL     1       2.411   0.050   0.089  0.00  0.00    +0.001 A 
ATOM     10  C   UNL     1       2.409   1.424  -0.026  0.00  0.00    +0.011 A 
ATOM     11  C   UNL     1       1.199   2.109  -0.004  0.00  0.00    +0.021 A 
ATOM     12  C   UNL     1       1.110   3.574  -0.122  0.00  0.00    +0.176 A 
ATOM     13  N   UNL     1      -0.070   4.147  -0.094  0.00  0.00    -0.156 NA
BRANCH   3  17
ATOM     14  C   UNL     1      -4.712   5.716   0.077  0.00  0.00    +0.000 A 
ATOM     15  C   UNL     1      -4.480   4.762   1.052  0.00  0.00    +0.002 A 
ATOM     16  C   UNL     1      -3.309   4.030   1.039  0.00  0.00    +0.028 A 
ATOM     17  C   UNL     1      -2.363   4.253   0.046  0.00  0.00    +0.069 A 
ATOM     18  C   UNL     1      -2.596   5.216  -0.928  0.00  0.00    +0.028 A 
ATOM     19  C   UNL     1      -3.772   5.940  -0.912  0.00  0.00    +0.002 A 
ENDBRANCH   3  17
ENDBRANCH   1  12
BRANCH   1  20
ATOM     20  O   UNL     1       2.240   5.727  -0.377  0.00  0.00    -0.451 OA
BRANCH  20  21
ATOM     21  C   UNL     1       3.483   6.463  -0.519  0.00  0.00    +0.328 C 
BRANCH  21  22
ATOM     22  C   UNL     1       3.186   7.937  -0.624  0.00  0.00    +0.258 C 
ATOM     23  O   UNL     1       2.039   8.328  -0.583  0.00  0.00    -0.272 OA
ATOM     24  N   UNL     1       4.194   8.820  -0.764  0.00  0.00    -0.237 N 
ATOM     25  C   UNL     1       3.928  10.137  -0.858  0.00  0.00    +0.306 C 
ATOM     26  O   UNL     1       2.778  10.530  -0.817  0.00  0.00    -0.252 OA
ATOM     27  N   UNL     1       4.936  11.021  -0.998  0.00  0.00    -0.292 N 
ATOM     28  H   UNL     1       5.112   8.507  -0.797  0.00  0.00    +0.159 HD
ATOM     29  H   UNL     1       5.854  10.708  -1.030  0.00  0.00    +0.151 HD
BRANCH  27  30
ATOM     30  C   UNL     1       4.647  12.453  -1.100  0.00  0.00    +0.180 C 
BRANCH  30  31
ATOM     31  C   UNL     1       5.937  13.217  -1.248  0.00  0.00    +0.122 A 
ATOM     32  C   UNL     1       6.541  13.524  -2.410  0.00  0.00    +0.046 A 
ATOM     33  C   UNL     1       7.715  14.241  -2.084  0.00  0.00    +0.041 A 
ATOM     34  C   UNL     1       7.759  14.329  -0.743  0.00  0.00    +0.195 A 
ATOM     35  O   UNL     1       6.677  13.712  -0.241  0.00  0.00    -0.466 OA
ENDBRANCH  30  31
ENDBRANCH  27  30
ENDBRANCH  21  22
ENDBRANCH  20  21
ENDBRANCH   1  20
TORSDOF 7
