REMARK  Name = ZINC31174333
REMARK  11 active torsions:
REMARK  status: ('A' for Active; 'I' for Inactive)
REMARK    1  A    between atoms: C_1  and  C_2
REMARK    2  A    between atoms: C_2  and  N_3
REMARK    3  A    between atoms: N_3  and  C_4
REMARK    4  A    between atoms: N_3  and  C_16
REMARK    5  A    between atoms: C_4  and  C_5
REMARK    6  A    between atoms: C_16  and  C_17
REMARK    7  A    between atoms: C_18  and  C_30
REMARK    8  A    between atoms: C_19  and  C_25
REMARK    9  A    between atoms: C_30  and  O_32
REMARK   10  A    between atoms: O_32  and  C_33
REMARK   11  A    between atoms: C_33  and  C_34
REMARK                            x       y       z     vdW  Elec       q    Type
REMARK                         _______ _______ _______ _____ _____    ______ ____
ROOT
ATOM      1  C   UNL     1      -7.129   5.672   2.665  0.00  0.00    +0.038 C 
ATOM      2  C   UNL     1      -6.675   6.058   3.877  0.00  0.00    +0.082 C 
ATOM      3  C   UNL     1      -7.272   5.389   5.099  0.00  0.00    +0.179 C 
ATOM      4  N   UNL     1      -8.298   4.359   4.861  0.00  0.00    -0.285 N 
ATOM      5  C   UNL     1      -8.643   4.079   3.589  0.00  0.00    +0.304 C 
ATOM      6  O   UNL     1      -9.489   3.231   3.382  0.00  0.00    -0.252 OA
ATOM      7  N   UNL     1      -8.086   4.705   2.545  0.00  0.00    -0.271 N 
ATOM      8  H   UNL     1      -8.762   3.839   5.712  0.00  0.00    +0.151 HD
ATOM      9  H   UNL     1      -8.439   4.402   1.548  0.00  0.00    +0.156 HD
ENDROOT
BRANCH   3  10
ATOM     10  C   UNL     1      -7.881   6.459   5.968  0.00  0.00    +0.130 A 
ATOM     11  C   UNL     1      -7.265   7.095   6.980  0.00  0.00    +0.047 A 
ATOM     12  C   UNL     1      -8.198   8.012   7.517  0.00  0.00    +0.041 A 
ATOM     13  C   UNL     1      -9.329   7.881   6.801  0.00  0.00    +0.195 A 
ATOM     14  O   UNL     1      -9.130   6.943   5.860  0.00  0.00    -0.466 OA
ENDBRANCH   3  10
BRANCH   2  15
ATOM     15  C   UNL     1      -5.680   7.055   4.002  0.00  0.00    +0.339 C 
ATOM     16  O   UNL     1      -5.142   7.506   3.008  0.00  0.00    -0.245 OA
BRANCH  15  17
ATOM     17  O   UNL     1      -5.327   7.506   5.224  0.00  0.00    -0.462 OA
BRANCH  17  18
ATOM     18  C   UNL     1      -4.315   8.514   5.276  0.00  0.00    +0.229 C 
ATOM     19  C   UNL     1      -4.051   8.896   6.734  0.00  0.00    +0.048 C 
ENDBRANCH  17  18
ENDBRANCH  15  17
ENDBRANCH   2  15
BRANCH   1  20
ATOM     20  C   UNL     1      -6.566   6.316   1.424  0.00  0.00    +0.136 C 
BRANCH  20  21
ATOM     21  N   UNL     1      -5.303   5.657   1.061  0.00  0.00    -0.294 NA
BRANCH  21  23
ATOM     22  C   UNL     1      -4.188   3.482   0.919  0.00  0.00    +0.020 C 
ATOM     23  C   UNL     1      -5.515   4.231   0.782  0.00  0.00    +0.081 C 
ENDBRANCH  21  23
BRANCH  21  24
ATOM     24  C   UNL     1      -4.669   6.329  -0.081  0.00  0.00    +0.132 C 
BRANCH  24  25
ATOM     25  C   UNL     1      -4.016   7.630   0.390  0.00  0.00    +0.225 C 
ATOM     26  C   UNL     1      -3.452   8.393  -0.816  0.00  0.00    +0.275 C 
ATOM     27  O   UNL     1      -2.838   9.595  -0.339  0.00  0.00    -0.485 OA
ATOM     28  C   UNL     1      -2.020   9.477   0.743  0.00  0.00    +0.162 A 
ATOM     29  C   UNL     1      -1.130  10.499   1.039  0.00  0.00    +0.049 A 
ATOM     30  C   UNL     1      -0.300  10.397   2.139  0.00  0.00    +0.004 A 
ATOM     31  C   UNL     1      -0.353   9.277   2.947  0.00  0.00    +0.004 A 
ATOM     32  C   UNL     1      -1.232   8.252   2.654  0.00  0.00    +0.049 A 
ATOM     33  C   UNL     1      -2.072   8.350   1.554  0.00  0.00    +0.163 A 
ATOM     34  O   UNL     1      -2.934   7.333   1.279  0.00  0.00    -0.481 OA
ENDBRANCH  24  25
ENDBRANCH  21  24
ENDBRANCH  20  21
ENDBRANCH   1  20
TORSDOF 9
