REMARK  Name = ZINC10612402
REMARK  12 active torsions:
REMARK  status: ('A' for Active; 'I' for Inactive)
REMARK    1  A    between atoms: C_1  and  C_2
REMARK    2  A    between atoms: C_2  and  O_3
REMARK    3  A    between atoms: O_3  and  C_4
REMARK    4  A    between atoms: C_4  and  C_6
REMARK    5  A    between atoms: C_7  and  C_21
REMARK    6  A    between atoms: C_12  and  C_14
REMARK    7  A    between atoms: C_21  and  O_22
REMARK    8  A    between atoms: O_22  and  C_23
REMARK    9  A    between atoms: C_23  and  C_25
REMARK   10  A    between atoms: C_25  and  N_26
REMARK   11  A    between atoms: C_29  and  C_33
REMARK   12  A    between atoms: C_29  and  C_34
REMARK                            x       y       z     vdW  Elec       q    Type
REMARK                         _______ _______ _______ _____ _____    ______ ____
ROOT
ATOM      1  C   UNL     1      -8.359   2.820   3.045  0.00  0.00    +0.081 C 
ATOM      2  C   UNL     1      -7.209   2.431   3.637  0.00  0.00    +0.061 C 
ATOM      3  N   UNL     1      -6.965   2.708   4.952  0.00  0.00    -0.269 N 
ATOM      4  C   UNL     1      -7.815   3.377   5.741  0.00  0.00    +0.304 C 
ATOM      5  O   UNL     1      -7.508   3.580   6.899  0.00  0.00    -0.252 OA
ATOM      6  N   UNL     1      -9.004   3.829   5.293  0.00  0.00    -0.288 N 
ATOM      7  C   UNL     1      -9.365   3.577   3.888  0.00  0.00    +0.144 C 
ATOM      8  H   UNL     1      -6.127   2.405   5.336  0.00  0.00    +0.156 HD
ATOM      9  H   UNL     1      -9.606   4.309   5.883  0.00  0.00    +0.151 HD
ENDROOT
BRANCH   7  10
ATOM     10  C   UNL     1     -10.659   2.805   3.872  0.00  0.00    -0.022 A 
ATOM     11  C   UNL     1     -10.816   1.703   4.692  0.00  0.00    +0.007 A 
ATOM     12  C   UNL     1     -12.004   0.998   4.682  0.00  0.00    +0.020 A 
ATOM     13  C   UNL     1     -13.033   1.387   3.843  0.00  0.00    +0.041 A 
ATOM     14  C   UNL     1     -12.873   2.487   3.018  0.00  0.00    +0.020 A 
ATOM     15  C   UNL     1     -11.686   3.195   3.033  0.00  0.00    +0.007 A 
ATOM     16 CL   UNL     1     -14.523   0.497   3.825  0.00  0.00    -0.084 Cl
ENDBRANCH   7  10
BRANCH   1  17
ATOM     17  C   UNL     1      -8.615   2.530   1.685  0.00  0.00    +0.339 C 
ATOM     18  O   UNL     1      -8.463   3.393   0.840  0.00  0.00    -0.245 OA
BRANCH  17  19
ATOM     19  O   UNL     1      -9.027   1.297   1.323  0.00  0.00    -0.462 OA
BRANCH  19  21
ATOM     20  C   UNL     1      -9.725  -0.369  -0.282  0.00  0.00    +0.048 C 
ATOM     21  C   UNL     1      -9.267   1.075  -0.068  0.00  0.00    +0.229 C 
ENDBRANCH  19  21
ENDBRANCH  17  19
ENDBRANCH   1  17
BRANCH   2  22
ATOM     22  C   UNL     1      -6.181   1.675   2.836  0.00  0.00    +0.283 C 
BRANCH  22  23
ATOM     23  O   UNL     1      -4.977   2.478   2.713  0.00  0.00    -0.457 OA
BRANCH  23  24
ATOM     24  C   UNL     1      -3.957   1.945   2.022  0.00  0.00    +0.326 C 
ATOM     25  O   UNL     1      -4.066   0.844   1.536  0.00  0.00    -0.249 OA
BRANCH  24  26
ATOM     26  C   UNL     1      -2.675   2.719   1.852  0.00  0.00    +0.238 C 
BRANCH  26  27
ATOM     27  N   UNL     1      -1.726   1.927   1.066  0.00  0.00    -0.213 N 
ATOM     28  C   UNL     1      -0.835   1.063   1.600  0.00  0.00    +0.246 C 
ATOM     29  O   UNL     1      -0.673   0.805   2.774  0.00  0.00    -0.273 OA
ATOM     30  C   UNL     1      -0.079   0.481   0.422  0.00  0.00    +0.107 C 
ATOM     31  N   UNL     1      -0.684   1.146  -0.745  0.00  0.00    -0.285 N 
ATOM     32  C   UNL     1      -1.635   1.970  -0.268  0.00  0.00    +0.310 C 
ATOM     33  O   UNL     1      -2.333   2.675  -0.970  0.00  0.00    -0.252 OA
ATOM     34  C   UNL     1      -0.284  -1.033   0.346  0.00  0.00    +0.041 C 
ATOM     35  C   UNL     1       1.411   0.816   0.520  0.00  0.00    +0.041 C 
ATOM     36  H   UNL     1      -0.445   1.014  -1.675  0.00  0.00    +0.151 HD
ENDBRANCH  26  27
ENDBRANCH  24  26
ENDBRANCH  23  24
ENDBRANCH  22  23
ENDBRANCH   2  22
TORSDOF 9
