REMARK  Name = ZINC18144308
REMARK  3 active torsions:
REMARK  status: ('A' for Active; 'I' for Inactive)
REMARK    1  A    between atoms: C_3  and  N_10
REMARK    2  A    between atoms: C_5  and  N_7
REMARK    3  A    between atoms: C_11  and  C_13
REMARK                            x       y       z     vdW  Elec       q    Type
REMARK                         _______ _______ _______ _____ _____    ______ ____
ROOT
ATOM      1  N   UNL     1       1.233   4.663  -2.135  0.00  0.00    -0.285 N 
ATOM      2  C   UNL     1       1.190   3.321  -2.018  0.00  0.00    +0.221 C 
ATOM      3  O   UNL     1       0.465   2.672  -2.742  0.00  0.00    -0.275 OA
ATOM      4  H   UNL     1       1.753   5.188  -1.507  0.00  0.00    +0.155 HD
ENDROOT
BRANCH   2   5
ATOM      5  C   UNL     1       2.042   2.627  -0.988  0.00  0.00    +0.082 C 
ATOM      6  C   UNL     1       1.950   1.135  -0.908  0.00  0.00    +0.005 C 
ATOM      7  C   UNL     1       1.364   2.020   0.180  0.00  0.00    +0.005 C 
ATOM      8  C   UNL     1      -0.170   1.859   0.317  0.00  0.00    +0.008 C 
ATOM      9  C   UNL     1      -0.309   0.311   0.424  0.00  0.00    +0.027 C 
ATOM     10  C   UNL     1       0.626  -0.139   1.514  0.00  0.00    -0.031 C 
ATOM     11  C   UNL     1       1.726  -0.747   1.367  0.00  0.00    -0.031 C 
ATOM     12  C   UNL     1       2.350  -1.123   0.045  0.00  0.00    +0.027 C 
ATOM     13  C   UNL     1       2.978   0.106  -0.600  0.00  0.00    +0.008 C 
ENDBRANCH   2   5
BRANCH   1  16
ATOM     14  C   UNL     1      -0.716   7.183  -3.972  0.00  0.00    +0.004 A 
ATOM     15  C   UNL     1      -0.020   6.558  -2.956  0.00  0.00    +0.023 A 
ATOM     16  C   UNL     1       0.527   5.298  -3.163  0.00  0.00    +0.036 A 
ATOM     17  C   UNL     1       0.376   4.673  -4.394  0.00  0.00    +0.056 A 
ATOM     18  C   UNL     1      -0.326   5.301  -5.404  0.00  0.00    +0.128 A 
ATOM     19  C   UNL     1      -0.869   6.555  -5.194  0.00  0.00    +0.033 A 
BRANCH  18  20
ATOM     20  N   UNL     1      -0.492   4.633  -6.714  0.00  0.00    +0.056 N 
ATOM     21  O   UNL     1      -1.107   5.187  -7.607  0.00  0.00    -0.126 OA
ATOM     22  O   UNL     1      -0.014   3.528  -6.899  0.00  0.00    -0.126 OA
ENDBRANCH  18  20
ENDBRANCH   1  16
TORSDOF 3
