REMARK  Name = ZINC47176533
REMARK  8 active torsions:
REMARK  status: ('A' for Active; 'I' for Inactive)
REMARK    1  A    between atoms: C_1  and  C_2
REMARK    2  A    between atoms: N_11  and  C_15
REMARK    3  A    between atoms: C_15  and  C_16
REMARK    4  A    between atoms: C_16  and  O_18
REMARK    5  A    between atoms: O_18  and  C_19
REMARK    6  A    between atoms: C_19  and  C_21
REMARK    7  A    between atoms: C_19  and  C_22
REMARK    8  A    between atoms: C_25  and  N_28
REMARK                            x       y       z     vdW  Elec       q    Type
REMARK                         _______ _______ _______ _____ _____    ______ ____
ROOT
ATOM      1  C   UNL     1       3.436   1.482   2.825  0.00  0.00    +0.238 C 
ENDROOT
BRANCH   1  11
ATOM      2  C   UNL     1      -0.019   1.526   0.010  0.00  0.00    +0.010 C 
ATOM      3  C   UNL     1       0.002  -0.004   0.002  0.00  0.00    +0.018 C 
ATOM      4  C   UNL     1      -1.434  -0.534   0.012  0.00  0.00    +0.006 C 
ATOM      5  C   UNL     1      -1.412  -2.064   0.024  0.00  0.00    +0.000 C 
ATOM      6  C   UNL     1      -0.687  -2.556   1.279  0.00  0.00    +0.003 C 
ATOM      7  C   UNL     1       0.752  -2.033   1.273  0.00  0.00    +0.035 C 
ATOM      8  C   UNL     1       0.740  -0.509   1.237  0.00  0.00    +0.115 C 
ATOM      9  C   UNL     1       2.151   0.030   1.266  0.00  0.00    +0.247 C 
ATOM     10  O   UNL     1       3.026  -0.158   0.448  0.00  0.00    -0.273 OA
ATOM     11  N   UNL     1       2.233   0.767   2.394  0.00  0.00    -0.213 N 
ATOM     12  C   UNL     1       1.077   0.763   3.069  0.00  0.00    +0.310 C 
ATOM     13  O   UNL     1       0.904   1.356   4.116  0.00  0.00    -0.252 OA
ATOM     14  N   UNL     1       0.127   0.030   2.458  0.00  0.00    -0.285 N 
ATOM     15  H   UNL     1      -0.782  -0.114   2.764  0.00  0.00    +0.151 HD
ENDBRANCH   1  11
BRANCH   1  16
ATOM     16  C   UNL     1       3.425   2.876   2.253  0.00  0.00    +0.326 C 
ATOM     17  O   UNL     1       2.506   3.236   1.556  0.00  0.00    -0.249 OA
BRANCH  16  18
ATOM     18  O   UNL     1       4.436   3.718   2.518  0.00  0.00    -0.456 OA
BRANCH  18  19
ATOM     19  C   UNL     1       4.361   5.024   1.943  0.00  0.00    +0.204 C 
ATOM     20  C   UNL     1       3.633   5.964   2.906  0.00  0.00    +0.057 C 
BRANCH  19  21
ATOM     21  C   UNL     1       5.752   5.543   1.690  0.00  0.00    -0.007 A 
ATOM     22  C   UNL     1       6.778   5.223   2.559  0.00  0.00    +0.009 A 
ATOM     23  C   UNL     1       8.055   5.699   2.327  0.00  0.00    +0.033 A 
ATOM     24  C   UNL     1       8.306   6.495   1.225  0.00  0.00    +0.126 A 
ATOM     25  C   UNL     1       7.280   6.815   0.355  0.00  0.00    +0.033 A 
ATOM     26  C   UNL     1       6.005   6.335   0.585  0.00  0.00    +0.009 A 
BRANCH  24  27
ATOM     27  N   UNL     1       9.673   7.006   0.977  0.00  0.00    +0.056 N 
ATOM     28  O   UNL     1      10.570   6.726   1.738  0.00  0.00    -0.126 OA
ATOM     29  O   UNL     1       9.893   7.702   0.013  0.00  0.00    -0.126 OA
ENDBRANCH  24  27
ENDBRANCH  19  21
ENDBRANCH  18  19
ENDBRANCH  16  18
ENDBRANCH   1  16
TORSDOF 6
