REMARK  Name = ZINC36596609
REMARK  14 active torsions:
REMARK  status: ('A' for Active; 'I' for Inactive)
REMARK    1  A    between atoms: C_1  and  C_2
REMARK    2  A    between atoms: C_5  and  C_7
REMARK    3  A    between atoms: C_7  and  N_8
REMARK    4  A    between atoms: N_8  and  C_9
REMARK    5  A    between atoms: C_9  and  C_11
REMARK    6  A    between atoms: C_9  and  C_19
REMARK    7  A    between atoms: C_15  and  O_17
REMARK    8  A    between atoms: O_17  and  C_18
REMARK    9  A    between atoms: N_21  and  C_22
REMARK   10  A    between atoms: C_22  and  C_23
REMARK   11  A    between atoms: C_22  and  C_24
REMARK   12  A    between atoms: C_22  and  C_25
REMARK   13  A    between atoms: C_26  and  C_28
REMARK   14  A    between atoms: C_30  and  N_35
REMARK                            x       y       z     vdW  Elec       q    Type
REMARK                         _______ _______ _______ _____ _____    ______ ____
ROOT
ATOM      1  N   UNL     1       1.707  -3.993  -1.505  0.00  0.00    -0.275 N 
ATOM      2  C   UNL     1       0.849  -4.106  -2.538  0.00  0.00    +0.252 C 
ATOM      3  O   UNL     1       0.238  -5.143  -2.711  0.00  0.00    -0.270 OA
ENDROOT
BRANCH   2   4
ATOM      4  C   UNL     1       0.650  -2.970  -3.459  0.00  0.00    +0.086 A 
ATOM      5  C   UNL     1       1.690  -2.067  -3.694  0.00  0.00    +0.049 A 
ATOM      6  C   UNL     1       1.498  -1.009  -4.556  0.00  0.00    +0.127 A 
ATOM      7  C   UNL     1       0.278  -0.836  -5.190  0.00  0.00    +0.036 A 
ATOM      8  C   UNL     1      -0.757  -1.721  -4.966  0.00  0.00    +0.054 A 
ATOM      9  C   UNL     1      -0.580  -2.795  -4.107  0.00  0.00    +0.191 A 
ATOM     10  O   UNL     1      -1.595  -3.669  -3.890  0.00  0.00    -0.287 OA
BRANCH   6  11
ATOM     11  N   UNL     1       2.600  -0.052  -4.804  0.00  0.00    +0.056 N 
ATOM     12  O   UNL     1       3.665  -0.200  -4.252  0.00  0.00    -0.126 OA
ATOM     13  O   UNL     1       2.434   0.877  -5.559  0.00  0.00    -0.126 OA
ENDBRANCH   6  11
ENDBRANCH   2   4
BRANCH   1  14
ATOM     14  C   UNL     1       1.558  -4.858  -0.331  0.00  0.00    +0.183 C 
BRANCH  14  19
ATOM     15  C   UNL     1       2.628  -9.636  -1.541  0.00  0.00    +0.086 C 
ATOM     16  C   UNL     1       2.793  -8.213  -1.073  0.00  0.00    +0.102 A 
ATOM     17  C   UNL     1       3.940  -7.652  -0.649  0.00  0.00    +0.045 A 
ATOM     18  C   UNL     1       3.640  -6.313  -0.310  0.00  0.00    +0.046 A 
ATOM     19  C   UNL     1       2.328  -6.135  -0.548  0.00  0.00    +0.122 A 
ATOM     20  O   UNL     1       1.822  -7.288  -1.016  0.00  0.00    -0.463 OA
ENDBRANCH  14  19
ENDBRANCH   1  14
BRANCH   1  21
ATOM     21  C   UNL     1       2.789  -3.007  -1.555  0.00  0.00    +0.193 C 
BRANCH  21  22
ATOM     22  C   UNL     1       3.711  -3.212  -0.381  0.00  0.00    -0.015 A 
ATOM     23  C   UNL     1       3.212  -3.149   0.908  0.00  0.00    +0.006 A 
ATOM     24  C   UNL     1       4.055  -3.337   1.987  0.00  0.00    +0.004 A 
ATOM     25  C   UNL     1       5.399  -3.586   1.781  0.00  0.00    +0.045 A 
ATOM     26  C   UNL     1       5.901  -3.649   0.490  0.00  0.00    +0.120 A 
ATOM     27  C   UNL     1       5.051  -3.467  -0.592  0.00  0.00    +0.051 A 
BRANCH  26  28
ATOM     28  O   UNL     1       7.222  -3.895   0.284  0.00  0.00    -0.495 OA
ATOM     29  C   UNL     1       8.036  -4.078   1.444  0.00  0.00    +0.277 C 
ENDBRANCH  26  28
ENDBRANCH  21  22
BRANCH  21  30
ATOM     30  C   UNL     1       2.206  -1.618  -1.500  0.00  0.00    +0.239 C 
ATOM     31  O   UNL     1       1.019  -1.467  -1.301  0.00  0.00    -0.273 OA
ATOM     32  N   UNL     1       3.003  -0.545  -1.672  0.00  0.00    -0.309 N 
ATOM     33  H   UNL     1       3.952  -0.667  -1.832  0.00  0.00    +0.149 HD
BRANCH  32  34
ATOM     34  C   UNL     1       2.436   0.804  -1.619  0.00  0.00    +0.026 C 
ATOM     35  C   UNL     1       1.796   1.035  -0.248  0.00  0.00    +0.031 C 
ATOM     36  C   UNL     1       3.546   1.833  -1.843  0.00  0.00    +0.031 C 
ATOM     37  C   UNL     1       1.373   0.955  -2.709  0.00  0.00    +0.031 C 
ENDBRANCH  32  34
ENDBRANCH  21  30
ENDBRANCH   1  21
TORSDOF 9
