REMARK  Name = ZINC63520749
REMARK  13 active torsions:
REMARK  status: ('A' for Active; 'I' for Inactive)
REMARK    1  A    between atoms: C_1  and  C_2
REMARK    2  A    between atoms: C_3  and  C_17
REMARK    3  A    between atoms: C_5  and  C_7
REMARK    4  A    between atoms: C_10  and  O_15
REMARK    5  A    between atoms: C_11  and  O_13
REMARK    6  A    between atoms: O_13  and  C_14
REMARK    7  A    between atoms: O_15  and  C_16
REMARK    8  A    between atoms: N_19  and  C_20
REMARK    9  A    between atoms: C_20  and  C_22
REMARK   10  A    between atoms: C_20  and  C_33
REMARK   11  A    between atoms: C_22  and  C_23
REMARK   12  A    between atoms: C_33  and  O_35
REMARK   13  A    between atoms: O_35  and  C_36
REMARK                            x       y       z     vdW  Elec       q    Type
REMARK                         _______ _______ _______ _____ _____    ______ ____
ROOT
ATOM      1  C   UNL     1      -2.510  -0.398   0.012  0.00  0.00    +0.248 C 
ATOM      2  O   UNL     1      -2.795   0.784   0.021  0.00  0.00    -0.270 OA
ATOM      3  N   UNL     1      -3.487  -1.327   0.012  0.00  0.00    -0.298 N 
ATOM      4  H   UNL     1      -3.260  -2.269   0.005  0.00  0.00    +0.150 HD
ENDROOT
BRANCH   1   7
ATOM      5  C   UNL     1      -0.018   1.503   0.010  0.00  0.00    +0.087 C 
ATOM      6  C   UNL     1       0.002  -0.004   0.002  0.00  0.00    +0.115 A 
ATOM      7  C   UNL     1      -1.096  -0.815   0.003  0.00  0.00    +0.078 A 
ATOM      8  C   UNL     1      -0.579  -2.188  -0.008  0.00  0.00    +0.063 A 
ATOM      9  C   UNL     1       0.773  -2.074  -0.014  0.00  0.00    +0.136 A 
ATOM     10  O   UNL     1       1.099  -0.769  -0.013  0.00  0.00    -0.459 OA
BRANCH   9  11
ATOM     11  C   UNL     1       1.731  -3.200  -0.025  0.00  0.00    +0.021 A 
ATOM     12  C   UNL     1       1.264  -4.515  -0.036  0.00  0.00    +0.015 A 
ATOM     13  C   UNL     1       2.159  -5.565  -0.046  0.00  0.00    +0.050 A 
ATOM     14  C   UNL     1       3.524  -5.317  -0.046  0.00  0.00    +0.162 A 
ATOM     15  C   UNL     1       3.996  -4.006  -0.035  0.00  0.00    +0.162 A 
ATOM     16  C   UNL     1       3.104  -2.950  -0.030  0.00  0.00    +0.061 A 
BRANCH  15  17
ATOM     17  O   UNL     1       5.335  -3.766  -0.034  0.00  0.00    -0.491 OA
ATOM     18  C   UNL     1       5.748  -2.398  -0.023  0.00  0.00    +0.277 C 
ENDBRANCH  15  17
BRANCH  14  19
ATOM     19  O   UNL     1       4.402  -6.354  -0.055  0.00  0.00    -0.491 OA
ATOM     20  C   UNL     1       3.850  -7.672  -0.065  0.00  0.00    +0.277 C 
ENDBRANCH  14  19
ENDBRANCH   9  11
ENDBRANCH   1   7
BRANCH   3  21
ATOM     21  C   UNL     1      -4.892  -0.912   0.021  0.00  0.00    +0.184 C 
BRANCH  21  22
ATOM     22  C   UNL     1      -5.346  -0.642  -1.390  0.00  0.00    +0.327 C 
ATOM     23  O   UNL     1      -4.575  -0.782  -2.310  0.00  0.00    -0.249 OA
BRANCH  22  24
ATOM     24  O   UNL     1      -6.607  -0.247  -1.626  0.00  0.00    -0.467 OA
ATOM     25  C   UNL     1      -6.968  -0.009  -2.988  0.00  0.00    +0.280 C 
ENDBRANCH  22  24
ENDBRANCH  21  22
BRANCH  21  26
ATOM     26  C   UNL     1      -5.748  -2.025   0.628  0.00  0.00    +0.062 C 
BRANCH  26  27
ATOM     27  C   UNL     1      -5.372  -2.213   2.099  0.00  0.00    +0.105 C 
ATOM     28  C   UNL     1      -6.165  -3.353   2.699  0.00  0.00    +0.007 C 
ATOM     29  C   UNL     1      -6.891  -2.816   3.705  0.00  0.00    -0.004 A 
ATOM     30  C   UNL     1      -7.848  -3.391   4.658  0.00  0.00    +0.010 A 
ATOM     31  C   UNL     1      -8.429  -2.583   5.573  0.00  0.00    +0.001 A 
ATOM     32  C   UNL     1      -8.143  -1.212   5.633  0.00  0.00    +0.002 A 
ATOM     33  C   UNL     1      -7.275  -0.611   4.792  0.00  0.00    +0.026 A 
ATOM     34  C   UNL     1      -6.606  -1.366   3.790  0.00  0.00    +0.043 A 
ATOM     35  N   UNL     1      -5.735  -1.019   2.871  0.00  0.00    -0.378 N 
ATOM     36  H   UNL     1      -5.389  -0.124   2.726  0.00  0.00    +0.160 HD
ENDBRANCH  26  27
ENDBRANCH  21  26
ENDBRANCH   3  21
TORSDOF 9
