REMARK  Name = ZINC03764247
REMARK  11 active torsions:
REMARK  status: ('A' for Active; 'I' for Inactive)
REMARK    1  A    between atoms: C_1  and  C_2
REMARK    2  A    between atoms: C_5  and  N_9
REMARK    3  A    between atoms: C_6  and  C_8
REMARK    4  A    between atoms: C_10  and  C_12
REMARK    5  A    between atoms: C_17  and  C_20
REMARK    6  A    between atoms: C_20  and  C_21
REMARK    7  A    between atoms: C_21  and  O_23
REMARK    8  A    between atoms: O_23  and  C_24
REMARK    9  A    between atoms: C_25  and  N_39
REMARK   10  A    between atoms: C_26  and  C_37
REMARK   11  A    between atoms: C_27  and  C_29
REMARK                            x       y       z     vdW  Elec       q    Type
REMARK                         _______ _______ _______ _____ _____    ______ ____
ROOT
ATOM      1  C   UNL     1      -0.089   1.352  -0.012  0.00  0.00    +0.055 C 
ATOM      2  C   UNL     1       1.144   1.921  -0.033  0.00  0.00    +0.086 C 
ATOM      3  N   UNL     1       2.330   1.210  -0.061  0.00  0.00    -0.220 N 
ATOM      4  C   UNL     1       3.499   1.886  -0.080  0.00  0.00    +0.239 C 
ATOM      5  O   UNL     1       4.562   1.303  -0.105  0.00  0.00    -0.274 OA
ATOM      6  C   UNL     1       3.431   3.396  -0.068  0.00  0.00    +0.150 C 
ATOM      7  S   UNL     1       1.614   3.641  -0.030  0.00  0.00    -0.096 S 
ATOM      8  C   UNL     1       2.279  -0.192  -0.070  0.00  0.00    +0.110 C 
ATOM      9  C   UNL     1       1.132  -0.903  -0.052  0.00  0.00    +0.077 C 
ATOM     10  C   UNL     1      -0.188  -0.160  -0.021  0.00  0.00    +0.105 C 
ENDROOT
BRANCH  10  11
ATOM     11  C   UNL     1      -0.987  -0.574  -1.230  0.00  0.00    +0.036 A 
ATOM     12  C   UNL     1      -0.548  -0.237  -2.498  0.00  0.00    +0.130 A 
ATOM     13  C   UNL     1      -1.280  -0.624  -3.609  0.00  0.00    +0.039 A 
ATOM     14  C   UNL     1      -2.454  -1.334  -3.450  0.00  0.00    +0.006 A 
ATOM     15  C   UNL     1      -2.897  -1.666  -2.183  0.00  0.00    +0.039 A 
ATOM     16  C   UNL     1      -2.163  -1.286  -1.072  0.00  0.00    +0.130 A 
ATOM     17  F   UNL     1      -2.596  -1.611   0.166  0.00  0.00    -0.205 F 
ATOM     18  F   UNL     1       0.597   0.463  -2.654  0.00  0.00    -0.205 F 
ENDBRANCH  10  11
BRANCH   1  20
ATOM     19  N   UNL     1      -2.463   1.567   0.025  0.00  0.00    -0.281 N 
ATOM     20  C   UNL     1      -1.247   2.147   0.011  0.00  0.00    +0.248 C 
ATOM     21  O   UNL     1      -1.151   3.362   0.017  0.00  0.00    -0.270 OA
ATOM     22  H   UNL     1      -2.540   0.603   0.102  0.00  0.00    +0.155 HD
BRANCH  19  27
ATOM     23  C   UNL     1      -7.135   4.761  -0.362  0.00  0.00    +0.044 C 
ATOM     24  C   UNL     1      -5.894   3.912  -0.259  0.00  0.00    -0.050 A 
ATOM     25  C   UNL     1      -4.748   4.279  -0.942  0.00  0.00    +0.005 A 
ATOM     26  C   UNL     1      -3.610   3.504  -0.850  0.00  0.00    +0.024 A 
ATOM     27  C   UNL     1      -3.615   2.354  -0.070  0.00  0.00    +0.037 A 
ATOM     28  C   UNL     1      -4.768   1.985   0.609  0.00  0.00    -0.029 A 
ATOM     29  C   UNL     1      -5.903   2.768   0.517  0.00  0.00    +0.008 A 
ATOM     30  C   UNL     1      -4.781   0.735   1.451  0.00  0.00    +0.045 C 
ENDBRANCH  19  27
ENDBRANCH   1  20
BRANCH   8  31
ATOM     31  N   UNL     1       3.467  -0.881  -0.099  0.00  0.00    -0.345 N 
ATOM     32  H   UNL     1       3.498  -1.779  -0.465  0.00  0.00    +0.144 HD
ATOM     33  H   UNL     1       4.274  -0.470   0.247  0.00  0.00    +0.144 HD
ENDBRANCH   8  31
BRANCH   9  34
ATOM     34  C   UNL     1       1.163  -2.335  -0.062  0.00  0.00    +0.099 C 
ATOM     35  N   UNL     1       1.187  -3.471  -0.070  0.00  0.00    -0.191 NA
ENDBRANCH   9  34
BRANCH   6  36
ATOM     36  C   UNL     1       4.045   3.988  -1.338  0.00  0.00    +0.144 C 
BRANCH  36  37
ATOM     37  C   UNL     1       4.069   5.491  -1.230  0.00  0.00    +0.308 C 
ATOM     38  O   UNL     1       3.639   6.033  -0.239  0.00  0.00    -0.251 OA
BRANCH  37  39
ATOM     39  O   UNL     1       4.567   6.228  -2.235  0.00  0.00    -0.468 OA
ATOM     40  C   UNL     1       4.558   7.670  -2.063  0.00  0.00    +0.280 C 
ENDBRANCH  37  39
ENDBRANCH  36  37
ENDBRANCH   6  36
TORSDOF 8
