REMARK  Name = ZINC23143249
REMARK  4 active torsions:
REMARK  status: ('A' for Active; 'I' for Inactive)
REMARK    1  A    between atoms: C_6  and  C_7
REMARK    2  A    between atoms: C_16  and  C_19
REMARK    3  A    between atoms: N_21  and  C_22
REMARK    4  A    between atoms: C_25  and  N_28
REMARK                            x       y       z     vdW  Elec       q    Type
REMARK                         _______ _______ _______ _____ _____    ______ ____
ROOT
ATOM      1  C   UNL     1       1.156   1.790  -0.027  0.00  0.00    +0.093 A 
ATOM      2  C   UNL     1      -0.036   1.058  -0.025  0.00  0.00    +0.033 A 
ATOM      3  C   UNL     1      -1.228   1.760  -0.011  0.00  0.00    +0.047 A 
ATOM      4  C   UNL     1      -1.167   3.154   0.011  0.00  0.00    +0.144 A 
ATOM      5  N   UNL     1       0.009   3.764   0.006  0.00  0.00    -0.134 NA
ATOM      6  N   UNL     1       1.116   3.115  -0.012  0.00  0.00    -0.147 NA
ATOM      7  N   UNL     1      -2.339   3.902   0.030  0.00  0.00    -0.314 N 
ATOM      8  C   UNL     1      -3.187   3.522   1.167  0.00  0.00    +0.107 C 
ATOM      9  C   UNL     1      -4.526   4.258   1.075  0.00  0.00    +0.032 C 
ATOM     10  C   UNL     1      -4.274   5.768   1.083  0.00  0.00    +0.078 C 
ATOM     11  C   UNL     1      -3.350   6.130  -0.082  0.00  0.00    +0.032 C 
ATOM     12  C   UNL     1      -2.045   5.340   0.043  0.00  0.00    +0.107 C 
ENDROOT
BRANCH   1  18
ATOM     13  C   UNL     1       2.503  -0.308  -0.060  0.00  0.00    +0.013 A 
ATOM     14  C   UNL     1       3.720  -0.959  -0.084  0.00  0.00    +0.039 A 
ATOM     15  C   UNL     1       4.898  -0.230  -0.087  0.00  0.00    +0.123 A 
ATOM     16  C   UNL     1       4.861   1.155  -0.071  0.00  0.00    +0.039 A 
ATOM     17  C   UNL     1       3.649   1.815  -0.051  0.00  0.00    +0.013 A 
ATOM     18  C   UNL     1       2.461   1.085  -0.049  0.00  0.00    +0.002 A 
ATOM     19  F   UNL     1       6.087  -0.871  -0.106  0.00  0.00    -0.205 F 
ENDBRANCH   1  18
BRANCH  10  20
ATOM     20  C   UNL     1      -5.585   6.497   0.933  0.00  0.00    +0.220 C 
ATOM     21  O   UNL     1      -5.763   7.234  -0.014  0.00  0.00    -0.275 OA
ATOM     22  N   UNL     1      -6.558   6.330   1.850  0.00  0.00    -0.285 N 
ATOM     23  H   UNL     1      -6.426   5.605   2.666  0.00  0.00    +0.155 HD
BRANCH  22  24
ATOM     24  C   UNL     1      -7.737   7.080   1.763  0.00  0.00    +0.034 A 
ATOM     25  C   UNL     1      -8.383   7.495   2.920  0.00  0.00    +0.025 A 
ATOM     26  C   UNL     1      -9.544   8.239   2.831  0.00  0.00    +0.034 A 
ATOM     27  C   UNL     1     -10.068   8.560   1.592  0.00  0.00    +0.126 A 
ATOM     28  C   UNL     1      -9.429   8.143   0.439  0.00  0.00    +0.034 A 
ATOM     29  C   UNL     1      -8.265   7.404   0.520  0.00  0.00    +0.025 A 
BRANCH  27  30
ATOM     30  N   UNL     1     -11.315   9.352   1.500  0.00  0.00    +0.056 N 
ATOM     31  O   UNL     1     -11.777   9.636   0.410  0.00  0.00    -0.126 OA
ATOM     32  O   UNL     1     -11.879   9.720   2.515  0.00  0.00    -0.126 OA
ENDBRANCH  27  30
ENDBRANCH  22  24
ENDBRANCH  10  20
TORSDOF 4
