REMARK  Name = ZINC22039480
REMARK  13 active torsions:
REMARK  status: ('A' for Active; 'I' for Inactive)
REMARK    1  A    between atoms: C_1  and  C_2
REMARK    2  A    between atoms: C_2  and  O_3
REMARK    3  A    between atoms: O_3  and  C_4
REMARK    4  A    between atoms: C_7  and  N_13
REMARK    5  A    between atoms: C_8  and  N_10
REMARK    6  A    between atoms: C_14  and  C_16
REMARK    7  A    between atoms: C_16  and  O_17
REMARK    8  A    between atoms: O_17  and  C_18
REMARK    9  A    between atoms: C_18  and  C_20
REMARK   10  A    between atoms: C_20  and  N_21
REMARK   11  A    between atoms: C_26  and  C_33
REMARK   12  A    between atoms: C_29  and  C_31
REMARK   13  A    between atoms: C_29  and  C_32
REMARK                            x       y       z     vdW  Elec       q    Type
REMARK                         _______ _______ _______ _____ _____    ______ ____
ROOT
ATOM      1  C   UNL     1       9.491   3.574  -0.113  0.00  0.00    +0.326 C 
ATOM      2  O   UNL     1       9.737   4.741   0.083  0.00  0.00    -0.249 OA
ENDROOT
BRANCH   1   3
ATOM      3  O   UNL     1       8.216   3.160  -0.184  0.00  0.00    -0.454 OA
BRANCH   3   4
ATOM      4  C   UNL     1       7.185   4.168  -0.016  0.00  0.00    +0.328 C 
BRANCH   4   6
ATOM      5  N   UNL     1       4.713   4.270  -0.002  0.00  0.00    -0.281 N 
ATOM      6  C   UNL     1       5.828   3.522  -0.126  0.00  0.00    +0.255 C 
ATOM      7  O   UNL     1       5.739   2.329  -0.326  0.00  0.00    -0.272 OA
ATOM      8  H   UNL     1       4.792   5.364   0.087  0.00  0.00    +0.155 HD
BRANCH   5  12
ATOM      9  C   UNL     1       0.968   2.439   0.045  0.00  0.00    +0.123 A 
ATOM     10  C   UNL     1       2.056   1.806   0.628  0.00  0.00    +0.047 A 
ATOM     11  C   UNL     1       3.298   2.409   0.608  0.00  0.00    +0.029 A 
ATOM     12  C   UNL     1       3.455   3.655   0.013  0.00  0.00    +0.064 A 
ATOM     13  C   UNL     1       2.364   4.289  -0.565  0.00  0.00    +0.151 A 
ATOM     14  C   UNL     1       1.124   3.682  -0.549  0.00  0.00    +0.080 A 
BRANCH  13  15
ATOM     15  N   UNL     1       2.530   5.617  -1.199  0.00  0.00    +0.058 N 
ATOM     16  O   UNL     1       1.596   6.134  -1.784  0.00  0.00    -0.126 OA
ATOM     17  O   UNL     1       3.602   6.192  -1.135  0.00  0.00    -0.126 OA
ENDBRANCH  13  15
BRANCH   9  18
ATOM     18  O   UNL     1      -0.254   1.842   0.061  0.00  0.00    -0.492 OA
BRANCH  18  20
ATOM     19  C   UNL     1      -1.783   0.052   0.610  0.00  0.00    +0.048 C 
ATOM     20  C   UNL     1      -0.342   0.562   0.690  0.00  0.00    +0.225 C 
ENDBRANCH  18  20
ENDBRANCH   9  18
ENDBRANCH   5  12
ENDBRANCH   4   6
ENDBRANCH   3   4
ENDBRANCH   1   3
BRANCH   1  21
ATOM     21  C   UNL     1      10.615   2.584  -0.278  0.00  0.00    +0.238 C 
BRANCH  21  22
ATOM     22  N   UNL     1      11.899   3.280  -0.160  0.00  0.00    -0.213 N 
ATOM     23  C   UNL     1      12.568   3.820  -1.200  0.00  0.00    +0.247 C 
ATOM     24  O   UNL     1      12.234   3.821  -2.365  0.00  0.00    -0.273 OA
ATOM     25  C   UNL     1      13.819   4.424  -0.606  0.00  0.00    +0.113 C 
ATOM     26  C   UNL     1      15.058   3.762  -1.199  0.00  0.00    +0.038 C 
ATOM     27  C   UNL     1      16.314   4.359  -0.559  0.00  0.00    -0.011 C 
ATOM     28  C   UNL     1      16.347   5.867  -0.816  0.00  0.00    +0.009 C 
ATOM     29  C   UNL     1      15.110   6.520  -0.197  0.00  0.00    -0.032 C 
ATOM     30  C   UNL     1      13.850   5.931  -0.836  0.00  0.00    +0.041 C 
ATOM     31  C   UNL     1      15.150   8.029  -0.446  0.00  0.00    +0.011 C 
ATOM     32  C   UNL     1      15.091   6.253   1.310  0.00  0.00    +0.011 C 
ATOM     33  C   UNL     1      17.557   3.710  -1.170  0.00  0.00    +0.007 C 
ATOM     34  N   UNL     1      13.713   4.125   0.828  0.00  0.00    -0.285 N 
ATOM     35  C   UNL     1      12.557   3.454   0.993  0.00  0.00    +0.310 C 
ATOM     36  O   UNL     1      12.157   3.050   2.067  0.00  0.00    -0.252 OA
ATOM     37  H   UNL     1      14.506   4.451   1.518  0.00  0.00    +0.151 HD
ENDBRANCH  21  22
ENDBRANCH   1  21
TORSDOF 9
