REMARK  Name = ZINC13552504
REMARK  9 active torsions:
REMARK  status: ('A' for Active; 'I' for Inactive)
REMARK    1  A    between atoms: C_1  and  C_2
REMARK    2  A    between atoms: C_8  and  N_16
REMARK    3  A    between atoms: C_9  and  C_12
REMARK    4  A    between atoms: C_12  and  O_14
REMARK    5  A    between atoms: O_14  and  C_15
REMARK    6  A    between atoms: C_17  and  C_19
REMARK    7  A    between atoms: C_19  and  N_20
REMARK    8  A    between atoms: C_22  and  C_29
REMARK    9  A    between atoms: C_25  and  C_28
REMARK                            x       y       z     vdW  Elec       q    Type
REMARK                         _______ _______ _______ _____ _____    ______ ____
ROOT
ATOM      1  C   UNL     1      -3.384  -6.769   1.389  0.00  0.00    +0.044 C 
ATOM      2  C   UNL     1      -2.327  -5.782   0.965  0.00  0.00    -0.050 A 
ATOM      3  C   UNL     1      -1.969  -5.688  -0.374  0.00  0.00    +0.005 A 
ATOM      4  C   UNL     1      -1.005  -4.793  -0.782  0.00  0.00    +0.026 A 
ATOM      5  C   UNL     1      -0.381  -3.971   0.154  0.00  0.00    +0.049 A 
ATOM      6  C   UNL     1      -0.748  -4.071   1.509  0.00  0.00    +0.022 A 
ATOM      7  C   UNL     1      -1.733  -4.983   1.899  0.00  0.00    +0.015 A 
ATOM      8  C   UNL     1       0.069  -3.096   2.236  0.00  0.00    +0.073 A 
ATOM      9  C   UNL     1       0.868  -2.474   1.299  0.00  0.00    +0.147 A 
ATOM     10  N   UNL     1       0.592  -3.006   0.048  0.00  0.00    -0.348 N 
ATOM     11  H   UNL     1       1.022  -2.737  -0.779  0.00  0.00    +0.166 HD
ENDROOT
BRANCH   8  12
ATOM     12  N   UNL     1       0.044  -2.846   3.604  0.00  0.00    -0.282 N 
ATOM     13  C   UNL     1      -0.346  -3.812   4.458  0.00  0.00    +0.231 C 
ATOM     14  O   UNL     1      -0.606  -4.921   4.042  0.00  0.00    -0.274 OA
ATOM     15  H   UNL     1       0.306  -1.976   3.943  0.00  0.00    +0.155 HD
BRANCH  13  16
ATOM     16  C   UNL     1      -0.459  -3.515   5.931  0.00  0.00    +0.181 C 
BRANCH  16  17
ATOM     17  N   UNL     1      -0.898  -4.723   6.643  0.00  0.00    -0.289 NA
ATOM     18  C   UNL     1       0.130  -5.773   6.582  0.00  0.00    +0.116 C 
ATOM     19  C   UNL     1      -0.392  -7.031   7.282  0.00  0.00    +0.130 C 
ATOM     20  O   UNL     1      -0.755  -6.706   8.626  0.00  0.00    -0.371 OA
ATOM     21  C   UNL     1      -1.755  -5.688   8.722  0.00  0.00    +0.130 C 
ATOM     22  C   UNL     1      -1.247  -4.416   8.037  0.00  0.00    +0.116 C 
ATOM     23  C   UNL     1      -2.045  -5.394  10.196  0.00  0.00    +0.039 C 
ATOM     24  C   UNL     1       0.702  -8.101   7.291  0.00  0.00    +0.039 C 
ENDBRANCH  16  17
ENDBRANCH  13  16
ENDBRANCH   8  12
BRANCH   9  25
ATOM     25  C   UNL     1       1.817  -1.456   1.570  0.00  0.00    +0.357 C 
ATOM     26  O   UNL     1       2.051  -1.134   2.720  0.00  0.00    -0.243 OA
BRANCH  25  27
ATOM     27  O   UNL     1       2.460  -0.844   0.554  0.00  0.00    -0.463 OA
ATOM     28  C   UNL     1       3.403   0.172   0.901  0.00  0.00    +0.280 C 
ENDBRANCH  25  27
ENDBRANCH   9  25
TORSDOF 5
