REMARK  Name = ZINC19540072
REMARK  7 active torsions:
REMARK  status: ('A' for Active; 'I' for Inactive)
REMARK    1  A    between atoms: C_1  and  C_2
REMARK    2  A    between atoms: C_2  and  C_4
REMARK    3  A    between atoms: C_2  and  N_17
REMARK    4  A    between atoms: N_6  and  C_7
REMARK    5  A    between atoms: C_10  and  N_14
REMARK    6  A    between atoms: N_20  and  C_23
REMARK    7  A    between atoms: C_23  and  C_24
REMARK                            x       y       z     vdW  Elec       q    Type
REMARK                         _______ _______ _______ _____ _____    ______ ____
ROOT
ATOM      1  C   UNL     1      -0.141  -0.446  -0.306  0.00  0.00    -0.004 C 
ATOM      2  C   UNL     1      -0.032   1.044   0.023  0.00  0.00    +0.017 C 
ENDROOT
BRANCH   2   3
ATOM      3  N   UNL     1      -0.464   1.273   1.408  0.00  0.00    +0.389 N 
ATOM      4  C   UNL     1       0.558   0.817   2.361  0.00  0.00    -0.062 C 
ATOM      5  C   UNL     1       0.105   1.145   3.786  0.00  0.00    +0.066 C 
ATOM      6  N   UNL     1      -1.185   0.493   4.049  0.00  0.00    -0.301 NA
ATOM      7  C   UNL     1      -2.207   0.949   3.097  0.00  0.00    +0.066 C 
ATOM      8  C   UNL     1      -1.754   0.621   1.672  0.00  0.00    -0.062 C 
ATOM      9  H   UNL     1      -0.597   2.357   1.545  0.00  0.00    -0.081 HD
BRANCH   6  10
ATOM     10  C   UNL     1      -1.617   0.722   5.435  0.00  0.00    +0.126 C 
BRANCH  10  11
ATOM     11  C   UNL     1      -0.669   0.028   6.378  0.00  0.00    +0.004 A 
ATOM     12  C   UNL     1       0.466   0.501   6.950  0.00  0.00    +0.012 A 
ATOM     13  C   UNL     1       1.184  -0.323   7.796  0.00  0.00    +0.008 A 
ATOM     14  C   UNL     1       0.738  -1.583   8.021  0.00  0.00    +0.045 A 
ATOM     15  S   UNL     1      -0.743  -1.634   7.026  0.00  0.00    -0.100 S 
ENDBRANCH  10  11
ENDBRANCH   6  10
ENDBRANCH   2   3
BRANCH   2  16
ATOM     16  C   UNL     1      -0.911   1.831  -0.914  0.00  0.00    +0.203 C 
ATOM     17  O   UNL     1      -1.884   2.416  -0.486  0.00  0.00    -0.277 OA
ATOM     18  N   UNL     1      -0.618   1.885  -2.229  0.00  0.00    -0.286 N 
ATOM     19  H   UNL     1       0.217   1.292  -2.630  0.00  0.00    +0.155 HD
BRANCH  18  20
ATOM     20  C   UNL     1      -1.375   2.695  -3.083  0.00  0.00    +0.052 A 
ATOM     21  C   UNL     1      -2.732   2.875  -2.850  0.00  0.00    +0.027 A 
ATOM     22  C   UNL     1      -3.476   3.675  -3.694  0.00  0.00    +0.034 A 
ATOM     23  C   UNL     1      -2.872   4.298  -4.771  0.00  0.00    +0.128 A 
ATOM     24  C   UNL     1      -1.521   4.122  -5.006  0.00  0.00    +0.054 A 
ATOM     25  C   UNL     1      -0.769   3.327  -4.162  0.00  0.00    +0.064 A 
ATOM     26 CL   UNL     1       0.929   3.112  -4.454  0.00  0.00    -0.082 Cl
BRANCH  23  27
ATOM     27  N   UNL     1      -3.673   5.155  -5.673  0.00  0.00    +0.056 N 
ATOM     28  O   UNL     1      -4.864   5.311  -5.466  0.00  0.00    -0.126 OA
ATOM     29  O   UNL     1      -3.143   5.705  -6.622  0.00  0.00    -0.126 OA
ENDBRANCH  23  27
ENDBRANCH  18  20
ENDBRANCH   2  16
TORSDOF 6
