REMARK  Name = ZINC13370331
REMARK  4 active torsions:
REMARK  status: ('A' for Active; 'I' for Inactive)
REMARK    1  A    between atoms: C_1  and  O_2
REMARK    2  A    between atoms: O_2  and  C_3
REMARK    3  A    between atoms: C_16  and  C_19
REMARK    4  A    between atoms: C_22  and  N_25
REMARK                            x       y       z     vdW  Elec       q    Type
REMARK                         _______ _______ _______ _____ _____    ______ ____
ROOT
ATOM      1  C   UNL     1       4.939   5.446  -0.193  0.00  0.00    +0.120 A 
ATOM      2  C   UNL     1       4.918   4.968  -1.496  0.00  0.00    +0.047 A 
ATOM      3  C   UNL     1       4.403   3.714  -1.754  0.00  0.00    +0.027 A 
ATOM      4  C   UNL     1       3.909   2.936  -0.716  0.00  0.00    +0.032 A 
ATOM      5  C   UNL     1       3.928   3.406   0.588  0.00  0.00    -0.016 A 
ATOM      6  C   UNL     1       4.447   4.668   0.841  0.00  0.00    +0.051 A 
ATOM      7  C   UNL     1       3.410   2.600   1.737  0.00  0.00    +0.049 C 
ATOM      8  C   UNL     1       2.073   3.115   2.214  0.00  0.00    -0.023 C 
ATOM      9  C   UNL     1       1.309   2.118   2.588  0.00  0.00    -0.030 C 
ATOM     10  C   UNL     1       2.038   0.799   2.418  0.00  0.00    +0.033 C 
ATOM     11  C   UNL     1       3.140   1.129   1.369  0.00  0.00    +0.029 C 
ATOM     12  C   UNL     1       2.490   1.048  -0.016  0.00  0.00    +0.105 C 
ATOM     13  N   UNL     1       3.387   1.665  -0.998  0.00  0.00    -0.336 N 
ATOM     14  H   UNL     1       3.613   1.207  -1.822  0.00  0.00    +0.147 HD
ENDROOT
BRANCH  12  15
ATOM     15  C   UNL     1       1.175   1.783   0.000  0.00  0.00    -0.027 A 
ATOM     16  C   UNL     1       0.010   1.110   0.318  0.00  0.00    +0.008 A 
ATOM     17  C   UNL     1      -1.197   1.784   0.328  0.00  0.00    +0.033 A 
ATOM     18  C   UNL     1      -1.238   3.133   0.029  0.00  0.00    +0.126 A 
ATOM     19  C   UNL     1      -0.073   3.806  -0.288  0.00  0.00    +0.033 A 
ATOM     20  C   UNL     1       1.133   3.131  -0.302  0.00  0.00    +0.008 A 
BRANCH  18  21
ATOM     21  N   UNL     1      -2.530   3.855   0.045  0.00  0.00    +0.056 N 
ATOM     22  O   UNL     1      -2.566   5.043  -0.221  0.00  0.00    -0.126 OA
ATOM     23  O   UNL     1      -3.556   3.262   0.325  0.00  0.00    -0.126 OA
ENDBRANCH  18  21
ENDBRANCH  12  15
BRANCH   1  25
ATOM     24  C   UNL     1       5.935   7.430  -1.045  0.00  0.00    +0.277 C 
ATOM     25  O   UNL     1       5.444   6.681   0.068  0.00  0.00    -0.495 OA
ENDBRANCH   1  25
TORSDOF 3
