REMARK  Name = ZINC09833539
REMARK  9 active torsions:
REMARK  status: ('A' for Active; 'I' for Inactive)
REMARK    1  A    between atoms: C_1  and  C_2
REMARK    2  A    between atoms: C_7  and  S_10
REMARK    3  A    between atoms: S_10  and  C_11
REMARK    4  A    between atoms: C_11  and  C_12
REMARK    5  A    between atoms: C_13  and  C_23
REMARK    6  A    between atoms: C_15  and  C_17
REMARK    7  A    between atoms: C_23  and  S_24
REMARK    8  A    between atoms: S_24  and  C_25
REMARK    9  A    between atoms: C_29  and  C_32
REMARK                            x       y       z     vdW  Elec       q    Type
REMARK                         _______ _______ _______ _____ _____    ______ ____
ROOT
ATOM      1  C   UNL     1      -3.533   5.596  -5.844  0.00  0.00    +0.094 A 
ATOM      2  C   UNL     1      -2.968   5.935  -7.018  0.00  0.00    +0.140 A 
ATOM      3  O   UNL     1      -3.937   6.469  -7.788  0.00  0.00    -0.439 OA
ATOM      4  C   UNL     1      -5.079   6.450  -7.080  0.00  0.00    +0.228 A 
ATOM      5  N   UNL     1      -4.834   5.917  -5.907  0.00  0.00    -0.213 NA
ENDROOT
BRANCH   4   6
ATOM      6  C   UNL     1      -6.392   6.943  -7.548  0.00  0.00    +0.037 A 
ATOM      7  C   UNL     1      -7.506   6.872  -6.709  0.00  0.00    +0.013 A 
ATOM      8  C   UNL     1      -8.729   7.334  -7.151  0.00  0.00    +0.001 A 
ATOM      9  C   UNL     1      -8.852   7.867  -8.422  0.00  0.00    +0.000 A 
ATOM     10  C   UNL     1      -7.752   7.940  -9.258  0.00  0.00    +0.001 A 
ATOM     11  C   UNL     1      -6.522   7.486  -8.827  0.00  0.00    +0.013 A 
ENDBRANCH   4   6
BRANCH   1  12
ATOM     12  C   UNL     1      -2.830   4.963  -4.671  0.00  0.00    +0.136 C 
BRANCH  12  13
ATOM     13  S   UNL     1      -2.901   3.157  -4.827  0.00  0.00    -0.080 S 
BRANCH  13  20
ATOM     14  C   UNL     1      -0.013   1.086   0.008  0.00  0.00    +0.073 C 
ATOM     15  C   UNL     1      -0.742   1.585  -1.213  0.00  0.00    +0.124 A 
ATOM     16  C   UNL     1      -0.899   3.022  -1.451  0.00  0.00    +0.295 A 
ATOM     17  O   UNL     1      -0.439   3.831  -0.659  0.00  0.00    -0.264 OA
ATOM     18  N   UNL     1      -1.550   3.441  -2.542  0.00  0.00    -0.182 NA
ATOM     19  H   UNL     1      -2.291   0.614  -3.848  0.00  0.00    +0.191 HD
ATOM     20  C   UNL     1      -2.049   2.572  -3.400  0.00  0.00    +0.186 A 
ATOM     21  N   UNL     1      -1.916   1.235  -3.203  0.00  0.00    -0.255 N 
ATOM     22  N   UNL     1      -1.239   0.744  -2.079  0.00  0.00    -0.172 NA
ENDBRANCH  13  20
ENDBRANCH  12  13
ENDBRANCH   1  12
BRANCH   2  23
ATOM     23  C   UNL     1      -1.522   5.753  -7.399  0.00  0.00    +0.152 C 
BRANCH  23  24
ATOM     24  S   UNL     1      -1.301   4.128  -8.173  0.00  0.00    -0.091 S 
BRANCH  24  25
ATOM     25  C   UNL     1       0.418   4.068  -8.556  0.00  0.00    +0.186 A 
ATOM     26  C   UNL     1       0.972   2.939  -9.183  0.00  0.00    +0.306 A 
ATOM     27  O   UNL     1       0.196   1.875  -9.507  0.00  0.00    -0.263 OA
ATOM     28  N   UNL     1       2.270   2.938  -9.452  0.00  0.00    -0.190 NA
ATOM     29  C   UNL     1       3.003   3.990  -9.126  0.00  0.00    +0.152 A 
ATOM     30  N   UNL     1       2.466   5.039  -8.537  0.00  0.00    -0.133 NA
ATOM     31  N   UNL     1       1.210   5.089  -8.262  0.00  0.00    -0.136 NA
ATOM     32  C   UNL     1       4.479   3.987  -9.431  0.00  0.00    +0.090 C 
ENDBRANCH  24  25
ENDBRANCH  23  24
ENDBRANCH   2  23
TORSDOF 7
