REMARK  Name = ZINC21257135
REMARK  6 active torsions:
REMARK  status: ('A' for Active; 'I' for Inactive)
REMARK    1  A    between atoms: C_1  and  C_2
REMARK    2  A    between atoms: C_2  and  O_3
REMARK    3  A    between atoms: O_3  and  C_4
REMARK    4  A    between atoms: C_7  and  C_10
REMARK    5  A    between atoms: C_15  and  C_21
REMARK    6  A    between atoms: C_24  and  N_27
REMARK                            x       y       z     vdW  Elec       q    Type
REMARK                         _______ _______ _______ _____ _____    ______ ____
ROOT
ATOM      1  C   UNL     1       2.452   3.935  -0.000  0.00  0.00    +0.032 C 
ATOM      2  C   UNL     1       2.505   4.840  -1.233  0.00  0.00    +0.059 C 
ATOM      3  C   UNL     1       3.779   5.647  -1.215  0.00  0.00    +0.018 C 
ATOM      4  C   UNL     1       4.352   6.008  -0.048  0.00  0.00    +0.020 C 
ATOM      5  C   UNL     1       5.622   6.826  -0.054  0.00  0.00    +0.063 C 
ATOM      6  C   UNL     1       6.490   6.407  -1.243  0.00  0.00    +0.109 C 
ATOM      7  C   UNL     1       5.639   6.371  -2.486  0.00  0.00    +0.218 C 
ATOM      8  O   UNL     1       6.122   6.667  -3.558  0.00  0.00    -0.275 OA
ATOM      9  N   UNL     1       4.346   6.011  -2.410  0.00  0.00    -0.289 N 
ATOM     10  C   UNL     1       3.793   5.639   1.187  0.00  0.00    +0.162 C 
ATOM     11  O   UNL     1       4.330   5.994   2.217  0.00  0.00    -0.292 OA
ATOM     12  C   UNL     1       2.537   4.812   1.254  0.00  0.00    +0.088 C 
ATOM     13  H   UNL     1       3.740   6.012  -3.328  0.00  0.00    +0.155 HD
ENDROOT
BRANCH   1  17
ATOM     14  C   UNL     1      -1.223   1.754   0.017  0.00  0.00    +0.121 A 
ATOM     15  C   UNL     1      -0.013   1.076   0.008  0.00  0.00    +0.046 A 
ATOM     16  C   UNL     1       1.174   1.783   0.000  0.00  0.00    +0.007 A 
ATOM     17  C   UNL     1       1.156   3.166   0.007  0.00  0.00    -0.043 A 
ATOM     18  C   UNL     1      -0.049   3.844   0.022  0.00  0.00    +0.007 A 
ATOM     19  C   UNL     1      -1.238   3.141   0.029  0.00  0.00    +0.046 A 
BRANCH  14  20
ATOM     20  O   UNL     1      -2.392   1.060   0.020  0.00  0.00    -0.492 OA
BRANCH  20  22
ATOM     21  C   UNL     1      -4.801   0.877   0.030  0.00  0.00    +0.048 C 
ATOM     22  C   UNL     1      -3.599   1.824   0.029  0.00  0.00    +0.225 C 
ENDBRANCH  20  22
ENDBRANCH  14  20
ENDBRANCH   1  17
BRANCH   5  23
ATOM     23  C   UNL     1       5.278   8.288  -0.173  0.00  0.00    -0.039 A 
ATOM     24  C   UNL     1       4.585   8.748  -1.277  0.00  0.00    +0.006 A 
ATOM     25  C   UNL     1       4.266  10.088  -1.385  0.00  0.00    +0.033 A 
ATOM     26  C   UNL     1       4.646  10.971  -0.391  0.00  0.00    +0.126 A 
ATOM     27  C   UNL     1       5.344  10.513   0.711  0.00  0.00    +0.033 A 
ATOM     28  C   UNL     1       5.660   9.171   0.820  0.00  0.00    +0.006 A 
BRANCH  26  29
ATOM     29  N   UNL     1       4.308  12.407  -0.508  0.00  0.00    +0.056 N 
ATOM     30  O   UNL     1       4.643  13.185   0.367  0.00  0.00    -0.126 OA
ATOM     31  O   UNL     1       3.693  12.811  -1.478  0.00  0.00    -0.126 OA
ENDBRANCH  26  29
ENDBRANCH   5  23
TORSDOF 5
