REMARK  Name = ZINC50170658
REMARK  7 active torsions:
REMARK  status: ('A' for Active; 'I' for Inactive)
REMARK    1  A    between atoms: C_1  and  C_2
REMARK    2  A    between atoms: C_2  and  C_3
REMARK    3  A    between atoms: C_2  and  N_4
REMARK    4  A    between atoms: C_6  and  C_11
REMARK    5  A    between atoms: N_13  and  N_14
REMARK    6  A    between atoms: C_15  and  C_17
REMARK    7  A    between atoms: C_26  and  O_27
REMARK                            x       y       z     vdW  Elec       q    Type
REMARK                         _______ _______ _______ _____ _____    ______ ____
ROOT
ATOM      1  N   UNL     1      -3.590  -5.272   1.406  0.00  0.00    -0.230 N 
ATOM      2  C   UNL     1      -4.567  -5.978   2.008  0.00  0.00    +0.264 C 
ATOM      3  O   UNL     1      -5.699  -5.538   2.047  0.00  0.00    -0.269 OA
ATOM      4  H   UNL     1      -2.686  -5.623   1.375  0.00  0.00    +0.173 HD
ENDROOT
BRANCH   2   5
ATOM      5  C   UNL     1      -4.262  -7.285   2.621  0.00  0.00    +0.080 A 
ATOM      6  C   UNL     1      -2.968  -7.780   2.580  0.00  0.00    +0.025 A 
ATOM      7  C   UNL     1      -2.685  -9.023   3.164  0.00  0.00    -0.017 A 
ATOM      8  C   UNL     1      -1.382  -9.555   3.141  0.00  0.00    +0.008 A 
ATOM      9  C   UNL     1      -1.138 -10.763   3.717  0.00  0.00    +0.001 A 
ATOM     10  C   UNL     1      -2.160 -11.485   4.331  0.00  0.00    +0.001 A 
ATOM     11  C   UNL     1      -3.432 -11.002   4.373  0.00  0.00    +0.008 A 
ATOM     12  C   UNL     1      -3.725  -9.757   3.790  0.00  0.00    -0.014 A 
ATOM     13  C   UNL     1      -5.028  -9.234   3.818  0.00  0.00    +0.054 A 
ATOM     14  C   UNL     1      -5.288  -8.021   3.251  0.00  0.00    +0.130 A 
BRANCH  14  15
ATOM     15  O   UNL     1      -6.548  -7.519   3.287  0.00  0.00    -0.506 OA
ATOM     16  H   UNL     1      -7.096  -7.775   2.532  0.00  0.00    +0.292 HD
ENDBRANCH  14  15
ENDBRANCH   2   5
BRANCH   1  19
ATOM     17  C   UNL     1      -2.902  -3.325   0.221  0.00  0.00    +0.234 C 
ATOM     18  O   UNL     1      -1.772  -3.764   0.183  0.00  0.00    -0.274 OA
ATOM     19  N   UNL     1      -3.879  -4.031   0.824  0.00  0.00    -0.234 N 
ATOM     20  H   UNL     1      -4.783  -3.680   0.854  0.00  0.00    +0.173 HD
BRANCH  17  23
ATOM     21  N   UNL     1      -1.372  -0.511   0.012  0.00  0.00    -0.298 N 
ATOM     22  C   UNL     1      -1.948  -1.365  -1.033  0.00  0.00    +0.121 C 
ATOM     23  C   UNL     1      -3.213  -1.990  -0.405  0.00  0.00    +0.102 C 
ATOM     24  C   UNL     1      -3.579  -0.944   0.673  0.00  0.00    +0.110 C 
ATOM     25  C   UNL     1      -2.267  -0.259   0.984  0.00  0.00    +0.217 C 
ATOM     26  O   UNL     1      -2.053   0.422   1.965  0.00  0.00    -0.276 OA
BRANCH  21  28
ATOM     27  C   UNL     1      -0.019   1.526   0.010  0.00  0.00    +0.028 C 
ATOM     28  C   UNL     1       0.002  -0.004   0.002  0.00  0.00    +0.070 C 
ATOM     29  C   UNL     1       0.742  -0.511   1.242  0.00  0.00    +0.028 C 
ENDBRANCH  21  28
ENDBRANCH  17  23
ENDBRANCH   1  19
TORSDOF 5
