REMARK  Name = ZINC08868564
REMARK  10 active torsions:
REMARK  status: ('A' for Active; 'I' for Inactive)
REMARK    1  A    between atoms: C_1  and  C_2
REMARK    2  A    between atoms: C_2  and  O_3
REMARK    3  A    between atoms: O_3  and  C_4
REMARK    4  A    between atoms: C_7  and  N_13
REMARK    5  A    between atoms: C_9  and  O_10
REMARK    6  A    between atoms: O_10  and  C_11
REMARK    7  A    between atoms: C_11  and  C_12
REMARK    8  A    between atoms: C_15  and  C_20
REMARK    9  A    between atoms: C_20  and  N_21
REMARK   10  A    between atoms: N_24  and  C_25
REMARK                            x       y       z     vdW  Elec       q    Type
REMARK                         _______ _______ _______ _____ _____    ______ ____
ROOT
ATOM      1  N   UNL     1      -2.428   1.035   0.019  0.00  0.00    -0.234 N 
ATOM      2  C   UNL     1      -2.550  -0.431   0.006  0.00  0.00    +0.163 C 
ATOM      3  C   UNL     1      -4.071  -0.673   0.017  0.00  0.00    +0.213 C 
ATOM      4  O   UNL     1      -4.642   0.667   0.027  0.00  0.00    -0.444 OA
ATOM      5  C   UNL     1      -3.656   1.572   0.027  0.00  0.00    +0.408 C 
ATOM      6  O   UNL     1      -3.855   2.770   0.034  0.00  0.00    -0.226 OA
ENDROOT
BRANCH   1  10
ATOM      7  C   UNL     1       1.159   3.168   0.008  0.00  0.00    +0.162 A 
ATOM      8  C   UNL     1       1.175   1.782   0.000  0.00  0.00    +0.051 A 
ATOM      9  C   UNL     1      -0.013   1.076   0.008  0.00  0.00    +0.027 A 
ATOM     10  C   UNL     1      -1.225   1.753   0.017  0.00  0.00    +0.043 A 
ATOM     11  C   UNL     1      -1.244   3.141   0.030  0.00  0.00    +0.073 A 
ATOM     12  C   UNL     1      -0.054   3.849   0.023  0.00  0.00    +0.164 A 
BRANCH   7  13
ATOM     13  O   UNL     1       2.329   3.862   0.001  0.00  0.00    -0.489 OA
BRANCH  13  15
ATOM     14  C   UNL     1       4.739   4.044  -0.021  0.00  0.00    +0.048 C 
ATOM     15  C   UNL     1       3.537   3.098  -0.015  0.00  0.00    +0.226 C 
ENDBRANCH  13  15
ENDBRANCH   7  13
BRANCH  12  16
ATOM     16  O   UNL     1      -0.071   5.209   0.030  0.00  0.00    -0.489 OA
BRANCH  16  17
ATOM     17  C   UNL     1      -1.353   5.841   0.045  0.00  0.00    +0.226 C 
ATOM     18  C   UNL     1      -1.171   7.361   0.051  0.00  0.00    +0.048 C 
ENDBRANCH  16  17
ENDBRANCH  12  16
ENDBRANCH   1  10
BRANCH   3  19
ATOM     19  C   UNL     1      -4.491  -1.444   1.271  0.00  0.00    +0.152 C 
BRANCH  19  20
ATOM     20  N   UNL     1      -5.936  -1.683   1.237  0.00  0.00    -0.296 N 
ATOM     21  C   UNL     1      -6.532  -2.349   2.245  0.00  0.00    +0.304 C 
ATOM     22  O   UNL     1      -5.871  -2.751   3.183  0.00  0.00    -0.252 OA
ATOM     23  N   UNL     1      -7.862  -2.568   2.214  0.00  0.00    -0.264 N 
ATOM     24  H   UNL     1      -6.463  -1.362   0.488  0.00  0.00    +0.150 HD
ATOM     25  H   UNL     1      -8.389  -2.248   1.466  0.00  0.00    +0.157 HD
BRANCH  23  26
ATOM     26  C   UNL     1      -8.481  -3.259   3.260  0.00  0.00    +0.073 A 
ATOM     27  C   UNL     1      -9.795  -3.581   3.417  0.00  0.00    +0.031 A 
ATOM     28  C   UNL     1     -10.180  -4.278   4.547  0.00  0.00    +0.009 A 
ATOM     29  C   UNL     1      -9.242  -4.619   5.462  0.00  0.00    +0.047 A 
ATOM     30  S   UNL     1      -7.753  -3.956   4.734  0.00  0.00    -0.082 S 
ENDBRANCH  23  26
ENDBRANCH  19  20
ENDBRANCH   3  19
TORSDOF 8
