REMARK  Name = ZINC36504402
REMARK  13 active torsions:
REMARK  status: ('A' for Active; 'I' for Inactive)
REMARK    1  A    between atoms: C_1  and  C_2
REMARK    2  A    between atoms: C_2  and  C_3
REMARK    3  A    between atoms: C_3  and  C_4
REMARK    4  A    between atoms: C_4  and  N_5
REMARK    5  A    between atoms: C_6  and  C_8
REMARK    6  A    between atoms: C_8  and  C_10
REMARK    7  A    between atoms: C_8  and  N_19
REMARK    8  A    between atoms: C_13  and  N_16
REMARK    9  A    between atoms: N_19  and  C_20
REMARK   10  A    between atoms: C_20  and  C_21
REMARK   11  A    between atoms: C_26  and  C_28
REMARK   12  A    between atoms: C_28  and  N_29
REMARK   13  A    between atoms: C_30  and  C_32
REMARK                            x       y       z     vdW  Elec       q    Type
REMARK                         _______ _______ _______ _____ _____    ______ ____
ROOT
ATOM      1  N   UNL     1       2.167  -5.519   3.848  0.00  0.00    -0.277 N 
ATOM      2  C   UNL     1       1.738  -6.114   4.979  0.00  0.00    +0.234 C 
ATOM      3  O   UNL     1       1.094  -5.482   5.789  0.00  0.00    -0.274 OA
ENDROOT
BRANCH   1   4
ATOM      4  C   UNL     1       1.855  -4.110   3.598  0.00  0.00    +0.193 C 
BRANCH   4   5
ATOM      5  C   UNL     1       2.317  -3.277   4.766  0.00  0.00    -0.018 A 
ATOM      6  C   UNL     1       3.548  -3.523   5.346  0.00  0.00    +0.008 A 
ATOM      7  C   UNL     1       3.971  -2.760   6.418  0.00  0.00    +0.033 A 
ATOM      8  C   UNL     1       3.164  -1.751   6.910  0.00  0.00    +0.126 A 
ATOM      9  C   UNL     1       1.934  -1.505   6.330  0.00  0.00    +0.033 A 
ATOM     10  C   UNL     1       1.512  -2.265   5.255  0.00  0.00    +0.008 A 
BRANCH   8  11
ATOM     11  N   UNL     1       3.618  -0.934   8.058  0.00  0.00    +0.056 N 
ATOM     12  O   UNL     1       4.694  -1.149   8.566  0.00  0.00    -0.126 OA
ATOM     13  O   UNL     1       2.912  -0.052   8.488  0.00  0.00    -0.126 OA
ENDBRANCH   8  11
ENDBRANCH   4   5
BRANCH   4  15
ATOM     14  N   UNL     1       1.875  -2.999   1.388  0.00  0.00    -0.313 N 
ATOM     15  C   UNL     1       2.560  -3.653   2.346  0.00  0.00    +0.238 C 
ATOM     16  O   UNL     1       3.743  -3.875   2.202  0.00  0.00    -0.273 OA
ATOM     17  H   UNL     1       0.929  -2.821   1.503  0.00  0.00    +0.149 HD
BRANCH  14  18
ATOM     18  C   UNL     1       2.561  -2.555   0.171  0.00  0.00    +0.104 C 
BRANCH  18  19
ATOM     19  C   UNL     1       1.563  -1.844  -0.745  0.00  0.00    +0.018 C 
BRANCH  19  21
ATOM     20  C   UNL     1       1.282  -0.670  -2.933  0.00  0.00    +0.004 C 
ATOM     21  C   UNL     1       2.279  -1.381  -2.016  0.00  0.00    -0.002 C 
ENDBRANCH  19  21
ENDBRANCH  18  19
ENDBRANCH  14  18
ENDBRANCH   4  15
ENDBRANCH   1   4
BRANCH   1  22
ATOM     22  C   UNL     1       2.946  -6.282   2.869  0.00  0.00    +0.183 C 
BRANCH  22  23
ATOM     23  C   UNL     1       4.386  -6.342   3.310  0.00  0.00    +0.122 A 
ATOM     24  C   UNL     1       4.965  -7.362   3.967  0.00  0.00    +0.046 A 
ATOM     25  C   UNL     1       6.315  -7.000   4.178  0.00  0.00    +0.041 A 
ATOM     26  C   UNL     1       6.480  -5.779   3.637  0.00  0.00    +0.195 A 
ATOM     27  O   UNL     1       5.310  -5.388   3.107  0.00  0.00    -0.466 OA
ENDBRANCH  22  23
ENDBRANCH   1  22
BRANCH   2  28
ATOM     28  C   UNL     1       2.059  -7.563   5.237  0.00  0.00    +0.200 C 
BRANCH  28  29
ATOM     29  N   UNL     1       1.486  -7.970   6.522  0.00  0.00    -0.303 N 
ATOM     30  C   UNL     1       1.648  -9.233   6.963  0.00  0.00    +0.244 C 
ATOM     31  O   UNL     1       2.269 -10.035   6.294  0.00  0.00    -0.270 OA
ATOM     32  H   UNL     1       0.990  -7.330   7.056  0.00  0.00    +0.150 HD
BRANCH  30  33
ATOM     33  C   UNL     1       1.069  -9.643   8.260  0.00  0.00    +0.037 A 
ATOM     34  C   UNL     1       0.350  -8.726   9.028  0.00  0.00    +0.013 A 
ATOM     35  C   UNL     1      -0.188  -9.115  10.237  0.00  0.00    +0.001 A 
ATOM     36  C   UNL     1      -0.016 -10.412  10.689  0.00  0.00    +0.000 A 
ATOM     37  C   UNL     1       0.697 -11.325   9.933  0.00  0.00    +0.001 A 
ATOM     38  C   UNL     1       1.234 -10.951   8.719  0.00  0.00    +0.013 A 
ENDBRANCH  30  33
ENDBRANCH  28  29
ENDBRANCH   2  28
TORSDOF 12
