REMARK  Name = ZINC20613861
REMARK  12 active torsions:
REMARK  status: ('A' for Active; 'I' for Inactive)
REMARK    1  A    between atoms: C_1  and  C_2
REMARK    2  A    between atoms: C_5  and  N_8
REMARK    3  A    between atoms: N_8  and  C_9
REMARK    4  A    between atoms: C_9  and  N_11
REMARK    5  A    between atoms: N_11  and  N_12
REMARK    6  A    between atoms: C_13  and  C_15
REMARK    7  A    between atoms: C_15  and  S_16
REMARK    8  A    between atoms: S_16  and  C_17
REMARK    9  A    between atoms: C_20  and  C_29
REMARK   10  A    between atoms: N_21  and  C_22
REMARK   11  A    between atoms: C_22  and  C_23
REMARK   12  A    between atoms: N_32  and  C_34
REMARK                            x       y       z     vdW  Elec       q    Type
REMARK                         _______ _______ _______ _____ _____    ______ ____
ROOT
ATOM      1  C   UNL     1      -6.219  -0.968   2.083  0.00  0.00    +0.174 C 
ENDROOT
BRANCH   1   3
ATOM      2  N   UNL     1      -6.830  -2.080   4.205  0.00  0.00    -0.234 N 
ATOM      3  C   UNL     1      -5.873  -1.776   3.306  0.00  0.00    +0.239 C 
ATOM      4  O   UNL     1      -4.734  -2.154   3.482  0.00  0.00    -0.273 OA
ATOM      5  H   UNL     1      -7.863  -1.738   4.046  0.00  0.00    +0.173 HD
BRANCH   2   6
ATOM      6  N   UNL     1      -6.509  -2.832   5.343  0.00  0.00    -0.246 N 
ATOM      7  H   UNL     1      -5.476  -3.174   5.503  0.00  0.00    +0.172 HD
BRANCH   6   8
ATOM      8  C   UNL     1      -7.466  -3.136   6.242  0.00  0.00    +0.151 C 
ATOM      9  S   UNL     1      -7.073  -4.055   7.632  0.00  0.00    -0.017 S 
BRANCH   8  10
ATOM     10  N   UNL     1      -8.732  -2.717   6.047  0.00  0.00    -0.296 N 
ATOM     11  H   UNL     1      -8.970  -2.068   5.191  0.00  0.00    +0.154 HD
BRANCH  10  16
ATOM     12  C   UNL     1     -12.831  -4.298   9.636  0.00  0.00    +0.044 C 
ATOM     13  C   UNL     1     -11.742  -3.878   8.682  0.00  0.00    -0.050 A 
ATOM     14  C   UNL     1     -10.529  -3.431   9.174  0.00  0.00    +0.005 A 
ATOM     15  C   UNL     1      -9.529  -3.045   8.303  0.00  0.00    +0.023 A 
ATOM     16  C   UNL     1      -9.742  -3.107   6.932  0.00  0.00    +0.033 A 
ATOM     17  C   UNL     1     -10.963  -3.553   6.441  0.00  0.00    +0.023 A 
ATOM     18  C   UNL     1     -11.957  -3.941   7.318  0.00  0.00    +0.005 A 
ENDBRANCH  10  16
ENDBRANCH   8  10
ENDBRANCH   6   8
ENDBRANCH   2   6
ENDBRANCH   1   3
BRANCH   1  19
ATOM     19  S   UNL     1      -4.732  -0.728   1.078  0.00  0.00    -0.077 S 
BRANCH  19  20
ATOM     20  C   UNL     1      -5.407   0.219  -0.246  0.00  0.00    +0.192 A 
ATOM     21  N   UNL     1      -6.658   0.598  -0.374  0.00  0.00    -0.122 NA
ATOM     22  N   UNL     1      -6.807   1.269  -1.460  0.00  0.00    -0.127 NA
ATOM     23  C   UNL     1      -5.659   1.364  -2.089  0.00  0.00    +0.185 A 
ATOM     24  N   UNL     1      -4.726   0.698  -1.329  0.00  0.00    -0.298 N 
BRANCH  23  25
ATOM     25  C   UNL     1      -5.414   2.057  -3.373  0.00  0.00    +0.130 A 
ATOM     26  C   UNL     1      -6.378   2.738  -4.145  0.00  0.00    +0.052 A 
ATOM     27  C   UNL     1      -5.758   3.231  -5.239  0.00  0.00    +0.108 A 
ATOM     28  N   UNL     1      -4.454   2.883  -5.173  0.00  0.00    -0.274 N 
ATOM     29  N   UNL     1      -4.256   2.152  -3.994  0.00  0.00    -0.168 NA
ATOM     30  C   UNL     1      -3.425   3.218  -6.160  0.00  0.00    +0.172 C 
ENDBRANCH  23  25
BRANCH  24  31
ATOM     31  C   UNL     1      -3.300   0.532  -1.622  0.00  0.00    +0.157 C 
BRANCH  31  32
ATOM     32  C   UNL     1      -2.514   1.694  -1.011  0.00  0.00    +0.138 C 
ATOM     33  C   UNL     1      -1.032   1.596  -1.419  0.00  0.00    +0.035 C 
ATOM     34  C   UNL     1      -0.272   1.517  -0.073  0.00  0.00    +0.031 C 
ATOM     35  C   UNL     1      -1.303   2.114   0.918  0.00  0.00    +0.160 C 
ATOM     36  O   UNL     1      -2.568   1.622   0.424  0.00  0.00    -0.375 OA
ENDBRANCH  31  32
ENDBRANCH  24  31
ENDBRANCH  19  20
ENDBRANCH   1  19
TORSDOF 10
