REMARK  Name = ZINC63502671
REMARK  6 active torsions:
REMARK  status: ('A' for Active; 'I' for Inactive)
REMARK    1  A    between atoms: C_1  and  C_2
REMARK    2  A    between atoms: C_2  and  O_3
REMARK    3  A    between atoms: O_3  and  C_4
REMARK    4  A    between atoms: C_4  and  C_6
REMARK    5  A    between atoms: C_13  and  C_15
REMARK    6  A    between atoms: N_18  and  C_21
REMARK                            x       y       z     vdW  Elec       q    Type
REMARK                         _______ _______ _______ _____ _____    ______ ____
ROOT
ATOM      1  C   UNL     1       2.672  -5.988   5.425  0.00  0.00    +0.078 C 
ATOM      2  C   UNL     1       3.119  -4.917   6.423  0.00  0.00    +0.028 C 
ATOM      3  C   UNL     1       3.958  -5.570   7.524  0.00  0.00    +0.089 C 
ATOM      4  N   UNL     1       3.160  -6.597   8.205  0.00  0.00    -0.266 NA
ATOM      5  C   UNL     1       2.759  -7.661   7.276  0.00  0.00    +0.089 C 
ATOM      6  C   UNL     1       1.884  -7.070   6.168  0.00  0.00    +0.028 C 
ENDROOT
BRANCH   4   7
ATOM      7  C   UNL     1       3.885  -7.149   9.357  0.00  0.00    +0.252 C 
ATOM      8  N   UNL     1       5.109  -7.824   8.905  0.00  0.00    -0.351 N 
ATOM      9  C   UNL     1       5.019  -9.073   9.260  0.00  0.00    +0.061 A 
ATOM     10  C   UNL     1       5.915 -10.226   9.093  0.00  0.00    +0.027 A 
ATOM     11  C   UNL     1       5.548 -11.430   9.576  0.00  0.00    +0.002 A 
ATOM     12  C   UNL     1       4.328 -11.638  10.244  0.00  0.00    +0.002 A 
ATOM     13  C   UNL     1       3.434 -10.650  10.450  0.00  0.00    +0.027 A 
ATOM     14  C   UNL     1       3.728  -9.294   9.967  0.00  0.00    +0.061 A 
ATOM     15  N   UNL     1       3.069  -8.173  10.023  0.00  0.00    -0.351 N 
ATOM     16  H   UNL     1       5.848  -7.414   8.430  0.00  0.00    +0.163 HD
ATOM     17  H   UNL     1       2.199  -8.038  10.429  0.00  0.00    +0.163 HD
ENDBRANCH   4   7
BRANCH   1  24
ATOM     18  C   UNL     1       4.269  -5.226   1.857  0.00  0.00    +0.115 C 
ATOM     19  C   UNL     1       3.490  -4.571   0.714  0.00  0.00    +0.018 C 
ATOM     20  C   UNL     1       1.996  -4.857   0.883  0.00  0.00    +0.020 C 
ATOM     21  C   UNL     1       1.512  -4.255   2.206  0.00  0.00    +0.108 C 
ATOM     22  N   UNL     1       2.352  -4.770   3.296  0.00  0.00    -0.300 N 
ATOM     23  C   UNL     1       3.811  -4.629   3.191  0.00  0.00    +0.122 C 
ATOM     24  C   UNL     1       1.795  -5.361   4.372  0.00  0.00    +0.219 C 
ATOM     25  O   UNL     1       0.589  -5.388   4.492  0.00  0.00    -0.275 OA
BRANCH  18  26
ATOM     26  C   UNL     1       5.743  -4.972   1.672  0.00  0.00    +0.312 C 
ATOM     27  O   UNL     1       6.364  -4.375   2.519  0.00  0.00    -0.250 OA
BRANCH  26  28
ATOM     28  O   UNL     1       6.366  -5.407   0.565  0.00  0.00    -0.465 OA
BRANCH  28  30
ATOM     29  C   UNL     1       8.294  -5.700  -0.861  0.00  0.00    +0.048 C 
ATOM     30  C   UNL     1       7.763  -5.131   0.456  0.00  0.00    +0.229 C 
ENDBRANCH  28  30
ENDBRANCH  26  28
ENDBRANCH  18  26
ENDBRANCH   1  24
TORSDOF 5
