REMARK  Name = ZINC20528031
REMARK  7 active torsions:
REMARK  status: ('A' for Active; 'I' for Inactive)
REMARK    1  A    between atoms: C_3  and  N_8
REMARK    2  A    between atoms: C_9  and  C_11
REMARK    3  A    between atoms: C_11  and  S_12
REMARK    4  A    between atoms: S_12  and  C_13
REMARK    5  A    between atoms: N_17  and  N_18
REMARK    6  A    between atoms: N_19  and  N_20
REMARK    7  A    between atoms: C_21  and  C_22
REMARK                            x       y       z     vdW  Elec       q    Type
REMARK                         _______ _______ _______ _____ _____    ______ ____
ROOT
ATOM      1  C   UNL     1      -5.260   0.371  -0.196  0.00  0.00    +0.210 A 
ATOM      2  N   UNL     1      -5.117  -0.911   0.043  0.00  0.00    -0.119 NA
ATOM      3  N   UNL     1      -6.393  -1.490   0.078  0.00  0.00    -0.109 NA
ATOM      4  C   UNL     1      -7.273  -0.544  -0.147  0.00  0.00    +0.254 A 
ATOM      5  N   UNL     1      -6.595   0.630  -0.323  0.00  0.00    -0.211 N 
ATOM      6  N   UNL     1      -8.649  -0.708  -0.200  0.00  0.00    -0.204 N 
ATOM      7  H   UNL     1      -9.299   0.158  -0.399  0.00  0.00    +0.177 HD
ENDROOT
BRANCH   5   8
ATOM      8  N   UNL     1      -7.155   1.850  -0.579  0.00  0.00    -0.294 N 
ATOM      9  H   UNL     1      -8.248   1.946  -0.662  0.00  0.00    +0.163 HD
ATOM     10  H   UNL     1      -6.514   2.735  -0.703  0.00  0.00    +0.163 HD
ENDBRANCH   5   8
BRANCH   6  11
ATOM     11  N   UNL     1      -9.213  -1.975  -0.001  0.00  0.00    -0.188 NA
ATOM     12  C   UNL     1     -10.501  -2.128  -0.051  0.00  0.00    +0.138 C 
BRANCH  12  13
ATOM     13  C   UNL     1     -11.094  -3.461   0.159  0.00  0.00    -0.005 A 
ATOM     14  C   UNL     1     -10.271  -4.564   0.405  0.00  0.00    +0.012 A 
ATOM     15  C   UNL     1     -10.832  -5.807   0.606  0.00  0.00    +0.039 A 
ATOM     16  C   UNL     1     -12.208  -5.967   0.552  0.00  0.00    +0.123 A 
ATOM     17  C   UNL     1     -13.029  -4.878   0.303  0.00  0.00    +0.039 A 
ATOM     18  C   UNL     1     -12.480  -3.629   0.106  0.00  0.00    +0.012 A 
ATOM     19  F   UNL     1     -12.751  -7.189   0.744  0.00  0.00    -0.205 F 
ENDBRANCH  12  13
ENDBRANCH   6  11
BRANCH   1  20
ATOM     20  S   UNL     1      -3.958   1.550  -0.335  0.00  0.00    -0.075 S 
BRANCH  20  21
ATOM     21  C   UNL     1      -2.453   0.575  -0.066  0.00  0.00    +0.173 C 
BRANCH  21  23
ATOM     22  N   UNL     1      -0.011   0.966   0.007  0.00  0.00    -0.285 N 
ATOM     23  C   UNL     1      -1.248   1.475  -0.160  0.00  0.00    +0.227 C 
ATOM     24  O   UNL     1      -1.391   2.658  -0.386  0.00  0.00    -0.275 OA
ATOM     25  H   UNL     1       0.125  -0.119   0.129  0.00  0.00    +0.155 HD
BRANCH  22  28
ATOM     26  C   UNL     1       3.411   2.226  -0.464  0.00  0.00    +0.003 A 
ATOM     27  C   UNL     1       2.318   1.382  -0.478  0.00  0.00    +0.023 A 
ATOM     28  C   UNL     1       1.099   1.817   0.026  0.00  0.00    +0.034 A 
ATOM     29  C   UNL     1       0.987   3.096   0.555  0.00  0.00    +0.038 A 
ATOM     30  C   UNL     1       2.086   3.934   0.572  0.00  0.00    +0.020 A 
ATOM     31  C   UNL     1       3.297   3.499   0.063  0.00  0.00    +0.015 A 
ATOM     32 BR   UNL     1       1.934   5.676   1.292  0.00  0.00    -0.050 Br
ENDBRANCH  22  28
ENDBRANCH  21  23
ENDBRANCH  20  21
ENDBRANCH   1  20
TORSDOF 7
