REMARK  Name = ZINC07230944
REMARK  6 active torsions:
REMARK  status: ('A' for Active; 'I' for Inactive)
REMARK    1  A    between atoms: C_6  and  N_7
REMARK    2  A    between atoms: C_11  and  C_13
REMARK    3  A    between atoms: C_13  and  O_15
REMARK    4  A    between atoms: O_15  and  C_16
REMARK    5  A    between atoms: C_16  and  C_17
REMARK    6  A    between atoms: N_19  and  C_20
REMARK                            x       y       z     vdW  Elec       q    Type
REMARK                         _______ _______ _______ _____ _____    ______ ____
ROOT
ATOM      1  C   UNL     1       3.815   7.510   0.426  0.00  0.00    +0.346 C 
ATOM      2  O   UNL     1       2.840   8.237   0.453  0.00  0.00    -0.244 OA
ENDROOT
BRANCH   1  10
ATOM      3  C   UNL     1       9.662  10.127   0.832  0.00  0.00    +0.034 A 
ATOM      4  C   UNL     1       9.154   8.849   0.712  0.00  0.00    +0.018 A 
ATOM      5  C   UNL     1       7.790   8.664   0.652  0.00  0.00    +0.020 A 
ATOM      6  C   UNL     1       6.878   9.746   0.710  0.00  0.00    -0.008 A 
ATOM      7  C   UNL     1       7.445  11.041   0.834  0.00  0.00    +0.041 A 
ATOM      8  C   UNL     1       8.791  11.208   0.891  0.00  0.00    +0.127 A 
ATOM      9  C   UNL     1       5.519   9.394   0.636  0.00  0.00    +0.031 A 
ATOM     10  C   UNL     1       5.162   8.086   0.518  0.00  0.00    +0.097 A 
ATOM     11  S   UNL     1       6.735   7.243   0.509  0.00  0.00    -0.082 S 
BRANCH   8  12
ATOM     12  N   UNL     1       9.344  12.575   1.021  0.00  0.00    +0.056 N 
ATOM     13  O   UNL     1      10.550  12.741   1.074  0.00  0.00    -0.126 OA
ATOM     14  O   UNL     1       8.594  13.533   1.074  0.00  0.00    -0.126 OA
ENDBRANCH   8  12
ENDBRANCH   1  10
BRANCH   1  15
ATOM     15  O   UNL     1       3.658   6.176   0.312  0.00  0.00    -0.451 OA
BRANCH  15  16
ATOM     16  C   UNL     1       2.297   5.677   0.226  0.00  0.00    +0.328 C 
BRANCH  16  17
ATOM     17  C   UNL     1       2.320   4.175   0.104  0.00  0.00    +0.255 C 
ATOM     18  O   UNL     1       3.379   3.583   0.091  0.00  0.00    -0.272 OA
ATOM     19  N   UNL     1       1.164   3.489   0.010  0.00  0.00    -0.280 N 
ATOM     20  H   UNL     1       0.322   3.965  -0.061  0.00  0.00    +0.155 HD
BRANCH  19  21
ATOM     21  C   UNL     1       1.178   2.089   0.013  0.00  0.00    +0.070 A 
ATOM     22  C   UNL     1       2.230   1.405   0.607  0.00  0.00    +0.046 A 
ATOM     23  C   UNL     1       2.241   0.023   0.609  0.00  0.00    +0.043 A 
ATOM     24  C   UNL     1       1.205  -0.680   0.020  0.00  0.00    +0.023 A 
ATOM     25  C   UNL     1       0.156  -0.003  -0.573  0.00  0.00    +0.041 A 
ATOM     26  C   UNL     1       0.139   1.380  -0.579  0.00  0.00    +0.145 A 
ATOM     27  F   UNL     1      -0.884   2.041  -1.163  0.00  0.00    -0.204 F 
ATOM     28 CL   UNL     1       3.557  -0.832   1.352  0.00  0.00    -0.083 Cl
ENDBRANCH  19  21
ENDBRANCH  16  17
ENDBRANCH  15  16
ENDBRANCH   1  15
TORSDOF 6
