REMARK  Name = ZINC39655344
REMARK  9 active torsions:
REMARK  status: ('A' for Active; 'I' for Inactive)
REMARK    1  A    between atoms: C_1  and  C_2
REMARK    2  A    between atoms: C_2  and  C_3
REMARK    3  A    between atoms: C_3  and  C_5
REMARK    4  A    between atoms: C_3  and  C_6
REMARK    5  A    between atoms: C_10  and  C_19
REMARK    6  A    between atoms: N_21  and  C_22
REMARK    7  A    between atoms: C_22  and  C_23
REMARK    8  A    between atoms: C_23  and  N_24
REMARK    9  A    between atoms: N_24  and  C_25
REMARK                            x       y       z     vdW  Elec       q    Type
REMARK                         _______ _______ _______ _____ _____    ______ ____
ROOT
ATOM      1  C   UNL     1       0.340  -1.897  -1.447  0.00  0.00    +0.218 C 
ATOM      2  O   UNL     1      -0.366  -2.559  -0.715  0.00  0.00    -0.275 OA
ATOM      3  N   UNL     1       1.091  -2.504  -2.388  0.00  0.00    -0.300 N 
ATOM      4  C   UNL     1       2.091  -1.885  -3.290  0.00  0.00    +0.121 C 
ATOM      5  C   UNL     1       3.242  -2.914  -3.361  0.00  0.00    +0.100 C 
ATOM      6  C   UNL     1       2.587  -4.260  -3.010  0.00  0.00    -0.004 C 
ATOM      7  C   UNL     1       1.107  -3.941  -2.750  0.00  0.00    +0.115 C 
ATOM      8  C   UNL     1       3.222  -4.846  -1.754  0.00  0.00    -0.010 C 
ATOM      9  C   UNL     1       2.594  -6.211  -1.458  0.00  0.00    -0.082 C 
ATOM     10  N   UNL     1       2.806  -7.107  -2.602  0.00  0.00    +0.379 N 
ATOM     11  C   UNL     1       2.113  -6.582  -3.784  0.00  0.00    -0.082 C 
ATOM     12  C   UNL     1       2.721  -5.233  -4.178  0.00  0.00    -0.010 C 
ATOM     13  H   UNL     1       3.794  -7.175  -2.795  0.00  0.00    -0.086 HD
ATOM     14  H   UNL     1       2.445  -8.023  -2.381  0.00  0.00    -0.086 HD
ENDROOT
BRANCH   5  15
ATOM     15  C   UNL     1       4.313  -2.572  -2.357  0.00  0.00    +0.218 C 
ATOM     16  O   UNL     1       4.032  -1.939  -1.362  0.00  0.00    -0.275 OA
ATOM     17  N   UNL     1       5.584  -2.970  -2.566  0.00  0.00    -0.314 N 
ATOM     18  H   UNL     1       5.808  -3.477  -3.363  0.00  0.00    +0.149 HD
BRANCH  17  19
ATOM     19  C   UNL     1       6.625  -2.639  -1.591  0.00  0.00    +0.123 C 
BRANCH  19  20
ATOM     20  C   UNL     1       7.966  -3.204  -2.064  0.00  0.00    +0.120 C 
BRANCH  20  21
ATOM     21  N   UNL     1       9.008  -2.872  -1.089  0.00  0.00    -0.342 N 
ATOM     22  H   UNL     1       8.783  -2.366  -0.293  0.00  0.00    +0.146 HD
BRANCH  21  23
ATOM     23  C   UNL     1      10.324  -3.285  -1.306  0.00  0.00    +0.027 A 
ATOM     24  C   UNL     1      10.649  -4.005  -2.449  0.00  0.00    +0.023 A 
ATOM     25  C   UNL     1      11.952  -4.411  -2.660  0.00  0.00    +0.002 A 
ATOM     26  C   UNL     1      12.933  -4.102  -1.736  0.00  0.00    +0.000 A 
ATOM     27  C   UNL     1      12.613  -3.385  -0.597  0.00  0.00    +0.002 A 
ATOM     28  C   UNL     1      11.313  -2.971  -0.382  0.00  0.00    +0.023 A 
ENDBRANCH  21  23
ENDBRANCH  20  21
ENDBRANCH  19  20
ENDBRANCH  17  19
ENDBRANCH   5  15
BRANCH   1  29
ATOM     29  C   UNL     1       0.377  -0.398  -1.305  0.00  0.00    +0.072 C 
ATOM     30  C   UNL     1       0.223  -0.022   0.171  0.00  0.00    +0.017 C 
BRANCH  29  32
ATOM     31  C   UNL     1      -0.657   1.745  -2.067  0.00  0.00    +0.004 C 
ATOM     32  C   UNL     1      -0.768   0.220  -2.110  0.00  0.00    +0.009 C 
ENDBRANCH  29  32
ENDBRANCH   1  29
TORSDOF 7
