REMARK  Name = ZINC66175796
REMARK  8 active torsions:
REMARK  status: ('A' for Active; 'I' for Inactive)
REMARK    1  A    between atoms: C_1  and  C_2
REMARK    2  A    between atoms: N_5  and  C_8
REMARK    3  A    between atoms: C_8  and  C_9
REMARK    4  A    between atoms: C_9  and  C_10
REMARK    5  A    between atoms: C_10  and  N_11
REMARK    6  A    between atoms: N_14  and  C_15
REMARK    7  A    between atoms: N_14  and  C_16
REMARK    8  A    between atoms: N_19  and  C_22
REMARK                            x       y       z     vdW  Elec       q    Type
REMARK                         _______ _______ _______ _____ _____    ______ ____
ROOT
ATOM      1  N   UNL     1       3.577  -6.276   2.265  0.00  0.00    -0.299 N 
ATOM      2  C   UNL     1       3.852  -7.581   2.458  0.00  0.00    +0.302 C 
ATOM      3  O   UNL     1       3.402  -8.416   1.698  0.00  0.00    -0.253 OA
ATOM      4  N   UNL     1       4.625  -7.960   3.495  0.00  0.00    -0.286 N 
ATOM      5  C   UNL     1       5.167  -6.954   4.411  0.00  0.00    +0.134 C 
ATOM      6  H   UNL     1       3.936  -5.609   2.871  0.00  0.00    +0.150 HD
ENDROOT
BRANCH   4   7
ATOM      7  C   UNL     1       4.924  -9.379   3.705  0.00  0.00    +0.074 C 
ATOM      8  C   UNL     1       4.413  -9.811   5.083  0.00  0.00    +0.004 C 
ATOM      9  C   UNL     1       4.799 -11.271   5.328  0.00  0.00    -0.077 C 
ATOM     10  N   UNL     1       6.259 -11.411   5.280  0.00  0.00    +0.382 N 
ATOM     11  C   UNL     1       6.748 -11.067   3.939  0.00  0.00    -0.077 C 
ATOM     12  C   UNL     1       6.438  -9.599   3.640  0.00  0.00    +0.004 C 
ATOM     13  H   UNL     1       6.678 -10.793   5.958  0.00  0.00    -0.081 HD
BRANCH  10  14
ATOM     14  C   UNL     1       6.628 -12.798   5.593  0.00  0.00    -0.064 C 
ATOM     15  C   UNL     1       6.137 -13.154   7.000  0.00  0.00    +0.013 C 
ATOM     16  C   UNL     1       6.593 -14.573   7.348  0.00  0.00    +0.158 C 
ATOM     17  O   UNL     1       8.017 -14.650   7.252  0.00  0.00    -0.380 OA
ATOM     18  C   UNL     1       8.530 -14.374   5.947  0.00  0.00    +0.158 C 
ATOM     19  C   UNL     1       8.152 -12.947   5.543  0.00  0.00    +0.013 C 
ENDBRANCH  10  14
ENDBRANCH   4   7
BRANCH   1  20
ATOM     20  C   UNL     1       2.736  -5.863   1.138  0.00  0.00    +0.104 C 
BRANCH  20  21
ATOM     21  C   UNL     1       2.582  -4.341   1.147  0.00  0.00    +0.000 C 
BRANCH  21  22
ATOM     22  C   UNL     1       1.704  -3.911  -0.029  0.00  0.00    -0.077 C 
BRANCH  22  27
ATOM     23  C   UNL     1      -0.019   1.526   0.010  0.00  0.00    +0.007 C 
ATOM     24  C   UNL     1       0.002  -0.004   0.002  0.00  0.00    -0.018 C 
ATOM     25  C   UNL     1       0.727  -0.499  -1.252  0.00  0.00    -0.016 C 
ATOM     26  C   UNL     1       0.814  -2.027  -1.215  0.00  0.00    -0.079 C 
ATOM     27  N   UNL     1       1.556  -2.449  -0.021  0.00  0.00    +0.380 N 
ATOM     28  C   UNL     1       0.829  -2.040   1.187  0.00  0.00    -0.079 C 
ATOM     29  C   UNL     1       0.743  -0.513   1.242  0.00  0.00    -0.016 C 
ATOM     30  H   UNL     1       2.469  -2.020  -0.024  0.00  0.00    -0.082 HD
ENDBRANCH  22  27
ENDBRANCH  21  22
ENDBRANCH  20  21
ENDBRANCH   1  20
TORSDOF 6
