REMARK  Name = ZINC45681920
REMARK  8 active torsions:
REMARK  status: ('A' for Active; 'I' for Inactive)
REMARK    1  A    between atoms: C_1  and  C_2
REMARK    2  A    between atoms: C_2  and  C_4
REMARK    3  A    between atoms: C_2  and  N_10
REMARK    4  A    between atoms: N_6  and  C_7
REMARK    5  A    between atoms: N_13  and  C_16
REMARK    6  A    between atoms: C_16  and  C_17
REMARK    7  A    between atoms: N_19  and  C_20
REMARK    8  A    between atoms: C_21  and  C_29
REMARK                            x       y       z     vdW  Elec       q    Type
REMARK                         _______ _______ _______ _____ _____    ______ ____
ROOT
ATOM      1  C   UNL     1      -3.952  -3.553  -3.661  0.00  0.00    +0.232 C 
ATOM      2  O   UNL     1      -3.463  -2.652  -4.310  0.00  0.00    -0.274 OA
ATOM      3  N   UNL     1      -4.942  -4.301  -4.185  0.00  0.00    -0.278 N 
ATOM      4  H   UNL     1      -5.333  -5.021  -3.666  0.00  0.00    +0.155 HD
ENDROOT
BRANCH   3   5
ATOM      5  C   UNL     1      -5.402  -4.043  -5.468  0.00  0.00    +0.084 A 
ATOM      6  C   UNL     1      -6.407  -4.699  -6.161  0.00  0.00    +0.068 A 
ATOM      7  C   UNL     1      -6.702  -4.231  -7.504  0.00  0.00    -0.023 A 
ATOM      8  C   UNL     1      -5.938  -3.193  -7.907  0.00  0.00    -0.004 A 
ATOM      9  S   UNL     1      -4.875  -2.857  -6.534  0.00  0.00    -0.077 S 
ATOM     10  C   UNL     1      -5.998  -2.492  -9.230  0.00  0.00    +0.043 C 
ATOM     11  C   UNL     1      -6.799  -3.369 -10.204  0.00  0.00    +0.005 C 
ATOM     12  C   UNL     1      -8.091  -3.820  -9.517  0.00  0.00    +0.005 C 
ATOM     13  C   UNL     1      -7.768  -4.827  -8.411  0.00  0.00    +0.037 C 
BRANCH   6  14
ATOM     14  C   UNL     1      -7.141  -5.819  -5.564  0.00  0.00    +0.244 C 
ATOM     15  O   UNL     1      -8.156  -5.611  -4.926  0.00  0.00    -0.270 OA
ATOM     16  N   UNL     1      -6.691  -7.080  -5.723  0.00  0.00    -0.325 N 
ATOM     17  H   UNL     1      -5.882  -7.246  -6.231  0.00  0.00    +0.145 HD
ATOM     18  H   UNL     1      -7.176  -7.821  -5.328  0.00  0.00    +0.145 HD
ENDBRANCH   6  14
ENDBRANCH   3   5
BRANCH   1  19
ATOM     19  C   UNL     1      -3.452  -3.834  -2.267  0.00  0.00    +0.180 C 
BRANCH  19  23
ATOM     20  N   UNL     1      -1.095  -0.937  -0.287  0.00  0.00    +0.389 N 
ATOM     21  C   UNL     1      -0.561  -2.300  -0.401  0.00  0.00    -0.062 C 
ATOM     22  C   UNL     1      -1.707  -3.275  -0.683  0.00  0.00    +0.066 C 
ATOM     23  N   UNL     1      -2.380  -2.888  -1.931  0.00  0.00    -0.298 NA
ATOM     24  C   UNL     1      -2.898  -1.515  -1.841  0.00  0.00    +0.066 C 
ATOM     25  C   UNL     1      -1.743  -0.555  -1.549  0.00  0.00    -0.062 C 
ATOM     26  H   UNL     1      -1.772  -0.902   0.461  0.00  0.00    -0.081 HD
BRANCH  20  28
ATOM     27  C   UNL     1      -0.555   1.415   0.131  0.00  0.00    -0.004 C 
ATOM     28  C   UNL     1       0.002  -0.004   0.002  0.00  0.00    +0.016 C 
BRANCH  28  29
ATOM     29  C   UNL     1       0.671  -0.400   1.293  0.00  0.00    +0.199 C 
ATOM     30  O   UNL     1       0.037  -0.972   2.154  0.00  0.00    -0.278 OA
ATOM     31  N   UNL     1       1.974  -0.119   1.490  0.00  0.00    -0.314 N 
ATOM     32  H   UNL     1       2.482   0.338   0.801  0.00  0.00    +0.149 HD
BRANCH  31  33
ATOM     33  C   UNL     1       2.625  -0.504   2.745  0.00  0.00    +0.073 C 
ATOM     34  C   UNL     1       3.549   0.521   3.405  0.00  0.00    +0.024 C 
ATOM     35  C   UNL     1       4.140  -0.713   2.721  0.00  0.00    +0.024 C 
ENDBRANCH  31  33
ENDBRANCH  28  29
ENDBRANCH  20  28
ENDBRANCH  19  23
ENDBRANCH   1  19
TORSDOF 7
