REMARK  Name = ZINC39486228
REMARK  9 active torsions:
REMARK  status: ('A' for Active; 'I' for Inactive)
REMARK    1  A    between atoms: C_1  and  C_2
REMARK    2  A    between atoms: C_2  and  O_3
REMARK    3  A    between atoms: O_3  and  C_4
REMARK    4  A    between atoms: C_8  and  C_10
REMARK    5  A    between atoms: C_20  and  O_33
REMARK    6  A    between atoms: C_22  and  C_24
REMARK    7  A    between atoms: C_24  and  C_26
REMARK    8  A    between atoms: C_31  and  O_32
REMARK    9  A    between atoms: O_33  and  C_34
REMARK                            x       y       z     vdW  Elec       q    Type
REMARK                         _______ _______ _______ _____ _____    ______ ____
ROOT
ATOM      1  C   UNL     1       2.222  -4.257  -3.827  0.00  0.00    +0.063 C 
ATOM      2  C   UNL     1       1.249  -5.093  -4.612  0.00  0.00    -0.025 A 
ATOM      3  C   UNL     1      -0.068  -4.685  -4.699  0.00  0.00    +0.054 A 
ATOM      4  C   UNL     1      -0.991  -5.431  -5.418  0.00  0.00    +0.167 A 
ATOM      5  C   UNL     1      -0.594  -6.605  -6.063  0.00  0.00    +0.167 A 
ATOM      6  C   UNL     1       0.719  -7.022  -5.983  0.00  0.00    +0.061 A 
ATOM      7  C   UNL     1       1.647  -6.268  -5.255  0.00  0.00    +0.028 A 
ATOM      8  C   UNL     1       3.044  -6.724  -5.164  0.00  0.00    +0.193 C 
ATOM      9  O   UNL     1       3.368  -7.833  -5.532  0.00  0.00    -0.289 OA
ATOM     10  C   UNL     1       4.063  -5.759  -4.594  0.00  0.00    +0.200 C 
ATOM     11  C   UNL     1       3.422  -5.085  -3.374  0.00  0.00    +0.108 C 
ATOM     12  O   UNL     1      -1.679  -7.144  -6.692  0.00  0.00    -0.453 OA
ATOM     13  C   UNL     1      -2.824  -6.514  -6.089  0.00  0.00    +0.466 C 
ATOM     14  O   UNL     1      -2.321  -5.240  -5.646  0.00  0.00    -0.453 OA
ENDROOT
BRANCH   1  19
ATOM     15  C   UNL     1       0.777  -1.810  -1.336  0.00  0.00    +0.121 A 
ATOM     16  C   UNL     1       0.243  -2.669  -0.386  0.00  0.00    +0.045 A 
ATOM     17  C   UNL     1       0.351  -4.036  -0.554  0.00  0.00    +0.004 A 
ATOM     18  C   UNL     1       0.991  -4.548  -1.667  0.00  0.00    +0.004 A 
ATOM     19  C   UNL     1       1.525  -3.695  -2.615  0.00  0.00    -0.036 A 
ATOM     20  C   UNL     1       1.414  -2.327  -2.455  0.00  0.00    +0.050 A 
BRANCH  15  21
ATOM     21  O   UNL     1       0.671  -0.465  -1.174  0.00  0.00    -0.492 OA
BRANCH  21  23
ATOM     22  C   UNL     1      -0.019   1.526   0.010  0.00  0.00    +0.048 C 
ATOM     23  C   UNL     1       0.002  -0.004   0.002  0.00  0.00    +0.225 C 
ENDBRANCH  21  23
ENDBRANCH  15  21
ENDBRANCH   1  19
BRANCH  11  24
ATOM     24  C   UNL     1       4.432  -4.185  -2.709  0.00  0.00    +0.173 C 
ATOM     25  O   UNL     1       4.466  -3.004  -2.985  0.00  0.00    -0.292 OA
BRANCH  24  26
ATOM     26  C   UNL     1       5.373  -4.738  -1.728  0.00  0.00    +0.059 A 
ATOM     27  C   UNL     1       5.341  -6.101  -1.411  0.00  0.00    +0.015 A 
ATOM     28  C   UNL     1       6.228  -6.612  -0.490  0.00  0.00    +0.001 A 
ATOM     29  C   UNL     1       7.154  -5.784   0.125  0.00  0.00    +0.004 A 
ATOM     30  C   UNL     1       7.197  -4.437  -0.177  0.00  0.00    +0.046 A 
ATOM     31  C   UNL     1       6.317  -3.904  -1.106  0.00  0.00    +0.127 A 
BRANCH  31  32
ATOM     32  O   UNL     1       6.362  -2.583  -1.408  0.00  0.00    -0.506 OA
ATOM     33  H   UNL     1       5.799  -2.031  -0.848  0.00  0.00    +0.292 HD
ENDBRANCH  31  32
ENDBRANCH  24  26
ENDBRANCH  11  24
BRANCH  10  34
ATOM     34  O   UNL     1       4.403  -4.776  -5.573  0.00  0.00    -0.371 OA
ATOM     35  C   UNL     1       5.507  -5.141  -6.404  0.00  0.00    +0.195 C 
ENDBRANCH  10  34
TORSDOF 7
