REMARK  Name = ZINC24494951
REMARK  10 active torsions:
REMARK  status: ('A' for Active; 'I' for Inactive)
REMARK    1  A    between atoms: C_1  and  C_2
REMARK    2  A    between atoms: C_2  and  C_3
REMARK    3  A    between atoms: C_2  and  C_4
REMARK    4  A    between atoms: C_2  and  O_5
REMARK    5  A    between atoms: O_5  and  C_6
REMARK    6  A    between atoms: N_8  and  C_9
REMARK    7  A    between atoms: C_9  and  C_16
REMARK    8  A    between atoms: C_16  and  N_17
REMARK    9  A    between atoms: C_18  and  C_20
REMARK   10  A    between atoms: C_26  and  C_28
REMARK                            x       y       z     vdW  Elec       q    Type
REMARK                         _______ _______ _______ _____ _____    ______ ____
ROOT
ATOM      1  C   UNL     1       4.394   1.108  -2.173  0.00  0.00    +0.130 C 
ENDROOT
BRANCH   1   2
ATOM      2  C   UNL     1       4.258  -0.402  -2.376  0.00  0.00    +0.053 C 
ATOM      3  C   UNL     1       5.111  -1.126  -1.314  0.00  0.00    +0.027 C 
ATOM      4  C   UNL     1       4.602  -2.535  -1.173  0.00  0.00    +0.002 C 
ATOM      5  C   UNL     1       5.375  -3.532  -2.058  0.00  0.00    +0.000 C 
ATOM      6  C   UNL     1       5.670  -2.978  -3.465  0.00  0.00    +0.000 C 
ATOM      7  C   UNL     1       4.498  -2.234  -4.048  0.00  0.00    +0.002 C 
ATOM      8  C   UNL     1       4.665  -0.733  -3.734  0.00  0.00    +0.027 C 
BRANCH   2  11
ATOM      9  C   UNL     1       1.916  -0.311  -3.043  0.00  0.00    +0.401 C 
ATOM     10  O   UNL     1       2.219   0.497  -3.898  0.00  0.00    -0.226 OA
ATOM     11  N   UNL     1       2.854  -0.780  -2.196  0.00  0.00    -0.274 N 
ATOM     12  H   UNL     1       2.600  -1.368  -1.468  0.00  0.00    +0.153 HD
BRANCH   9  13
ATOM     13  O   UNL     1       0.644  -0.738  -2.941  0.00  0.00    -0.445 OA
BRANCH  13  15
ATOM     14  C   UNL     1       0.196  -0.597  -5.311  0.00  0.00    +0.055 C 
ATOM     15  C   UNL     1      -0.287  -0.240  -3.904  0.00  0.00    +0.107 C 
ATOM     16  C   UNL     1      -0.394   1.280  -3.772  0.00  0.00    +0.055 C 
ATOM     17  C   UNL     1      -1.659  -0.871  -3.661  0.00  0.00    +0.055 C 
ENDBRANCH  13  15
ENDBRANCH   9  13
ENDBRANCH   2  11
ENDBRANCH   1   2
BRANCH   1  18
ATOM     18  N   UNL     1       3.979   1.457  -0.812  0.00  0.00    -0.313 N 
ATOM     19  C   UNL     1       3.930   2.749  -0.433  0.00  0.00    +0.216 C 
ATOM     20  O   UNL     1       4.142   3.627  -1.242  0.00  0.00    -0.276 OA
ATOM     21  H   UNL     1       3.739   0.758  -0.184  0.00  0.00    +0.149 HD
BRANCH  19  22
ATOM     22  C   UNL     1       3.613   3.103   0.997  0.00  0.00    +0.078 C 
ATOM     23  C   UNL     1       2.266   2.490   1.387  0.00  0.00    +0.032 C 
ATOM     24  C   UNL     1       1.963   2.823   2.852  0.00  0.00    +0.109 C 
ATOM     25  N   UNL     1       2.038   4.279   3.031  0.00  0.00    -0.295 N 
ATOM     26  C   UNL     1       3.255   4.982   2.604  0.00  0.00    +0.109 C 
ATOM     27  C   UNL     1       3.544   4.625   1.143  0.00  0.00    +0.032 C 
ATOM     28  C   UNL     1       1.008   4.958   3.576  0.00  0.00    +0.282 C 
ATOM     29  O   UNL     1       0.051   4.355   4.023  0.00  0.00    -0.267 OA
BRANCH  28  30
ATOM     30  C   UNL     1       1.043   6.423   3.631  0.00  0.00    +0.189 A 
ATOM     31  C   UNL     1       0.141   7.223   4.271  0.00  0.00    +0.054 A 
ATOM     32  C   UNL     1       0.559   8.547   4.065  0.00  0.00    +0.042 A 
ATOM     33  C   UNL     1       1.683   8.498   3.317  0.00  0.00    +0.196 A 
ATOM     34  O   UNL     1       1.974   7.216   3.062  0.00  0.00    -0.458 OA
ENDBRANCH  28  30
ENDBRANCH  19  22
ENDBRANCH   1  18
TORSDOF 7
