REMARK  Name = ZINC47713923
REMARK  8 active torsions:
REMARK  status: ('A' for Active; 'I' for Inactive)
REMARK    1  A    between atoms: C_1  and  C_2
REMARK    2  A    between atoms: C_2  and  C_4
REMARK    3  A    between atoms: C_2  and  N_14
REMARK    4  A    between atoms: C_7  and  S_10
REMARK    5  A    between atoms: S_10  and  N_13
REMARK    6  A    between atoms: N_17  and  C_18
REMARK    7  A    between atoms: C_21  and  O_25
REMARK    8  A    between atoms: O_25  and  C_26
REMARK                            x       y       z     vdW  Elec       q    Type
REMARK                         _______ _______ _______ _____ _____    ______ ____
ROOT
ATOM      1  N   UNL     1       0.737  -0.334   1.233  0.00  0.00    -0.293 N 
ATOM      2  C   UNL     1       2.080  -0.445   1.234  0.00  0.00    +0.304 C 
ATOM      3  O   UNL     1       2.727  -0.002   0.305  0.00  0.00    -0.252 OA
ATOM      4  N   UNL     1       2.706  -1.046   2.266  0.00  0.00    -0.269 N 
ATOM      5  H   UNL     1       0.220  -0.688   1.974  0.00  0.00    +0.151 HD
ATOM      6  H   UNL     1       2.198  -1.331   3.042  0.00  0.00    +0.156 HD
ENDROOT
BRANCH   4   7
ATOM      7  C   UNL     1       4.090  -1.261   2.216  0.00  0.00    +0.038 A 
ATOM      8  C   UNL     1       4.841  -1.214   3.383  0.00  0.00    +0.027 A 
ATOM      9  C   UNL     1       6.205  -1.426   3.335  0.00  0.00    +0.050 A 
ATOM     10  C   UNL     1       6.825  -1.685   2.122  0.00  0.00    +0.162 A 
ATOM     11  C   UNL     1       6.075  -1.732   0.954  0.00  0.00    +0.167 A 
ATOM     12  C   UNL     1       4.708  -1.526   1.002  0.00  0.00    +0.065 A 
ATOM     13  F   UNL     1       6.679  -1.984  -0.227  0.00  0.00    -0.202 F 
BRANCH  10  14
ATOM     14  O   UNL     1       8.169  -1.894   2.076  0.00  0.00    -0.431 OA
BRANCH  14  15
ATOM     15  C   UNL     1       8.878  -1.831   3.315  0.00  0.00    +0.541 C 
ATOM     16  F   UNL     1       8.714  -0.562   3.882  0.00  0.00    -0.166 F 
ATOM     17  F   UNL     1       8.377  -2.801   4.189  0.00  0.00    -0.166 F 
ENDBRANCH  14  15
ENDBRANCH  10  14
ENDBRANCH   4   7
BRANCH   1  19
ATOM     18  C   UNL     1       0.034   1.832   0.342  0.00  0.00    +0.033 C 
ATOM     19  C   UNL     1       0.057   0.319   0.112  0.00  0.00    +0.102 C 
BRANCH  19  20
ATOM     20  C   UNL     1      -1.357  -0.195   0.013  0.00  0.00    -0.027 A 
ATOM     21  C   UNL     1      -2.096  -0.409   1.161  0.00  0.00    +0.007 A 
ATOM     22  C   UNL     1      -3.392  -0.881   1.070  0.00  0.00    +0.029 A 
ATOM     23  C   UNL     1      -3.949  -1.138  -0.169  0.00  0.00    +0.105 A 
ATOM     24  C   UNL     1      -3.210  -0.922  -1.317  0.00  0.00    +0.029 A 
ATOM     25  C   UNL     1      -1.915  -0.446  -1.226  0.00  0.00    +0.007 A 
BRANCH  23  26
ATOM     26  S   UNL     1      -5.601  -1.740  -0.284  0.00  0.00    +0.056 S 
ATOM     27  O   UNL     1      -5.700  -2.417  -1.530  0.00  0.00    -0.153 OA
ATOM     28  O   UNL     1      -5.889  -2.375   0.954  0.00  0.00    -0.153 OA
BRANCH  26  29
ATOM     29  N   UNL     1      -6.597  -0.421  -0.383  0.00  0.00    -0.204 NA
ATOM     30  H   UNL     1      -7.436  -0.481  -0.867  0.00  0.00    +0.144 HD
ATOM     31  H   UNL     1      -6.343   0.412   0.043  0.00  0.00    +0.144 HD
ENDBRANCH  26  29
ENDBRANCH  23  26
ENDBRANCH  19  20
ENDBRANCH   1  19
TORSDOF 7
