REMARK  Name = ZINC40847270
REMARK  9 active torsions:
REMARK  status: ('A' for Active; 'I' for Inactive)
REMARK    1  A    between atoms: C_4  and  N_10
REMARK    2  A    between atoms: C_5  and  C_7
REMARK    3  A    between atoms: C_11  and  C_13
REMARK    4  A    between atoms: C_13  and  C_14
REMARK    5  A    between atoms: C_14  and  C_15
REMARK    6  A    between atoms: C_15  and  C_16
REMARK    7  A    between atoms: C_16  and  C_17
REMARK    8  A    between atoms: C_17  and  N_18
REMARK    9  A    between atoms: C_25  and  N_29
REMARK                            x       y       z     vdW  Elec       q    Type
REMARK                         _______ _______ _______ _____ _____    ______ ____
ROOT
ATOM      1  C   UNL     1       8.410  -0.066  -0.641  0.00  0.00    +0.002 C 
ENDROOT
BRANCH   1   2
ATOM      2  C   UNL     1       7.047   0.613  -0.495  0.00  0.00    +0.009 C 
BRANCH   2   3
ATOM      3  C   UNL     1       5.960  -0.453  -0.344  0.00  0.00    +0.096 C 
BRANCH   3   5
ATOM      4  N   UNL     1       3.505  -0.531  -0.054  0.00  0.00    -0.285 N 
ATOM      5  C   UNL     1       4.617   0.215  -0.201  0.00  0.00    +0.217 C 
ATOM      6  O   UNL     1       4.537   1.425  -0.217  0.00  0.00    -0.275 OA
ATOM      7  H   UNL     1       3.576  -1.494   0.040  0.00  0.00    +0.155 HD
BRANCH   4  11
ATOM      8  C   UNL     1      -0.243   1.298  -0.009  0.00  0.00    +0.001 A 
ATOM      9  C   UNL     1       0.825   1.905  -0.651  0.00  0.00    +0.002 A 
ATOM     10  C   UNL     1       2.066   1.302  -0.667  0.00  0.00    +0.024 A 
ATOM     11  C   UNL     1       2.254   0.079  -0.038  0.00  0.00    +0.048 A 
ATOM     12  C   UNL     1       1.175  -0.540   0.614  0.00  0.00    +0.084 A 
ATOM     13  C   UNL     1      -0.077   0.084   0.621  0.00  0.00    +0.017 A 
BRANCH  12  14
ATOM     14  C   UNL     1       1.360  -1.837   1.284  0.00  0.00    +0.388 C 
ATOM     15  O   UNL     1       0.398  -2.418   1.767  0.00  0.00    -0.241 OA
ATOM     16  O   UNL     1       2.475  -2.334   1.358  0.00  0.00    -0.241 OA
ENDBRANCH  12  14
ENDBRANCH   4  11
ENDBRANCH   3   5
ENDBRANCH   2   3
ENDBRANCH   1   2
BRANCH   1  17
ATOM     17  C   UNL     1       9.497   1.000  -0.791  0.00  0.00    +0.019 C 
BRANCH  17  18
ATOM     18  C   UNL     1      10.861   0.322  -0.937  0.00  0.00    +0.117 C 
BRANCH  18  19
ATOM     19  N   UNL     1      11.901   1.343  -1.081  0.00  0.00    -0.234 N 
ATOM     20  C   UNL     1      12.309   1.854  -2.257  0.00  0.00    +0.254 C 
ATOM     21  O   UNL     1      11.878   1.547  -3.350  0.00  0.00    -0.270 OA
ATOM     22  C   UNL     1      13.367   2.852  -1.995  0.00  0.00    +0.052 A 
ATOM     23  C   UNL     1      14.139   3.678  -2.797  0.00  0.00    +0.014 A 
ATOM     24  C   UNL     1      15.072   4.522  -2.217  0.00  0.00    +0.003 A 
ATOM     25  C   UNL     1      15.239   4.546  -0.845  0.00  0.00    +0.033 A 
ATOM     26  C   UNL     1      14.474   3.725  -0.030  0.00  0.00    +0.139 A 
ATOM     27  C   UNL     1      13.537   2.876  -0.596  0.00  0.00    +0.080 A 
ATOM     28  C   UNL     1      12.572   1.896  -0.054  0.00  0.00    +0.256 C 
ATOM     29  O   UNL     1      12.412   1.633   1.120  0.00  0.00    -0.269 OA
BRANCH  26  30
ATOM     30  N   UNL     1      14.658   3.757   1.438  0.00  0.00    +0.057 N 
ATOM     31  O   UNL     1      15.476   4.499   1.929  0.00  0.00    -0.126 OA
ATOM     32  O   UNL     1      13.990   3.041   2.147  0.00  0.00    -0.126 OA
ENDBRANCH  26  30
ENDBRANCH  18  19
ENDBRANCH  17  18
ENDBRANCH   1  17
TORSDOF 9
