REMARK  Name = ZINC03236245
REMARK  5 active torsions:
REMARK  status: ('A' for Active; 'I' for Inactive)
REMARK    1  A    between atoms: C_1  and  C_2
REMARK    2  A    between atoms: C_5  and  N_23
REMARK    3  A    between atoms: C_7  and  N_8
REMARK    4  A    between atoms: C_9  and  C_11
REMARK    5  A    between atoms: C_11  and  C_16
REMARK                            x       y       z     vdW  Elec       q    Type
REMARK                         _______ _______ _______ _____ _____    ______ ____
ROOT
ATOM      1  N   UNL     1      -0.441   2.966  -3.284  0.00  0.00    -0.284 N 
ATOM      2  C   UNL     1       0.113   2.194  -2.329  0.00  0.00    +0.228 C 
ATOM      3  O   UNL     1       1.319   2.151  -2.207  0.00  0.00    -0.275 OA
ATOM      4  H   UNL     1      -1.406   3.014  -3.370  0.00  0.00    +0.155 HD
ENDROOT
BRANCH   1  11
ATOM      5  C   UNL     1      -1.494   3.695  -5.825  0.00  0.00    +0.045 C 
ATOM      6  C   UNL     1      -0.099   4.074  -5.403  0.00  0.00    -0.029 A 
ATOM      7  C   UNL     1       0.708   4.802  -6.256  0.00  0.00    +0.007 A 
ATOM      8  C   UNL     1       1.991   5.145  -5.871  0.00  0.00    +0.033 A 
ATOM      9  C   UNL     1       2.469   4.767  -4.630  0.00  0.00    +0.128 A 
ATOM     10  C   UNL     1       1.665   4.045  -3.770  0.00  0.00    +0.056 A 
ATOM     11  C   UNL     1       0.376   3.698  -4.153  0.00  0.00    +0.038 A 
BRANCH   9  12
ATOM     12  N   UNL     1       3.843   5.137  -4.222  0.00  0.00    +0.056 N 
ATOM     13  O   UNL     1       4.264   4.804  -3.129  0.00  0.00    -0.126 OA
ATOM     14  O   UNL     1       4.552   5.774  -4.980  0.00  0.00    -0.126 OA
ENDBRANCH   9  12
ENDBRANCH   1  11
BRANCH   2  15
ATOM     15  C   UNL     1      -0.766   1.384  -1.411  0.00  0.00    +0.072 C 
ATOM     16  C   UNL     1       0.085   0.724  -0.312  0.00  0.00    +0.021 C 
ATOM     17  C   UNL     1      -0.433   1.268   1.035  0.00  0.00    +0.001 C 
ATOM     18  C   UNL     1      -1.102   2.617   0.667  0.00  0.00    +0.001 C 
ATOM     19  C   UNL     1      -1.774   2.306  -0.694  0.00  0.00    +0.021 C 
BRANCH  15  20
ATOM     20  C   UNL     1      -1.501   0.329  -2.197  0.00  0.00    -0.032 A 
ATOM     21  C   UNL     1      -2.493  -0.419  -1.591  0.00  0.00    +0.006 A 
ATOM     22  C   UNL     1      -3.171  -1.383  -2.314  0.00  0.00    +0.020 A 
ATOM     23  C   UNL     1      -2.849  -1.606  -3.640  0.00  0.00    +0.041 A 
ATOM     24  C   UNL     1      -1.852  -0.861  -4.245  0.00  0.00    +0.020 A 
ATOM     25  C   UNL     1      -1.179   0.106  -3.523  0.00  0.00    +0.006 A 
ATOM     26 CL   UNL     1      -3.696  -2.821  -4.547  0.00  0.00    -0.084 Cl
ENDBRANCH  15  20
ENDBRANCH   2  15
TORSDOF 4
