REMARK  Name = ZINC08918058
REMARK  4 active torsions:
REMARK  status: ('A' for Active; 'I' for Inactive)
REMARK    1  A    between atoms: C_1  and  C_2
REMARK    2  A    between atoms: C_5  and  N_9
REMARK    3  A    between atoms: C_26  and  C_34
REMARK    4  A    between atoms: C_28  and  C_33
REMARK                            x       y       z     vdW  Elec       q    Type
REMARK                         _______ _______ _______ _____ _____    ______ ____
ROOT
ATOM      1  N   UNL     1      -1.793   2.421   0.692  0.00  0.00    -0.209 N 
ATOM      2  C   UNL     1      -0.870   1.554   1.166  0.00  0.00    +0.228 C 
ATOM      3  O   UNL     1      -0.710   1.246   2.328  0.00  0.00    -0.275 OA
ATOM      4  C   UNL     1      -0.065   1.022   0.002  0.00  0.00    +0.074 C 
ATOM      5  C   UNL     1       1.383   1.536   0.103  0.00  0.00    -0.054 C 
ATOM      6  C   UNL     1       1.703   1.873   1.571  0.00  0.00    -0.016 C 
ATOM      7  C   UNL     1       1.329   3.387   1.711  0.00  0.00    -0.020 C 
ATOM      8  C   UNL     1       0.795   3.807   0.327  0.00  0.00    -0.076 C 
ATOM      9  C   UNL     1       0.467   2.629  -1.759  0.00  0.00    +0.053 C 
ATOM     10  C   UNL     1      -0.669   1.746  -1.232  0.00  0.00    +0.089 C 
ATOM     11  C   UNL     1      -1.764   2.601  -0.633  0.00  0.00    +0.229 C 
ATOM     12  O   UNL     1      -2.499   3.336  -1.257  0.00  0.00    -0.275 OA
ATOM     13  C   UNL     1      -0.056   3.934  -2.291  0.00  0.00    -0.027 A 
ATOM     14  C   UNL     1      -0.773   4.967  -1.730  0.00  0.00    +0.008 A 
ATOM     15  C   UNL     1      -1.116   6.067  -2.494  0.00  0.00    -0.050 A 
ATOM     16  C   UNL     1      -0.737   6.128  -3.823  0.00  0.00    +0.008 A 
ATOM     17  C   UNL     1      -0.018   5.095  -4.390  0.00  0.00    -0.029 A 
ATOM     18  C   UNL     1       0.331   3.983  -3.627  0.00  0.00    +0.039 A 
ATOM     19  N   UNL     1       1.043   2.830  -3.966  0.00  0.00    -0.286 N 
ATOM     20  C   UNL     1       1.167   1.985  -2.925  0.00  0.00    +0.212 C 
ATOM     21  O   UNL     1       1.732   0.912  -2.927  0.00  0.00    -0.277 OA
ATOM     22  C   UNL     1       0.390   5.171  -5.838  0.00  0.00    +0.045 C 
ATOM     23  C   UNL     1      -1.902   7.198  -1.881  0.00  0.00    +0.044 C 
ATOM     24  H   UNL     1       1.406   2.659  -4.849  0.00  0.00    +0.155 HD
ATOM     25  N   UNL     1       1.349   2.798  -0.600  0.00  0.00    +0.395 N 
ATOM     26  H   UNL     1       2.290   3.074  -0.906  0.00  0.00    -0.079 HD
ENDROOT
BRANCH   1  31
ATOM     27  C   UNL     1      -5.476   5.111   4.072  0.00  0.00    +0.044 C 
ATOM     28  C   UNL     1      -4.498   4.396   3.175  0.00  0.00    -0.049 A 
ATOM     29  C   UNL     1      -3.277   4.976   2.885  0.00  0.00    +0.005 A 
ATOM     30  C   UNL     1      -2.379   4.324   2.063  0.00  0.00    +0.025 A 
ATOM     31  C   UNL     1      -2.703   3.085   1.528  0.00  0.00    +0.058 A 
ATOM     32  C   UNL     1      -3.932   2.507   1.816  0.00  0.00    +0.040 A 
ATOM     33  C   UNL     1      -4.825   3.163   2.643  0.00  0.00    +0.020 A 
ATOM     34 BR   UNL     1      -4.382   0.823   1.084  0.00  0.00    -0.048 Br
ENDBRANCH   1  31
TORSDOF 1
