REMARK  Name = ZINC13418043
REMARK  9 active torsions:
REMARK  status: ('A' for Active; 'I' for Inactive)
REMARK    1  A    between atoms: C_1  and  C_2
REMARK    2  A    between atoms: C_4  and  C_16
REMARK    3  A    between atoms: C_12  and  C_13
REMARK    4  A    between atoms: C_16  and  S_17
REMARK    5  A    between atoms: S_17  and  C_18
REMARK    6  A    between atoms: C_21  and  C_24
REMARK    7  A    between atoms: N_22  and  C_23
REMARK    8  A    between atoms: C_24  and  O_25
REMARK    9  A    between atoms: O_25  and  C_26
REMARK                            x       y       z     vdW  Elec       q    Type
REMARK                         _______ _______ _______ _____ _____    ______ ____
ROOT
ATOM      1  C   UNL     1      -0.270   1.274  -2.754  0.00  0.00    +0.113 C 
ENDROOT
BRANCH   1   5
ATOM      2  C   UNL     1       0.677   1.499  -0.145  0.00  0.00    +0.046 C 
ATOM      3  C   UNL     1       0.638  -0.008  -0.140  0.00  0.00    -0.020 A 
ATOM      4  C   UNL     1       0.212  -0.733  -1.264  0.00  0.00    +0.014 A 
ATOM      5  C   UNL     1      -0.228  -0.215  -2.524  0.00  0.00    -0.022 A 
ATOM      6  C   UNL     1      -0.607  -1.061  -3.509  0.00  0.00    +0.075 A 
ATOM      7  C   UNL     1      -0.574  -2.454  -3.312  0.00  0.00    +0.250 A 
ATOM      8  O   UNL     1      -0.919  -3.206  -4.209  0.00  0.00    -0.268 OA
ATOM      9  N   UNL     1      -0.162  -2.957  -2.132  0.00  0.00    -0.317 N 
ATOM     10  H   UNL     1      -0.141  -3.917  -1.999  0.00  0.00    +0.169 HD
ATOM     11  C   UNL     1       0.224  -2.130  -1.126  0.00  0.00    +0.089 A 
ATOM     12  S   UNL     1       0.777  -2.410   0.428  0.00  0.00    -0.064 S 
ATOM     13  C   UNL     1       1.020  -0.727   0.957  0.00  0.00    +0.106 A 
BRANCH  13  14
ATOM     14  C   UNL     1       1.492  -0.251   2.207  0.00  0.00    +0.393 C 
ATOM     15  O   UNL     1       1.597   0.954   2.403  0.00  0.00    -0.240 OA
ATOM     16  O   UNL     1       1.794  -1.044   3.090  0.00  0.00    -0.240 OA
ENDBRANCH  13  14
ENDBRANCH   1   5
BRANCH   1  17
ATOM     17  S   UNL     1      -1.835   1.939  -2.123  0.00  0.00    -0.081 S 
BRANCH  17  18
ATOM     18  C   UNL     1      -1.732   3.666  -2.460  0.00  0.00    +0.192 A 
ATOM     19  N   UNL     1      -0.735   4.288  -3.044  0.00  0.00    -0.122 NA
ATOM     20  N   UNL     1      -0.994   5.544  -3.129  0.00  0.00    -0.130 NA
ATOM     21  C   UNL     1      -2.162   5.796  -2.609  0.00  0.00    +0.172 A 
ATOM     22  N   UNL     1      -2.677   4.607  -2.170  0.00  0.00    -0.306 N 
ATOM     23  C   UNL     1      -3.972   4.391  -1.519  0.00  0.00    +0.153 C 
BRANCH  21  24
ATOM     24  C   UNL     1      -2.826   7.146  -2.515  0.00  0.00    +0.305 C 
BRANCH  24  25
ATOM     25  O   UNL     1      -3.614   7.372  -3.686  0.00  0.00    -0.484 OA
BRANCH  25  26
ATOM     26  C   UNL     1      -4.284   8.552  -3.760  0.00  0.00    +0.121 A 
ATOM     27  C   UNL     1      -4.180   9.476  -2.731  0.00  0.00    +0.047 A 
ATOM     28  C   UNL     1      -4.861  10.675  -2.808  0.00  0.00    +0.023 A 
ATOM     29  C   UNL     1      -5.647  10.955  -3.912  0.00  0.00    +0.041 A 
ATOM     30  C   UNL     1      -5.753  10.034  -4.940  0.00  0.00    +0.023 A 
ATOM     31  C   UNL     1      -5.067   8.837  -4.869  0.00  0.00    +0.047 A 
ATOM     32 CL   UNL     1      -6.503  12.462  -4.007  0.00  0.00    -0.084 Cl
ENDBRANCH  25  26
ENDBRANCH  24  25
ENDBRANCH  21  24
ENDBRANCH  17  18
ENDBRANCH   1  17
TORSDOF 7
