REMARK  Name = ZINC16254856
REMARK  8 active torsions:
REMARK  status: ('A' for Active; 'I' for Inactive)
REMARK    1  A    between atoms: C_1  and  C_2
REMARK    2  A    between atoms: C_2  and  N_3
REMARK    3  A    between atoms: C_12  and  S_13
REMARK    4  A    between atoms: S_13  and  C_14
REMARK    5  A    between atoms: C_14  and  C_15
REMARK    6  A    between atoms: C_15  and  C_17
REMARK    7  A    between atoms: C_18  and  N_29
REMARK    8  A    between atoms: N_19  and  C_26
REMARK                            x       y       z     vdW  Elec       q    Type
REMARK                         _______ _______ _______ _____ _____    ______ ____
ROOT
ATOM      1  C   UNL     1       3.651  -4.091  -1.241  0.00  0.00    +0.157 C 
ENDROOT
BRANCH   1   2
ATOM      2  C   UNL     1       4.310  -5.349  -0.736  0.00  0.00    +0.182 C 
ATOM      3  O   UNL     1       5.518  -5.398  -0.622  0.00  0.00    -0.291 OA
BRANCH   2   4
ATOM      4  C   UNL     1       3.523  -6.470  -0.397  0.00  0.00    +0.120 A 
ATOM      5  C   UNL     1       4.118  -7.698  -0.059  0.00  0.00    +0.116 A 
ATOM      6  N   UNL     1       3.314  -8.754   0.267  0.00  0.00    -0.278 N 
ATOM      7  C   UNL     1       1.977  -8.641   0.260  0.00  0.00    +0.331 A 
ATOM      8  O   UNL     1       1.306  -9.611   0.554  0.00  0.00    -0.246 OA
ATOM      9  N   UNL     1       1.353  -7.495  -0.059  0.00  0.00    -0.274 N 
ATOM     10  H   UNL     1       0.354  -7.459  -0.051  0.00  0.00    +0.173 HD
ATOM     11  C   UNL     1       2.056  -6.393  -0.391  0.00  0.00    +0.266 A 
ATOM     12  O   UNL     1       1.488  -5.357  -0.680  0.00  0.00    -0.267 OA
BRANCH   6  13
ATOM     13  C   UNL     1       3.925 -10.036   0.627  0.00  0.00    +0.094 C 
ATOM     14  C   UNL     1       3.404 -10.739   1.882  0.00  0.00    +0.027 C 
ATOM     15  C   UNL     1       4.785 -10.079   1.891  0.00  0.00    +0.027 C 
ENDBRANCH   6  13
BRANCH   5  16
ATOM     16  N   UNL     1       5.472  -7.832  -0.053  0.00  0.00    -0.344 N 
ATOM     17  H   UNL     1       6.035  -7.059   0.107  0.00  0.00    +0.144 HD
ATOM     18  H   UNL     1       5.874  -8.701  -0.208  0.00  0.00    +0.144 HD
ENDBRANCH   5  16
ENDBRANCH   2   4
ENDBRANCH   1   2
BRANCH   1  19
ATOM     19  S   UNL     1       4.917  -2.844  -1.587  0.00  0.00    -0.080 S 
BRANCH  19  29
ATOM     20  N   UNL     1       4.489  -0.351  -2.516  0.00  0.00    -0.288 N 
ATOM     21  C   UNL     1       3.791   0.721  -2.957  0.00  0.00    +0.263 A 
ATOM     22  O   UNL     1       4.339   1.760  -3.285  0.00  0.00    -0.267 OA
ATOM     23  C   UNL     1       2.368   0.561  -3.014  0.00  0.00    +0.076 A 
ATOM     24  C   UNL     1       1.399   1.554  -3.450  0.00  0.00    -0.023 A 
ATOM     25  C   UNL     1       0.099   1.185  -3.422  0.00  0.00    -0.004 A 
ATOM     26  S   UNL     1       0.101  -0.486  -2.821  0.00  0.00    -0.073 S 
ATOM     27  C   UNL     1       1.842  -0.686  -2.609  0.00  0.00    +0.117 A 
ATOM     28  N   UNL     1       2.584  -1.702  -2.185  0.00  0.00    -0.216 NA
ATOM     29  C   UNL     1       3.897  -1.520  -2.144  0.00  0.00    +0.173 A 
ATOM     30  C   UNL     1      -1.088   2.013  -3.809  0.00  0.00    +0.043 C 
ATOM     31  C   UNL     1      -0.648   3.479  -3.910  0.00  0.00    +0.005 C 
ATOM     32  C   UNL     1       0.647   3.550  -4.725  0.00  0.00    +0.005 C 
ATOM     33  C   UNL     1       1.800   2.949  -3.920  0.00  0.00    +0.037 C 
BRANCH  20  35
ATOM     34  C   UNL     1       6.348   0.271  -1.053  0.00  0.00    +0.027 C 
ATOM     35  C   UNL     1       5.949  -0.251  -2.435  0.00  0.00    +0.124 C 
ENDBRANCH  20  35
ENDBRANCH  19  29
ENDBRANCH   1  19
TORSDOF 7
