REMARK  Name = ZINC13205908
REMARK  9 active torsions:
REMARK  status: ('A' for Active; 'I' for Inactive)
REMARK    1  A    between atoms: C_1  and  C_2
REMARK    2  A    between atoms: C_6  and  C_8
REMARK    3  A    between atoms: C_11  and  S_16
REMARK    4  A    between atoms: N_12  and  C_13
REMARK    5  A    between atoms: C_13  and  C_14
REMARK    6  A    between atoms: S_16  and  C_17
REMARK    7  A    between atoms: C_17  and  C_18
REMARK    8  A    between atoms: N_20  and  C_21
REMARK    9  A    between atoms: C_26  and  N_27
REMARK                            x       y       z     vdW  Elec       q    Type
REMARK                         _______ _______ _______ _____ _____    ______ ____
ROOT
ATOM      1  S   UNL     1       2.822   0.960  -0.174  0.00  0.00    -0.077 S 
ENDROOT
BRANCH   1   5
ATOM      2  C   UNL     1       5.979   3.199   0.366  0.00  0.00    +0.165 A 
ATOM      3  N   UNL     1       4.999   4.073   0.381  0.00  0.00    -0.128 NA
ATOM      4  N   UNL     1       3.875   3.475   0.211  0.00  0.00    -0.122 NA
ATOM      5  C   UNL     1       4.067   2.182   0.079  0.00  0.00    +0.193 A 
ATOM      6  N   UNL     1       5.411   1.960   0.178  0.00  0.00    -0.291 N 
BRANCH   2  12
ATOM      7  C   UNL     1       9.624   6.296   1.787  0.00  0.00    +0.044 C 
ATOM      8  C   UNL     1       9.177   4.978   1.210  0.00  0.00    -0.050 A 
ATOM      9  C   UNL     1      10.117   4.036   0.830  0.00  0.00    +0.003 A 
ATOM     10  C   UNL     1       9.715   2.823   0.300  0.00  0.00    +0.001 A 
ATOM     11  C   UNL     1       8.372   2.545   0.147  0.00  0.00    +0.011 A 
ATOM     12  C   UNL     1       7.419   3.490   0.528  0.00  0.00    +0.020 A 
ATOM     13  C   UNL     1       7.831   4.714   1.058  0.00  0.00    +0.015 A 
ENDBRANCH   2  12
BRANCH   6  14
ATOM     14  C   UNL     1       6.104   0.672   0.099  0.00  0.00    +0.250 C 
BRANCH  14  15
ATOM     15  C   UNL     1       6.491   0.397  -1.332  0.00  0.00    +0.375 C 
ATOM     16  O   UNL     1       6.216   1.196  -2.196  0.00  0.00    -0.244 OA
ATOM     17  O   UNL     1       7.141  -0.734  -1.646  0.00  0.00    -0.244 OA
ENDBRANCH  14  15
ENDBRANCH   6  14
ENDBRANCH   1   5
BRANCH   1  18
ATOM     18  C   UNL     1       1.349   2.011  -0.184  0.00  0.00    +0.173 C 
BRANCH  18  19
ATOM     19  C   UNL     1       0.124   1.157  -0.392  0.00  0.00    +0.228 C 
ATOM     20  O   UNL     1       0.237  -0.044  -0.520  0.00  0.00    -0.275 OA
ATOM     21  N   UNL     1      -1.095   1.728  -0.440  0.00  0.00    -0.283 N 
ATOM     22  H   UNL     1      -1.193   2.679  -0.274  0.00  0.00    +0.155 HD
BRANCH  21  23
ATOM     23  C   UNL     1      -2.222   0.950  -0.730  0.00  0.00    +0.061 A 
ATOM     24  C   UNL     1      -2.241  -0.397  -0.396  0.00  0.00    +0.045 A 
ATOM     25  C   UNL     1      -3.357  -1.163  -0.679  0.00  0.00    +0.043 A 
ATOM     26  C   UNL     1      -4.453  -0.592  -1.304  0.00  0.00    +0.022 A 
ATOM     27  C   UNL     1      -4.439   0.747  -1.644  0.00  0.00    +0.031 A 
ATOM     28  C   UNL     1      -3.325   1.524  -1.359  0.00  0.00    +0.088 A 
ATOM     29 CL   UNL     1      -3.382  -2.846  -0.255  0.00  0.00    -0.083 Cl
BRANCH  28  30
ATOM     30  N   UNL     1      -3.310   2.884  -1.704  0.00  0.00    -0.218 N 
ATOM     31  C   UNL     1      -4.332   3.600  -2.211  0.00  0.00    +0.225 A 
ATOM     32  N   UNL     1      -3.915   4.828  -2.392  0.00  0.00    -0.222 NA
ATOM     33  C   UNL     1      -2.639   4.931  -2.024  0.00  0.00    +0.245 A 
ATOM     34  N   UNL     1      -2.224   3.767  -1.596  0.00  0.00    -0.153 NA
ENDBRANCH  28  30
ENDBRANCH  21  23
ENDBRANCH  18  19
ENDBRANCH   1  18
TORSDOF 8
