REMARK  Name = ZINC58573733
REMARK  16 active torsions:
REMARK  status: ('A' for Active; 'I' for Inactive)
REMARK    1  A    between atoms: C_1  and  C_2
REMARK    2  A    between atoms: C_2  and  C_3
REMARK    3  A    between atoms: C_2  and  C_4
REMARK    4  A    between atoms: C_4  and  C_5
REMARK    5  A    between atoms: C_5  and  N_6
REMARK    6  A    between atoms: N_6  and  C_7
REMARK    7  A    between atoms: C_7  and  C_8
REMARK    8  A    between atoms: C_8  and  C_9
REMARK    9  A    between atoms: C_9  and  C_10
REMARK   10  A    between atoms: C_9  and  C_11
REMARK   11  A    between atoms: C_12  and  C_14
REMARK   12  A    between atoms: C_14  and  O_15
REMARK   13  A    between atoms: O_15  and  C_16
REMARK   14  A    between atoms: C_19  and  S_25
REMARK   15  A    between atoms: C_21  and  N_22
REMARK   16  A    between atoms: S_25  and  N_28
REMARK                            x       y       z     vdW  Elec       q    Type
REMARK                         _______ _______ _______ _____ _____    ______ ____
ROOT
ATOM      1  O   UNL     1      -5.183  -3.704   2.411  0.00  0.00    -0.480 OA
ENDROOT
BRANCH   1   2
ATOM      2  C   UNL     1      -6.440  -4.185   2.598  0.00  0.00    +0.151 A 
ATOM      3  C   UNL     1      -7.276  -4.388   1.509  0.00  0.00    +0.050 A 
ATOM      4  C   UNL     1      -8.553  -4.878   1.701  0.00  0.00    +0.032 A 
ATOM      5  C   UNL     1      -8.998  -5.167   2.978  0.00  0.00    +0.107 A 
ATOM      6  C   UNL     1      -8.168  -4.966   4.065  0.00  0.00    +0.065 A 
ATOM      7  C   UNL     1      -6.888  -4.481   3.877  0.00  0.00    +0.169 A 
BRANCH   7   8
ATOM      8  N   UNL     1      -5.997  -4.271   5.040  0.00  0.00    +0.060 N 
ATOM      9  O   UNL     1      -6.388  -4.529   6.155  0.00  0.00    -0.126 OA
ATOM     10  O   UNL     1      -4.879  -3.842   4.876  0.00  0.00    -0.126 OA
ENDBRANCH   7   8
BRANCH   5  11
ATOM     11  S   UNL     1     -10.628  -5.793   3.220  0.00  0.00    +0.056 S 
ATOM     12  O   UNL     1     -10.993  -5.468   4.554  0.00  0.00    -0.153 OA
ATOM     13  O   UNL     1     -11.393  -5.376   2.098  0.00  0.00    -0.153 OA
BRANCH  11  14
ATOM     14  N   UNL     1     -10.535  -7.444   3.143  0.00  0.00    -0.204 NA
ATOM     15  H   UNL     1      -9.680  -7.875   2.988  0.00  0.00    +0.144 HD
ATOM     16  H   UNL     1     -11.335  -7.981   3.254  0.00  0.00    +0.144 HD
ENDBRANCH  11  14
ENDBRANCH   5  11
ENDBRANCH   1   2
BRANCH   1  17
ATOM     17  C   UNL     1      -4.790  -3.421   1.067  0.00  0.00    +0.324 C 
BRANCH  17  19
ATOM     18  N   UNL     1      -2.790  -2.565  -0.111  0.00  0.00    -0.299 N 
ATOM     19  C   UNL     1      -3.376  -2.900   1.056  0.00  0.00    +0.253 C 
ATOM     20  O   UNL     1      -2.765  -2.781   2.097  0.00  0.00    -0.272 OA
BRANCH  18  21
ATOM     21  C   UNL     1      -1.416  -2.058  -0.121  0.00  0.00    +0.108 C 
BRANCH  21  22
ATOM     22  C   UNL     1      -1.433  -0.534   0.013  0.00  0.00    +0.022 C 
BRANCH  22  24
ATOM     23  C   UNL     1      -0.019   1.526   0.010  0.00  0.00    +0.007 C 
ATOM     24  C   UNL     1       0.002  -0.004   0.002  0.00  0.00    -0.016 C 
ATOM     25  C   UNL     1       0.742  -0.511   1.242  0.00  0.00    +0.007 C 
ENDBRANCH  22  24
ENDBRANCH  21  22
ENDBRANCH  18  21
BRANCH  18  26
ATOM     26  C   UNL     1      -3.528  -2.708  -1.369  0.00  0.00    +0.108 C 
BRANCH  26  27
ATOM     27  C   UNL     1      -3.288  -4.105  -1.944  0.00  0.00    +0.022 C 
BRANCH  27  28
ATOM     28  C   UNL     1      -4.059  -4.254  -3.257  0.00  0.00    -0.016 C 
ATOM     29  C   UNL     1      -3.489  -3.286  -4.296  0.00  0.00    +0.007 C 
ATOM     30  C   UNL     1      -3.921  -5.690  -3.769  0.00  0.00    +0.007 C 
ENDBRANCH  27  28
ENDBRANCH  26  27
ENDBRANCH  18  26
ENDBRANCH  17  19
ENDBRANCH   1  17
TORSDOF 12
