REMARK  Name = ZINC36584115
REMARK  14 active torsions:
REMARK  status: ('A' for Active; 'I' for Inactive)
REMARK    1  A    between atoms: C_1  and  C_2
REMARK    2  A    between atoms: C_5  and  S_8
REMARK    3  A    between atoms: S_8  and  C_11
REMARK    4  A    between atoms: C_11  and  N_12
REMARK    5  A    between atoms: C_13  and  C_15
REMARK    6  A    between atoms: C_15  and  C_17
REMARK    7  A    between atoms: C_15  and  N_24
REMARK    8  A    between atoms: C_22  and  O_23
REMARK    9  A    between atoms: N_24  and  C_34
REMARK   10  A    between atoms: C_25  and  C_27
REMARK   11  A    between atoms: C_32  and  O_33
REMARK   12  A    between atoms: C_34  and  C_35
REMARK   13  A    between atoms: C_34  and  C_36
REMARK   14  A    between atoms: C_34  and  C_37
REMARK                            x       y       z     vdW  Elec       q    Type
REMARK                         _______ _______ _______ _____ _____    ______ ____
ROOT
ATOM      1  C   UNL     1       1.771  -6.707   2.739  0.00  0.00    +0.196 C 
ENDROOT
BRANCH   1   2
ATOM      2  C   UNL     1       0.940  -5.452   2.807  0.00  0.00    +0.023 A 
ATOM      3  C   UNL     1      -0.439  -5.535   2.809  0.00  0.00    +0.009 A 
ATOM      4  C   UNL     1      -1.202  -4.384   2.870  0.00  0.00    +0.001 A 
ATOM      5  C   UNL     1      -0.588  -3.146   2.930  0.00  0.00    +0.004 A 
ATOM      6  C   UNL     1       0.791  -3.058   2.929  0.00  0.00    +0.046 A 
ATOM      7  C   UNL     1       1.559  -4.212   2.873  0.00  0.00    +0.122 A 
BRANCH   7   8
ATOM      8  O   UNL     1       2.915  -4.128   2.877  0.00  0.00    -0.506 OA
ATOM      9  H   UNL     1       3.303  -3.980   2.003  0.00  0.00    +0.292 HD
ENDBRANCH   7   8
ENDBRANCH   1   2
BRANCH   1  11
ATOM     10  N   UNL     1       0.950  -7.640   0.601  0.00  0.00    -0.294 N 
ATOM     11  C   UNL     1       1.037  -7.753   1.941  0.00  0.00    +0.239 C 
ATOM     12  O   UNL     1       0.525  -8.697   2.505  0.00  0.00    -0.273 OA
ATOM     13  H   UNL     1       1.305  -6.854   0.156  0.00  0.00    +0.150 HD
BRANCH  10  14
ATOM     14  C   UNL     1       0.319  -8.703  -0.184  0.00  0.00    +0.278 C 
BRANCH  14  15
ATOM     15  S   UNL     1      -1.425  -8.291  -0.470  0.00  0.00    +0.013 S 
ATOM     16  O   UNL     1      -2.034  -7.875   0.744  0.00  0.00    -0.168 OA
ATOM     17  O   UNL     1      -2.035  -9.282  -1.284  0.00  0.00    -0.168 OA
BRANCH  15  22
ATOM     18  C   UNL     1      -1.306  -3.335  -3.909  0.00  0.00    +0.044 C 
ATOM     19  C   UNL     1      -1.335  -4.573  -3.050  0.00  0.00    -0.050 A 
ATOM     20  C   UNL     1      -1.348  -5.823  -3.640  0.00  0.00    +0.005 A 
ATOM     21  C   UNL     1      -1.375  -6.958  -2.852  0.00  0.00    +0.027 A 
ATOM     22  C   UNL     1      -1.389  -6.844  -1.474  0.00  0.00    +0.090 A 
ATOM     23  C   UNL     1      -1.375  -5.593  -0.885  0.00  0.00    +0.027 A 
ATOM     24  C   UNL     1      -1.343  -4.458  -1.673  0.00  0.00    +0.005 A 
ENDBRANCH  15  22
ENDBRANCH  14  15
ENDBRANCH  10  14
ENDBRANCH   1  11
BRANCH   1  25
ATOM     25  N   UNL     1       2.012  -7.207   4.095  0.00  0.00    -0.277 N 
ATOM     26  C   UNL     1       2.342  -8.499   4.288  0.00  0.00    +0.251 C 
ATOM     27  O   UNL     1       2.450  -8.937   5.418  0.00  0.00    -0.270 OA
BRANCH  26  28
ATOM     28  C   UNL     1       2.572  -9.383   3.130  0.00  0.00    +0.078 A 
ATOM     29  C   UNL     1       2.939  -8.841   1.895  0.00  0.00    +0.017 A 
ATOM     30  C   UNL     1       3.153  -9.672   0.817  0.00  0.00    +0.001 A 
ATOM     31  C   UNL     1       3.006 -11.043   0.951  0.00  0.00    +0.004 A 
ATOM     32  C   UNL     1       2.643 -11.591   2.165  0.00  0.00    +0.046 A 
ATOM     33  C   UNL     1       2.429 -10.771   3.262  0.00  0.00    +0.129 A 
BRANCH  33  34
ATOM     34  O   UNL     1       2.078 -11.308   4.457  0.00  0.00    -0.506 OA
ATOM     35  H   UNL     1       1.124 -11.398   4.583  0.00  0.00    +0.292 HD
ENDBRANCH  33  34
ENDBRANCH  26  28
BRANCH  25  36
ATOM     36  C   UNL     1       1.893  -6.302   5.241  0.00  0.00    +0.030 C 
ATOM     37  C   UNL     1       0.647  -5.429   5.076  0.00  0.00    +0.031 C 
ATOM     38  C   UNL     1       1.774  -7.121   6.528  0.00  0.00    +0.031 C 
ATOM     39  C   UNL     1       3.134  -5.410   5.317  0.00  0.00    +0.031 C 
ENDBRANCH  25  36
ENDBRANCH   1  25
TORSDOF 10
