REMARK  Name = ZINC08686118
REMARK  5 active torsions:
REMARK  status: ('A' for Active; 'I' for Inactive)
REMARK    1  A    between atoms: C_1  and  C_2
REMARK    2  A    between atoms: C_2  and  C_3
REMARK    3  A    between atoms: C_2  and  C_4
REMARK    4  A    between atoms: C_4  and  N_5
REMARK    5  A    between atoms: C_6  and  O_24
REMARK                            x       y       z     vdW  Elec       q    Type
REMARK                         _______ _______ _______ _____ _____    ______ ____
ROOT
ATOM      1  N   UNL     1       2.125  -0.091  -1.209  0.00  0.00    -0.232 N 
ATOM      2  C   UNL     1       2.608   1.063  -1.692  0.00  0.00    +0.219 A 
ATOM      3  C   UNL     1       3.983   1.077  -1.456  0.00  0.00    +0.064 A 
ATOM      4  C   UNL     1       5.023   1.981  -1.717  0.00  0.00    +0.016 A 
ATOM      5  C   UNL     1       6.303   1.698  -1.351  0.00  0.00    +0.013 A 
ATOM      6  C   UNL     1       6.654   0.507  -0.704  0.00  0.00    +0.035 A 
ATOM      7  C   UNL     1       5.684  -0.454  -0.403  0.00  0.00    +0.061 A 
ATOM      8  C   UNL     1       4.293  -0.194  -0.776  0.00  0.00    +0.108 A 
ATOM      9  N   UNL     1       3.160  -0.847  -0.648  0.00  0.00    -0.167 NA
ATOM     10  C   UNL     1       6.054  -1.702   0.274  0.00  0.00    +0.197 C 
ATOM     11  O   UNL     1       5.202  -2.531   0.530  0.00  0.00    -0.287 OA
ATOM     12  C   UNL     1       7.464  -1.953   0.646  0.00  0.00    +0.033 A 
ATOM     13  C   UNL     1       7.824  -3.133   1.287  0.00  0.00    +0.012 A 
ATOM     14  C   UNL     1       9.147  -3.356   1.629  0.00  0.00    +0.001 A 
ATOM     15  C   UNL     1      10.114  -2.412   1.337  0.00  0.00    +0.001 A 
ATOM     16  C   UNL     1       9.772  -1.232   0.699  0.00  0.00    +0.012 A 
ATOM     17  C   UNL     1       8.447  -0.992   0.348  0.00  0.00    +0.033 A 
ATOM     18  C   UNL     1       8.069   0.262  -0.334  0.00  0.00    +0.195 C 
ATOM     19  O   UNL     1       8.917   1.093  -0.592  0.00  0.00    -0.287 OA
ENDROOT
BRANCH   2  20
ATOM     20  O   UNL     1       1.891   2.039  -2.299  0.00  0.00    -0.492 OA
ATOM     21  H   UNL     1       1.544   2.707  -1.693  0.00  0.00    +0.294 HD
ENDBRANCH   2  20
BRANCH   1  22
ATOM     22  C   UNL     1       0.718  -0.497  -1.257  0.00  0.00    +0.150 C 
BRANCH  22  24
ATOM     23  C   UNL     1      -0.019   1.526   0.010  0.00  0.00    +0.009 C 
ATOM     24  C   UNL     1       0.002  -0.004   0.002  0.00  0.00    +0.004 C 
ATOM     25  C   UNL     1      -1.433  -0.534   0.013  0.00  0.00    +0.009 C 
ENDBRANCH  22  24
ENDBRANCH   1  22
TORSDOF 3
