REMARK  Name = ZINC39007494
REMARK  7 active torsions:
REMARK  status: ('A' for Active; 'I' for Inactive)
REMARK    1  A    between atoms: C_1  and  C_2
REMARK    2  A    between atoms: C_5  and  C_9
REMARK    3  A    between atoms: C_6  and  O_8
REMARK    4  A    between atoms: C_12  and  C_14
REMARK    5  A    between atoms: N_16  and  C_17
REMARK    6  A    between atoms: C_19  and  C_28
REMARK    7  A    between atoms: N_30  and  C_31
REMARK                            x       y       z     vdW  Elec       q    Type
REMARK                         _______ _______ _______ _____ _____    ______ ____
ROOT
ATOM      1  C   UNL     1       0.103  -7.837  -1.261  0.00  0.00    +0.261 C 
ATOM      2  O   UNL     1       0.104  -7.900  -2.476  0.00  0.00    -0.269 OA
ATOM      3  N   UNL     1       0.116  -8.967  -0.527  0.00  0.00    -0.294 N 
ATOM      4  H   UNL     1       0.115  -8.916   0.442  0.00  0.00    +0.150 HD
ENDROOT
BRANCH   3   5
ATOM      5  C   UNL     1       0.132 -10.272  -1.192  0.00  0.00    +0.167 C 
ATOM      6  C   UNL     1       1.082 -11.229  -0.495  0.00  0.00    +0.045 C 
ATOM      7  C   UNL     1       0.584 -12.163   0.275  0.00  0.00    -0.046 C 
ATOM      8  C   UNL     1       1.391 -13.270   0.954  0.00  0.00    +0.032 C 
ATOM      9  C   UNL     1       0.453 -13.931   1.968  0.00  0.00    +0.004 C 
ATOM     10  C   UNL     1      -0.771 -14.539   1.298  0.00  0.00    +0.002 C 
ATOM     11  C   UNL     1      -1.345 -13.657   0.193  0.00  0.00    +0.018 C 
ATOM     12  C   UNL     1      -0.942 -12.202   0.440  0.00  0.00    +0.075 C 
ATOM     13  S   UNL     1      -1.476 -11.151  -0.972  0.00  0.00    -0.126 S 
BRANCH   6  14
ATOM     14  C   UNL     1       2.536 -11.110  -0.682  0.00  0.00    +0.242 C 
ATOM     15  O   UNL     1       3.287 -11.883  -0.119  0.00  0.00    -0.270 OA
ATOM     16  N   UNL     1       3.036 -10.144  -1.478  0.00  0.00    -0.315 N 
ATOM     17  C   UNL     1       4.484 -10.025  -1.664  0.00  0.00    +0.128 C 
ATOM     18  H   UNL     1       2.437  -9.527  -1.927  0.00  0.00    +0.149 HD
ENDBRANCH   6  14
ENDBRANCH   3   5
BRANCH   1  22
ATOM     19  C   UNL     1       0.058  -4.243  -0.037  0.00  0.00    +0.080 C 
ATOM     20  N   UNL     1       0.068  -5.054   0.997  0.00  0.00    -0.153 NA
ATOM     21  N   UNL     1       0.083  -6.292   0.690  0.00  0.00    -0.148 NA
ATOM     22  C   UNL     1       0.086  -6.530  -0.596  0.00  0.00    +0.131 C 
ATOM     23  C   UNL     1       0.064  -5.159  -1.250  0.00  0.00    +0.120 C 
BRANCH  19  28
ATOM     24  C   UNL     1      -0.018   1.503   0.010  0.00  0.00    +0.044 C 
ATOM     25  C   UNL     1       0.002  -0.004   0.002  0.00  0.00    -0.047 A 
ATOM     26  C   UNL     1       0.006  -0.686  -1.206  0.00  0.00    +0.004 A 
ATOM     27  C   UNL     1       0.024  -2.062  -1.228  0.00  0.00    +0.013 A 
ATOM     28  C   UNL     1       0.039  -2.779  -0.023  0.00  0.00    +0.040 A 
ATOM     29  C   UNL     1       0.036  -2.082   1.199  0.00  0.00    +0.126 A 
ATOM     30  C   UNL     1       0.023  -0.696   1.197  0.00  0.00    +0.049 A 
BRANCH  29  31
ATOM     31  O   UNL     1       0.051  -2.762   2.372  0.00  0.00    -0.506 OA
ATOM     32  H   UNL     1       0.938  -2.948   2.708  0.00  0.00    +0.292 HD
ENDBRANCH  29  31
ENDBRANCH  19  28
ENDBRANCH   1  22
TORSDOF 5
