REMARK  Name = ZINC32799212
REMARK  7 active torsions:
REMARK  status: ('A' for Active; 'I' for Inactive)
REMARK    1  A    between atoms: C_4  and  C_7
REMARK    2  A    between atoms: C_7  and  C_8
REMARK    3  A    between atoms: C_8  and  N_9
REMARK    4  A    between atoms: C_10  and  C_12
REMARK    5  A    between atoms: C_12  and  C_26
REMARK    6  A    between atoms: C_13  and  C_14
REMARK    7  A    between atoms: C_19  and  N_20
REMARK                            x       y       z     vdW  Elec       q    Type
REMARK                         _______ _______ _______ _____ _____    ______ ____
ROOT
ATOM      1  C   UNL     1      -0.377   9.484  -2.516  0.00  0.00    +0.114 C 
ATOM      2  C   UNL     1      -0.239  10.171  -3.702  0.00  0.00    +0.034 C 
ENDROOT
BRANCH   2   3
ATOM      3  C   UNL     1      -0.335  11.632  -3.717  0.00  0.00    +0.010 A 
ATOM      4  C   UNL     1       0.261  12.388  -2.697  0.00  0.00    +0.059 A 
ATOM      5  C   UNL     1       0.171  13.764  -2.719  0.00  0.00    +0.167 A 
ATOM      6  C   UNL     1      -0.522  14.403  -3.751  0.00  0.00    +0.168 A 
ATOM      7  C   UNL     1      -1.117  13.655  -4.759  0.00  0.00    +0.082 A 
ATOM      8  C   UNL     1      -1.028  12.281  -4.748  0.00  0.00    +0.137 A 
ATOM      9  O   UNL     1      -0.470  15.749  -3.540  0.00  0.00    -0.453 OA
ATOM     10  C   UNL     1       0.604  15.951  -2.603  0.00  0.00    +0.466 C 
ATOM     11  O   UNL     1       0.655  14.714  -1.867  0.00  0.00    -0.453 OA
BRANCH   8  12
ATOM     12  N   UNL     1      -1.665  11.489  -5.825  0.00  0.00    +0.057 N 
ATOM     13  O   UNL     1      -2.217  12.055  -6.752  0.00  0.00    -0.126 OA
ATOM     14  O   UNL     1      -1.635  10.273  -5.785  0.00  0.00    -0.126 OA
ENDBRANCH   8  12
ENDBRANCH   2   3
BRANCH   1  16
ATOM     15  N   UNL     1      -0.273   7.361  -1.313  0.00  0.00    -0.310 N 
ATOM     16  C   UNL     1      -0.137   8.033  -2.474  0.00  0.00    +0.254 C 
ATOM     17  O   UNL     1       0.184   7.440  -3.486  0.00  0.00    -0.269 OA
ATOM     18  H   UNL     1      -0.563   7.897  -0.398  0.00  0.00    +0.149 HD
BRANCH  15  19
ATOM     19  C   UNL     1      -0.034   5.916  -1.272  0.00  0.00    +0.109 C 
BRANCH  19  20
ATOM     20  C   UNL     1      -0.254   5.404   0.153  0.00  0.00    +0.054 C 
BRANCH  20  24
ATOM     21  C   UNL     1       0.443   1.191   0.275  0.00  0.00    +0.000 A 
ATOM     22  C   UNL     1      -0.823   1.675   0.000  0.00  0.00    +0.000 A 
ATOM     23  C   UNL     1      -1.049   3.038  -0.034  0.00  0.00    +0.004 A 
ATOM     24  C   UNL     1      -0.008   3.917   0.196  0.00  0.00    -0.046 A 
ATOM     25  C   UNL     1       1.259   3.434   0.465  0.00  0.00    +0.004 A 
ATOM     26  C   UNL     1       1.484   2.071   0.505  0.00  0.00    +0.000 A 
ENDBRANCH  20  24
ENDBRANCH  19  20
ENDBRANCH  15  19
ENDBRANCH   1  16
BRANCH   1  27
ATOM     27  C   UNL     1      -0.755  10.182  -1.324  0.00  0.00    +0.104 C 
ATOM     28  N   UNL     1      -1.055  10.736  -0.378  0.00  0.00    -0.191 NA
ENDBRANCH   1  27
TORSDOF 7
