REMARK  Name = ZINC35139259
REMARK  10 active torsions:
REMARK  status: ('A' for Active; 'I' for Inactive)
REMARK    1  A    between atoms: C_1  and  C_2
REMARK    2  A    between atoms: C_2  and  C_3
REMARK    3  A    between atoms: C_3  and  C_5
REMARK    4  A    between atoms: C_3  and  N_6
REMARK    5  A    between atoms: C_7  and  C_9
REMARK    6  A    between atoms: C_9  and  C_11
REMARK    7  A    between atoms: C_9  and  S_12
REMARK    8  A    between atoms: S_12  and  C_13
REMARK    9  A    between atoms: N_23  and  C_24
REMARK   10  A    between atoms: C_27  and  N_30
REMARK                            x       y       z     vdW  Elec       q    Type
REMARK                         _______ _______ _______ _____ _____    ______ ____
ROOT
ATOM      1  C   UNL     1      -6.238   2.199   3.864  0.00  0.00    +0.177 A 
ATOM      2  N   UNL     1      -5.444   2.112   4.903  0.00  0.00    -0.223 NA
ATOM      3  C   UNL     1      -5.923   1.845   6.140  0.00  0.00    +0.079 A 
ATOM      4  C   UNL     1      -5.078   1.752   7.250  0.00  0.00    +0.028 A 
ATOM      5  C   UNL     1      -5.606   1.482   8.481  0.00  0.00    +0.002 A 
ATOM      6  C   UNL     1      -6.972   1.296   8.648  0.00  0.00    +0.001 A 
ATOM      7  C   UNL     1      -7.825   1.381   7.582  0.00  0.00    +0.015 A 
ATOM      8  C   UNL     1      -7.314   1.656   6.314  0.00  0.00    +0.065 A 
ATOM      9  C   UNL     1      -8.181   1.759   5.134  0.00  0.00    +0.267 A 
ATOM     10  O   UNL     1      -9.386   1.606   5.221  0.00  0.00    -0.267 OA
ATOM     11  N   UNL     1      -7.593   2.035   3.946  0.00  0.00    -0.255 N 
ENDROOT
BRANCH  11  12
ATOM     12  C   UNL     1      -8.378   2.148   2.792  0.00  0.00    +0.052 A 
ATOM     13  C   UNL     1      -8.639   1.027   2.015  0.00  0.00    +0.028 A 
ATOM     14  C   UNL     1      -9.413   1.142   0.877  0.00  0.00    +0.035 A 
ATOM     15  C   UNL     1      -9.928   2.372   0.511  0.00  0.00    +0.126 A 
ATOM     16  C   UNL     1      -9.670   3.491   1.282  0.00  0.00    +0.035 A 
ATOM     17  C   UNL     1      -8.902   3.381   2.425  0.00  0.00    +0.028 A 
BRANCH  15  18
ATOM     18  N   UNL     1     -10.757   2.492  -0.710  0.00  0.00    +0.056 N 
ATOM     19  O   UNL     1     -10.983   1.516  -1.385  0.00  0.00    -0.126 OA
ATOM     20  O   UNL     1     -11.208   3.567  -1.031  0.00  0.00    -0.126 OA
ENDBRANCH  15  18
ENDBRANCH  11  12
BRANCH   1  21
ATOM     21  S   UNL     1      -5.528   2.549   2.291  0.00  0.00    -0.075 S 
BRANCH  21  22
ATOM     22  C   UNL     1      -3.751   2.686   2.631  0.00  0.00    +0.137 C 
ATOM     23  C   UNL     1      -3.215   1.330   3.095  0.00  0.00    +0.029 C 
BRANCH  22  25
ATOM     24  N   UNL     1      -1.803   3.660   1.459  0.00  0.00    -0.312 N 
ATOM     25  C   UNL     1      -3.030   3.109   1.377  0.00  0.00    +0.226 C 
ATOM     26  O   UNL     1      -3.555   2.953   0.295  0.00  0.00    -0.275 OA
ATOM     27  H   UNL     1      -1.384   3.784   2.325  0.00  0.00    +0.149 HD
BRANCH  24  28
ATOM     28  C   UNL     1      -1.102   4.071   0.240  0.00  0.00    +0.070 C 
ATOM     29  C   UNL     1      -0.363   2.870  -0.353  0.00  0.00    +0.028 C 
BRANCH  28  31
ATOM     30  C   UNL     1      -0.846   6.420   1.053  0.00  0.00    +0.005 C 
ATOM     31  C   UNL     1      -0.096   5.173   0.577  0.00  0.00    +0.018 C 
ENDBRANCH  28  31
ENDBRANCH  24  28
ENDBRANCH  22  25
ENDBRANCH  21  22
ENDBRANCH   1  21
TORSDOF 7
