REMARK  Name = ZINC09491480
REMARK  12 active torsions:
REMARK  status: ('A' for Active; 'I' for Inactive)
REMARK    1  A    between atoms: C_1  and  C_2
REMARK    2  A    between atoms: C_2  and  C_3
REMARK    3  A    between atoms: C_3  and  N_4
REMARK    4  A    between atoms: C_5  and  N_34
REMARK    5  A    between atoms: C_6  and  C_13
REMARK    6  A    between atoms: N_9  and  C_12
REMARK    7  A    between atoms: C_13  and  C_15
REMARK    8  A    between atoms: C_15  and  S_16
REMARK    9  A    between atoms: S_16  and  C_17
REMARK   10  A    between atoms: C_20  and  C_29
REMARK   11  A    between atoms: N_21  and  C_22
REMARK   12  A    between atoms: C_22  and  C_23
REMARK                            x       y       z     vdW  Elec       q    Type
REMARK                         _______ _______ _______ _____ _____    ______ ____
ROOT
ATOM      1  C   UNL     1      -2.590  -0.206   0.130  0.00  0.00    +0.157 C 
ENDROOT
BRANCH   1   2
ATOM      2  C   UNL     1      -2.541   1.296   0.023  0.00  0.00    +0.182 C 
ATOM      3  O   UNL     1      -3.571   1.933  -0.060  0.00  0.00    -0.291 OA
BRANCH   2   6
ATOM      4  N   UNL     1       0.001   3.966   0.034  0.00  0.00    -0.281 N 
ATOM      5  C   UNL     1      -1.226   3.366   0.044  0.00  0.00    +0.116 A 
ATOM      6  C   UNL     1      -1.297   1.963   0.019  0.00  0.00    +0.120 A 
ATOM      7  C   UNL     1      -0.035   1.212  -0.004  0.00  0.00    +0.269 A 
ATOM      8  O   UNL     1      -0.036  -0.005  -0.021  0.00  0.00    -0.267 OA
ATOM      9  N   UNL     1       1.126   1.900  -0.011  0.00  0.00    -0.263 N 
ATOM     10  C   UNL     1       1.131   3.243   0.007  0.00  0.00    +0.333 A 
ATOM     11  O   UNL     1       2.198   3.824  -0.001  0.00  0.00    -0.246 OA
ATOM     12  C   UNL     1       2.397   1.172  -0.041  0.00  0.00    +0.157 C 
BRANCH   5  13
ATOM     13  N   UNL     1      -2.362   4.116   0.071  0.00  0.00    -0.344 N 
ATOM     14  H   UNL     1      -2.352   5.023  -0.271  0.00  0.00    +0.144 HD
ATOM     15  H   UNL     1      -3.181   3.742   0.432  0.00  0.00    +0.144 HD
ENDBRANCH   5  13
BRANCH   4  16
ATOM     16  C   UNL     1       0.085   5.429   0.054  0.00  0.00    +0.128 C 
BRANCH  16  18
ATOM     17  C   UNL     1       0.182   7.486  -1.361  0.00  0.00    +0.005 C 
ATOM     18  C   UNL     1       0.094   5.958  -1.382  0.00  0.00    +0.018 C 
ENDBRANCH  16  18
ENDBRANCH   4  16
ENDBRANCH   2   6
ENDBRANCH   1   2
BRANCH   1  19
ATOM     19  S   UNL     1      -4.314  -0.756   0.108  0.00  0.00    -0.078 S 
BRANCH  19  20
ATOM     20  C   UNL     1      -4.082  -2.498   0.242  0.00  0.00    +0.192 A 
ATOM     21  N   UNL     1      -2.931  -3.125   0.330  0.00  0.00    -0.122 NA
ATOM     22  N   UNL     1      -3.123  -4.393   0.415  0.00  0.00    -0.128 NA
ATOM     23  C   UNL     1      -4.412  -4.654   0.387  0.00  0.00    +0.172 A 
ATOM     24  N   UNL     1      -5.065  -3.447   0.281  0.00  0.00    -0.299 N 
BRANCH  23  25
ATOM     25  C   UNL     1      -5.037  -5.985   0.460  0.00  0.00    +0.056 A 
ATOM     26  C   UNL     1      -4.482  -7.181   0.839  0.00  0.00    +0.019 A 
ATOM     27  C   UNL     1      -5.274  -8.308   0.833  0.00  0.00    +0.008 A 
ATOM     28  C   UNL     1      -6.571  -8.204   0.443  0.00  0.00    +0.046 A 
ATOM     29  S   UNL     1      -6.713  -6.463   0.072  0.00  0.00    -0.094 S 
ENDBRANCH  23  25
BRANCH  24  30
ATOM     30  C   UNL     1      -6.512  -3.225   0.220  0.00  0.00    +0.157 C 
BRANCH  30  31
ATOM     31  C   UNL     1      -6.971  -3.254  -1.239  0.00  0.00    +0.138 C 
ATOM     32  C   UNL     1      -8.472  -2.902  -1.323  0.00  0.00    +0.035 C 
ATOM     33  C   UNL     1      -8.977  -3.877  -2.424  0.00  0.00    +0.031 C 
ATOM     34  C   UNL     1      -8.078  -5.111  -2.160  0.00  0.00    +0.160 C 
ATOM     35  O   UNL     1      -6.803  -4.571  -1.776  0.00  0.00    -0.375 OA
ENDBRANCH  30  31
ENDBRANCH  24  30
ENDBRANCH  19  20
ENDBRANCH   1  19
TORSDOF 10
