REMARK  Name = ZINC04668316
REMARK  7 active torsions:
REMARK  status: ('A' for Active; 'I' for Inactive)
REMARK    1  A    between atoms: C_2  and  N_24
REMARK    2  A    between atoms: C_3  and  N_21
REMARK    3  A    between atoms: C_6  and  N_7
REMARK    4  A    between atoms: C_12  and  N_54
REMARK    5  A    between atoms: N_24  and  C_25
REMARK    6  A    between atoms: C_25  and  C_26
REMARK    7  A    between atoms: C_26  and  O_27
REMARK                            x       y       z     vdW  Elec       q    Type
REMARK                         _______ _______ _______ _____ _____    ______ ____
ROOT
ATOM      1  C   UNL     1      -1.215   3.049   0.030  0.00  0.00    +0.050 A 
ATOM      2  C   UNL     1      -1.227   1.646   0.017  0.00  0.00    +0.062 A 
ATOM      3  C   UNL     1      -2.383   0.922   0.018  0.00  0.00    +0.178 A 
ATOM      4  C   UNL     1      -3.623   1.579   0.027  0.00  0.00    +0.168 A 
ATOM      5  C   UNL     1      -3.644   3.064   0.035  0.00  0.00    +0.157 A 
ATOM      6  C   UNL     1      -2.369   3.775   0.035  0.00  0.00    +0.063 A 
ATOM      7  N   UNL     1      -4.920   3.338   0.042  0.00  0.00    -0.047 NA
ATOM      8  O   UNL     1      -5.551   2.300   0.039  0.00  0.00    -0.241 OA
ATOM      9  N   UNL     1      -4.899   1.274   0.031  0.00  0.00    -0.046 NA
ENDROOT
BRANCH   6  10
ATOM     10  N   UNL     1      -2.333   5.165   0.042  0.00  0.00    -0.332 N 
ATOM     11  C   UNL     1      -1.718   5.682  -1.188  0.00  0.00    +0.086 C 
ATOM     12  C   UNL     1      -1.769   7.212  -1.177  0.00  0.00    -0.059 C 
ATOM     13  C   UNL     1      -1.679   7.197   1.242  0.00  0.00    -0.059 C 
ATOM     14  C   UNL     1      -1.629   5.667   1.230  0.00  0.00    +0.086 C 
ATOM     15  N   UNL     1      -1.039   7.704   0.010  0.00  0.00    +0.384 N 
ATOM     16  H   UNL     1      -0.071   7.362  -0.028  0.00  0.00    -0.081 HD
BRANCH  15  17
ATOM     17  C   UNL     1      -1.026   9.182   0.019  0.00  0.00    -0.068 C 
ATOM     18  C   UNL     1      -2.454   9.730  -0.003  0.00  0.00    -0.015 C 
ATOM     19  C   UNL     1      -2.414  11.260   0.006  0.00  0.00    -0.002 C 
ATOM     20  C   UNL     1      -1.659  11.757  -1.228  0.00  0.00    -0.000 C 
ATOM     21  C   UNL     1      -0.230  11.209  -1.207  0.00  0.00    -0.002 C 
ATOM     22  C   UNL     1      -0.270   9.679  -1.215  0.00  0.00    -0.015 C 
ENDBRANCH  15  17
ENDBRANCH   6  10
BRANCH   3  23
ATOM     23  N   UNL     1      -2.329  -0.558   0.010  0.00  0.00    +0.061 N 
ATOM     24  O   UNL     1      -2.302  -1.173   1.061  0.00  0.00    -0.126 OA
ATOM     25  O   UNL     1      -2.312  -1.161  -1.048  0.00  0.00    -0.126 OA
ENDBRANCH   3  23
BRANCH   2  26
ATOM     26  N   UNL     1      -0.011   0.966   0.007  0.00  0.00    -0.340 N 
ATOM     27  H   UNL     1       0.002  -0.004   0.002  0.00  0.00    +0.146 HD
BRANCH  26  28
ATOM     28  C   UNL     1       1.248   1.716  -0.001  0.00  0.00    +0.129 C 
BRANCH  28  29
ATOM     29  C   UNL     1       2.424   0.737  -0.017  0.00  0.00    +0.174 C 
BRANCH  29  30
ATOM     30  O   UNL     1       2.414   0.001  -1.242  0.00  0.00    -0.393 OA
ATOM     31  H   UNL     1       3.134  -0.639  -1.322  0.00  0.00    +0.209 HD
ENDBRANCH  29  30
ENDBRANCH  28  29
ENDBRANCH  26  28
ENDBRANCH   2  26
TORSDOF 7
