REMARK  Name = ZINC64190867
REMARK  5 active torsions:
REMARK  status: ('A' for Active; 'I' for Inactive)
REMARK    1  A    between atoms: C_4  and  C_7
REMARK    2  A    between atoms: C_7  and  C_9
REMARK    3  A    between atoms: C_7  and  N_18
REMARK    4  A    between atoms: C_19  and  C_21
REMARK    5  A    between atoms: C_24  and  C_28
REMARK                            x       y       z     vdW  Elec       q    Type
REMARK                         _______ _______ _______ _____ _____    ______ ____
ROOT
ATOM      1  C   UNL     1       4.193  -0.801  -0.010  0.00  0.00    +0.134 C 
ENDROOT
BRANCH   1   2
ATOM      2  C   UNL     1       4.438  -1.350   1.372  0.00  0.00    -0.021 A 
ATOM      3  C   UNL     1       3.623  -2.359   1.867  0.00  0.00    +0.008 A 
ATOM      4  C   UNL     1       3.828  -2.870   3.117  0.00  0.00    +0.030 A 
ATOM      5  C   UNL     1       4.867  -2.376   3.909  0.00  0.00    +0.089 A 
ATOM      6  C   UNL     1       5.693  -1.355   3.409  0.00  0.00    +0.066 A 
ATOM      7  C   UNL     1       5.472  -0.851   2.134  0.00  0.00    +0.033 A 
ATOM      8  N   UNL     1       6.610  -1.084   4.405  0.00  0.00    -0.344 N 
ATOM      9  C   UNL     1       6.333  -1.913   5.447  0.00  0.00    +0.197 A 
ATOM     10  N   UNL     1       5.314  -2.669   5.158  0.00  0.00    -0.236 NA
ATOM     11  H   UNL     1       7.321  -0.424   4.368  0.00  0.00    +0.167 HD
ENDBRANCH   1   2
BRANCH   1  15
ATOM     12  C   UNL     1       0.985   2.017   0.122  0.00  0.00    +0.000 A 
ATOM     13  C   UNL     1       2.294   2.460   0.106  0.00  0.00    +0.000 A 
ATOM     14  C   UNL     1       3.332   1.548   0.063  0.00  0.00    +0.006 A 
ATOM     15  C   UNL     1       3.062   0.193   0.038  0.00  0.00    -0.023 A 
ATOM     16  C   UNL     1       1.752  -0.251   0.055  0.00  0.00    +0.006 A 
ATOM     17  C   UNL     1       0.714   0.661   0.096  0.00  0.00    +0.000 A 
ENDBRANCH   1  15
BRANCH   1  18
ATOM     18  N   UNL     1       3.843  -1.897  -0.916  0.00  0.00    -0.301 N 
ATOM     19  C   UNL     1       4.067  -1.775  -2.239  0.00  0.00    +0.239 C 
ATOM     20  O   UNL     1       4.560  -0.753  -2.682  0.00  0.00    -0.271 OA
ATOM     21  H   UNL     1       3.450  -2.711  -0.564  0.00  0.00    +0.150 HD
BRANCH  19  22
ATOM     22  C   UNL     1       3.728  -2.833  -3.114  0.00  0.00    +0.086 C 
ATOM     23  C   UNL     1       3.842  -2.668  -4.448  0.00  0.00    +0.020 C 
ATOM     24  N   UNL     1       4.150  -1.478  -5.003  0.00  0.00    -0.331 N 
ATOM     25  C   UNL     1       4.748  -1.463  -6.351  0.00  0.00    +0.160 C 
ATOM     26  S   UNL     1       4.723  -3.248  -6.807  0.00  0.00    -0.128 S 
ATOM     27  C   UNL     1       3.636  -3.815  -5.431  0.00  0.00    +0.121 C 
ATOM     28  H   UNL     1       3.981  -0.650  -4.526  0.00  0.00    +0.147 HD
BRANCH  25  29
ATOM     29  C   UNL     1       6.159  -0.935  -6.306  0.00  0.00    -0.010 A 
ATOM     30  C   UNL     1       6.690  -0.259  -7.389  0.00  0.00    +0.014 A 
ATOM     31  C   UNL     1       7.962   0.202  -7.316  0.00  0.00    +0.045 A 
ATOM     32  S   UNL     1       8.451  -0.320  -5.680  0.00  0.00    -0.105 S 
ATOM     33  C   UNL     1       6.925  -1.113  -5.202  0.00  0.00    +0.051 A 
ENDBRANCH  25  29
ENDBRANCH  19  22
ENDBRANCH   1  18
TORSDOF 5
