REMARK  Name = ZINC13077411
REMARK  8 active torsions:
REMARK  status: ('A' for Active; 'I' for Inactive)
REMARK    1  A    between atoms: C_1  and  C_2
REMARK    2  A    between atoms: C_3  and  C_14
REMARK    3  A    between atoms: N_5  and  C_7
REMARK    4  A    between atoms: C_16  and  C_34
REMARK    5  A    between atoms: C_17  and  C_24
REMARK    6  A    between atoms: C_27  and  O_30
REMARK    7  A    between atoms: O_30  and  C_31
REMARK    8  A    between atoms: C_31  and  C_32
REMARK                            x       y       z     vdW  Elec       q    Type
REMARK                         _______ _______ _______ _____ _____    ______ ____
ROOT
ATOM      1  C   UNL     1       0.033   0.029  -0.362  0.00  0.00    +0.175 C 
ATOM      2  C   UNL     1      -0.010   1.511  -0.100  0.00  0.00    -0.022 C 
ATOM      3  C   UNL     1       1.060   2.226   0.218  0.00  0.00    +0.042 C 
ATOM      4  N   UNL     1       2.333   1.651   0.329  0.00  0.00    -0.282 N 
ATOM      5  C   UNL     1       2.487   0.362  -0.157  0.00  0.00    +0.240 A 
ATOM      6  N   UNL     1       1.418  -0.406  -0.491  0.00  0.00    -0.201 N 
ATOM      7  N   UNL     1       1.952  -1.611  -0.944  0.00  0.00    -0.042 NA
ATOM      8  N   UNL     1       3.238  -1.501  -0.855  0.00  0.00    -0.021 NA
ATOM      9  N   UNL     1       3.558  -0.341  -0.391  0.00  0.00    -0.092 NA
ATOM     10  C   UNL     1      -1.336   2.218  -0.210  0.00  0.00    +0.043 C 
ATOM     11  H   UNL     1       3.074   2.135   0.727  0.00  0.00    +0.155 HD
ENDROOT
BRANCH   1  14
ATOM     12  C   UNL     1      -2.498  -1.864  -0.563  0.00  0.00    +0.068 C 
ATOM     13  C   UNL     1      -1.736  -1.539   0.696  0.00  0.00    +0.067 A 
ATOM     14  C   UNL     1      -0.619  -0.702   0.783  0.00  0.00    +0.041 A 
ATOM     15  C   UNL     1      -0.222  -0.670   2.078  0.00  0.00    +0.139 A 
ATOM     16  N   UNL     1      -1.071  -1.457   2.788  0.00  0.00    -0.221 N 
ATOM     17  N   UNL     1      -2.008  -1.991   1.893  0.00  0.00    -0.170 NA
ATOM     18 CL   UNL     1       1.125   0.221   2.716  0.00  0.00    -0.062 Cl
BRANCH  16  19
ATOM     19  C   UNL     1      -1.016  -1.698   4.168  0.00  0.00    +0.067 A 
ATOM     20  C   UNL     1       0.211  -1.776   4.812  0.00  0.00    +0.028 A 
ATOM     21  C   UNL     1       0.262  -2.007   6.172  0.00  0.00    +0.002 A 
ATOM     22  C   UNL     1      -0.908  -2.172   6.891  0.00  0.00    +0.000 A 
ATOM     23  C   UNL     1      -2.131  -2.100   6.252  0.00  0.00    +0.002 A 
ATOM     24  C   UNL     1      -2.189  -1.864   4.892  0.00  0.00    +0.028 A 
ENDBRANCH  16  19
ENDBRANCH   1  14
BRANCH   3  25
ATOM     25  C   UNL     1       0.905   3.678   0.463  0.00  0.00    -0.004 A 
ATOM     26  C   UNL     1       1.738   4.590  -0.185  0.00  0.00    +0.013 A 
ATOM     27  C   UNL     1       1.588   5.941   0.042  0.00  0.00    +0.046 A 
ATOM     28  C   UNL     1       0.615   6.395   0.922  0.00  0.00    +0.121 A 
ATOM     29  C   UNL     1      -0.214   5.490   1.573  0.00  0.00    +0.046 A 
ATOM     30  C   UNL     1      -0.072   4.138   1.347  0.00  0.00    +0.013 A 
BRANCH  28  31
ATOM     31  O   UNL     1       0.473   7.727   1.148  0.00  0.00    -0.481 OA
BRANCH  31  32
ATOM     32  C   UNL     1       1.358   8.602   0.446  0.00  0.00    +0.353 C 
BRANCH  32  33
ATOM     33  C   UNL     1       1.054  10.030   0.819  0.00  0.00    +0.393 C 
ATOM     34  O   UNL     1       0.170  10.274   1.607  0.00  0.00    -0.243 OA
ATOM     35  O   UNL     1       1.765  11.031   0.278  0.00  0.00    -0.243 OA
ENDBRANCH  32  33
ENDBRANCH  31  32
ENDBRANCH  28  31
ENDBRANCH   3  25
TORSDOF 6
