REMARK  Name = ZINC13032818
REMARK  10 active torsions:
REMARK  status: ('A' for Active; 'I' for Inactive)
REMARK    1  A    between atoms: C_1  and  C_2
REMARK    2  A    between atoms: C_5  and  C_36
REMARK    3  A    between atoms: C_9  and  C_14
REMARK    4  A    between atoms: C_14  and  N_64
REMARK    5  A    between atoms: C_15  and  C_16
REMARK    6  A    between atoms: C_15  and  N_64
REMARK    7  A    between atoms: N_20  and  C_21
REMARK    8  A    between atoms: C_21  and  C_22
REMARK    9  A    between atoms: C_29  and  C_30
REMARK   10  A    between atoms: C_29  and  N_64
REMARK                            x       y       z     vdW  Elec       q    Type
REMARK                         _______ _______ _______ _____ _____    ______ ____
ROOT
ATOM      1  N   UNL     1      -0.763   1.529  -1.232  0.00  0.00    +0.389 N 
ATOM      2  H   UNL     1      -1.763   1.298  -1.252  0.00  0.00    -0.081 HD
ENDROOT
BRANCH   1   3
ATOM      3  C   UNL     1      -0.164   0.964  -0.005  0.00  0.00    -0.037 C 
BRANCH   3  12
ATOM      4  C   UNL     1      -4.108  -1.073   2.718  0.00  0.00    +0.044 C 
ATOM      5  C   UNL     1      -3.781   0.263   3.334  0.00  0.00    -0.041 A 
ATOM      6  C   UNL     1      -4.490   0.713   4.413  0.00  0.00    +0.004 A 
ATOM      7  C   UNL     1      -4.197   1.942   4.987  0.00  0.00    +0.005 A 
ATOM      8  C   UNL     1      -3.187   2.732   4.482  0.00  0.00    -0.026 A 
ATOM      9  C   UNL     1      -2.452   2.295   3.385  0.00  0.00    +0.052 A 
ATOM     10  C   UNL     1      -2.752   1.047   2.805  0.00  0.00    +0.002 A 
ATOM     11  C   UNL     1      -1.975   0.598   1.648  0.00  0.00    +0.017 A 
ATOM     12  C   UNL     1      -0.986   1.399   1.182  0.00  0.00    +0.001 A 
ATOM     13  C   UNL     1      -0.725   2.640   1.800  0.00  0.00    +0.251 A 
ATOM     14  O   UNL     1       0.167   3.347   1.362  0.00  0.00    -0.268 OA
ATOM     15  N   UNL     1      -1.436   3.064   2.860  0.00  0.00    -0.322 N 
ATOM     16  H   UNL     1      -1.231   3.923   3.260  0.00  0.00    +0.169 HD
ATOM     17  C   UNL     1      -2.880   4.064   5.115  0.00  0.00    +0.046 C 
ENDBRANCH   3  12
ENDBRANCH   1   3
BRANCH   1  18
ATOM     18  C   UNL     1      -0.112   0.949  -2.426  0.00  0.00    +0.001 C 
BRANCH  18  19
ATOM     19  C   UNL     1      -0.793   1.481  -3.660  0.00  0.00    +0.135 A 
ATOM     20  N   UNL     1      -0.524   2.605  -4.279  0.00  0.00    -0.115 NA
ATOM     21  N   UNL     1      -1.319   2.704  -5.288  0.00  0.00    -0.023 NA
ATOM     22  N   UNL     1      -2.088   1.672  -5.329  0.00  0.00    -0.044 NA
ATOM     23  N   UNL     1      -1.790   0.892  -4.345  0.00  0.00    -0.227 N 
BRANCH  23  24
ATOM     24  C   UNL     1      -2.422  -0.391  -4.030  0.00  0.00    +0.182 C 
BRANCH  24  25
ATOM     25  C   UNL     1      -3.593  -0.162  -3.109  0.00  0.00    -0.026 A 
ATOM     26  C   UNL     1      -3.408  -0.186  -1.739  0.00  0.00    +0.008 A 
ATOM     27  C   UNL     1      -4.480   0.029  -0.893  0.00  0.00    +0.038 A 
ATOM     28  C   UNL     1      -5.740   0.257  -1.418  0.00  0.00    +0.123 A 
ATOM     29  C   UNL     1      -5.925   0.276  -2.790  0.00  0.00    +0.038 A 
ATOM     30  C   UNL     1      -4.851   0.066  -3.634  0.00  0.00    +0.008 A 
ATOM     31  F   UNL     1      -6.790   0.463  -0.592  0.00  0.00    -0.205 F 
ENDBRANCH  24  25
ENDBRANCH  23  24
ENDBRANCH  18  19
ENDBRANCH   1  18
BRANCH   1  32
ATOM     32  C   UNL     1      -0.610   2.999  -1.238  0.00  0.00    -0.046 C 
BRANCH  32  33
ATOM     33  C   UNL     1       0.870   3.385  -1.225  0.00  0.00    +0.102 C 
ATOM     34  C   UNL     1       1.027   4.912  -1.048  0.00  0.00    +0.032 C 
ATOM     35  C   UNL     1       2.232   5.272  -1.945  0.00  0.00    +0.030 C 
ATOM     36  C   UNL     1       2.661   3.920  -2.558  0.00  0.00    +0.160 C 
ATOM     37  O   UNL     1       1.475   3.098  -2.505  0.00  0.00    -0.378 OA
ENDBRANCH  32  33
ENDBRANCH   1  32
TORSDOF 8
