REMARK  Name = ZINC36686204
REMARK  10 active torsions:
REMARK  status: ('A' for Active; 'I' for Inactive)
REMARK    1  A    between atoms: C_1  and  C_2
REMARK    2  A    between atoms: C_2  and  C_4
REMARK    3  A    between atoms: C_2  and  O_29
REMARK    4  A    between atoms: N_6  and  N_7
REMARK    5  A    between atoms: C_8  and  C_10
REMARK    6  A    between atoms: C_10  and  C_12
REMARK    7  A    between atoms: C_10  and  N_19
REMARK    8  A    between atoms: C_12  and  C_13
REMARK    9  A    between atoms: C_20  and  C_22
REMARK   10  A    between atoms: O_29  and  C_30
REMARK                            x       y       z     vdW  Elec       q    Type
REMARK                         _______ _______ _______ _____ _____    ______ ____
ROOT
ATOM      1  C   UNL     1      -5.757  -1.721   1.918  0.00  0.00    +0.165 C 
ENDROOT
BRANCH   1   3
ATOM      2  N   UNL     1      -3.541  -1.219   0.940  0.00  0.00    -0.233 N 
ATOM      3  C   UNL     1      -4.348  -1.198   2.020  0.00  0.00    +0.250 C 
ATOM      4  O   UNL     1      -3.939  -0.757   3.074  0.00  0.00    -0.272 OA
ATOM      5  H   UNL     1      -3.868  -1.571   0.098  0.00  0.00    +0.173 HD
BRANCH   2   8
ATOM      6  C   UNL     1      -1.424  -0.753  -0.044  0.00  0.00    +0.270 C 
ATOM      7  O   UNL     1      -1.833  -1.194  -1.098  0.00  0.00    -0.270 OA
ATOM      8  N   UNL     1      -2.231  -0.732   1.035  0.00  0.00    -0.231 N 
ATOM      9  H   UNL     1      -1.904  -0.380   1.878  0.00  0.00    +0.173 HD
BRANCH   6  11
ATOM     10  C   UNL     1      -0.048   1.273   0.344  0.00  0.00    +0.062 C 
ATOM     11  C   UNL     1      -0.015  -0.230   0.058  0.00  0.00    +0.257 C 
BRANCH  11  12
ATOM     12  O   UNL     1       0.671  -0.465  -1.174  0.00  0.00    -0.477 OA
BRANCH  12  13
ATOM     13  C   UNL     1       2.026  -0.553  -1.118  0.00  0.00    +0.157 A 
ATOM     14  C   UNL     1       2.691  -0.303   0.073  0.00  0.00    +0.048 A 
ATOM     15  C   UNL     1       4.068  -0.394   0.128  0.00  0.00    +0.004 A 
ATOM     16  C   UNL     1       4.786  -0.732  -1.005  0.00  0.00    +0.003 A 
ATOM     17  C   UNL     1       4.128  -0.981  -2.195  0.00  0.00    +0.042 A 
ATOM     18  C   UNL     1       2.748  -0.899  -2.253  0.00  0.00    +0.165 A 
ATOM     19  F   UNL     1       2.104  -1.148  -3.415  0.00  0.00    -0.202 F 
ENDBRANCH  12  13
ENDBRANCH  11  12
ENDBRANCH   6  11
ENDBRANCH   2   8
ENDBRANCH   1   3
BRANCH   1  20
ATOM     20  N   UNL     1      -6.423  -1.589   3.216  0.00  0.00    -0.300 N 
ATOM     21  C   UNL     1      -7.766  -1.501   3.279  0.00  0.00    +0.245 C 
ATOM     22  O   UNL     1      -8.426  -1.533   2.259  0.00  0.00    -0.270 OA
ATOM     23  H   UNL     1      -5.896  -1.563   4.031  0.00  0.00    +0.150 HD
BRANCH  21  24
ATOM     24  C   UNL     1      -8.437  -1.368   4.589  0.00  0.00    +0.037 A 
ATOM     25  C   UNL     1      -7.682  -1.326   5.763  0.00  0.00    +0.014 A 
ATOM     26  C   UNL     1      -8.314  -1.200   6.982  0.00  0.00    +0.021 A 
ATOM     27  C   UNL     1      -9.695  -1.117   7.044  0.00  0.00    +0.041 A 
ATOM     28  C   UNL     1     -10.450  -1.158   5.883  0.00  0.00    +0.021 A 
ATOM     29  C   UNL     1      -9.829  -1.277   4.658  0.00  0.00    +0.014 A 
ATOM     30 CL   UNL     1     -10.483  -0.960   8.582  0.00  0.00    -0.084 Cl
ENDBRANCH  21  24
ENDBRANCH   1  20
BRANCH   1  31
ATOM     31  C   UNL     1      -5.726  -3.195   1.509  0.00  0.00    +0.067 C 
BRANCH  31  32
ATOM     32  C   UNL     1      -7.133  -3.685   1.288  0.00  0.00    -0.045 A 
ATOM     33  C   UNL     1      -7.850  -4.226   2.339  0.00  0.00    +0.004 A 
ATOM     34  C   UNL     1      -9.141  -4.676   2.135  0.00  0.00    +0.000 A 
ATOM     35  C   UNL     1      -9.716  -4.585   0.881  0.00  0.00    +0.000 A 
ATOM     36  C   UNL     1      -8.999  -4.043  -0.169  0.00  0.00    +0.000 A 
ATOM     37  C   UNL     1      -7.709  -3.590   0.035  0.00  0.00    +0.004 A 
ENDBRANCH  31  32
ENDBRANCH   1  31
TORSDOF 9
