REMARK  Name = ZINC14879938
REMARK  12 active torsions:
REMARK  status: ('A' for Active; 'I' for Inactive)
REMARK    1  A    between atoms: C_1  and  C_2
REMARK    2  A    between atoms: C_2  and  C_3
REMARK    3  A    between atoms: C_3  and  C_4
REMARK    4  A    between atoms: C_4  and  C_19
REMARK    5  A    between atoms: N_7  and  C_11
REMARK    6  A    between atoms: C_11  and  C_12
REMARK    7  A    between atoms: C_12  and  C_13
REMARK    8  A    between atoms: C_18  and  N_76
REMARK    9  A    between atoms: C_25  and  C_27
REMARK   10  A    between atoms: C_31  and  N_33
REMARK   11  A    between atoms: N_33  and  C_34
REMARK   12  A    between atoms: N_33  and  C_35
REMARK                            x       y       z     vdW  Elec       q    Type
REMARK                         _______ _______ _______ _____ _____    ______ ____
ROOT
ATOM      1  C   UNL     1      -0.117  -4.335   1.032  0.00  0.00    +0.115 C 
ATOM      2  C   UNL     1       0.208  -2.869   0.825  0.00  0.00    +0.247 C 
ATOM      3  O   UNL     1      -0.282  -2.119   0.009  0.00  0.00    -0.273 OA
ATOM      4  N   UNL     1       1.154  -2.573   1.738  0.00  0.00    -0.224 N 
ATOM      5  C   UNL     1       1.472  -3.638   2.482  0.00  0.00    +0.309 C 
ATOM      6  O   UNL     1       2.303  -3.619   3.369  0.00  0.00    -0.252 OA
ATOM      7  N   UNL     1       0.766  -4.732   2.142  0.00  0.00    -0.285 N 
ATOM      8  H   UNL     1       0.830  -5.612   2.546  0.00  0.00    +0.151 HD
ENDROOT
BRANCH   1   9
ATOM      9  C   UNL     1      -1.586  -4.511   1.424  0.00  0.00    +0.024 C 
ATOM     10  C   UNL     1      -2.479  -4.090   0.255  0.00  0.00    +0.025 C 
ATOM     11  C   UNL     1      -3.948  -4.300   0.638  0.00  0.00    +0.108 C 
ATOM     12  N   UNL     1      -4.216  -3.582   1.892  0.00  0.00    -0.298 N 
ATOM     13  C   UNL     1      -3.357  -3.845   3.054  0.00  0.00    +0.108 C 
ATOM     14  C   UNL     1      -1.896  -3.640   2.644  0.00  0.00    +0.025 C 
ATOM     15  C   UNL     1      -5.232  -2.699   1.974  0.00  0.00    +0.247 C 
ATOM     16  O   UNL     1      -5.997  -2.565   1.039  0.00  0.00    -0.270 OA
BRANCH  15  17
ATOM     17  C   UNL     1      -5.415  -1.894   3.200  0.00  0.00    +0.039 A 
ATOM     18  C   UNL     1      -4.304  -1.476   3.936  0.00  0.00    +0.013 A 
ATOM     19  C   UNL     1      -4.477  -0.721   5.077  0.00  0.00    +0.003 A 
ATOM     20  C   UNL     1      -5.748  -0.385   5.503  0.00  0.00    +0.023 A 
ATOM     21  C   UNL     1      -6.861  -0.800   4.782  0.00  0.00    +0.030 A 
ATOM     22  C   UNL     1      -6.697  -1.555   3.630  0.00  0.00    +0.036 A 
BRANCH  21  23
ATOM     23  N   UNL     1      -8.143  -0.457   5.216  0.00  0.00    -0.336 N 
ATOM     24  C   UNL     1      -9.316  -0.895   4.455  0.00  0.00    +0.129 C 
ATOM     25  C   UNL     1      -8.316   0.340   6.433  0.00  0.00    +0.129 C 
ENDBRANCH  21  23
ENDBRANCH  15  17
ENDBRANCH   1   9
BRANCH   1  26
ATOM     26  C   UNL     1       0.205  -5.141  -0.227  0.00  0.00    +0.035 C 
BRANCH  26  28
ATOM     27  C   UNL     1       2.034  -5.899  -1.752  0.00  0.00    +0.004 C 
ATOM     28  C   UNL     1       1.711  -5.092  -0.492  0.00  0.00    -0.001 C 
ENDBRANCH  26  28
ENDBRANCH   1  26
BRANCH   4  29
ATOM     29  C   UNL     1       1.763  -1.250   1.893  0.00  0.00    +0.116 C 
BRANCH  29  30
ATOM     30  C   UNL     1       0.949  -0.427   2.893  0.00  0.00    +0.004 C 
BRANCH  30  31
ATOM     31  C   UNL     1       1.650   0.910   3.144  0.00  0.00    -0.068 C 
ATOM     32  C   UNL     1       3.018   0.680   3.821  0.00  0.00    -0.017 C 
ATOM     33  C   UNL     1       3.169   1.843   4.824  0.00  0.00    -0.020 C 
ATOM     34  C   UNL     1       1.879   2.676   4.669  0.00  0.00    -0.079 C 
ATOM     35  C   UNL     1      -0.222   2.436   3.456  0.00  0.00    -0.096 C 
ATOM     36  N   UNL     1       0.916   1.723   4.120  0.00  0.00    +0.380 N 
ATOM     37  H   UNL     1       0.548   1.126   4.870  0.00  0.00    -0.082 HD
ENDBRANCH  30  31
ENDBRANCH  29  30
ENDBRANCH   4  29
TORSDOF 8
