REMARK  Name = ZINC01924716
REMARK  8 active torsions:
REMARK  status: ('A' for Active; 'I' for Inactive)
REMARK    1  A    between atoms: C_1  and  C_2
REMARK    2  A    between atoms: C_2  and  O_3
REMARK    3  A    between atoms: O_3  and  C_4
REMARK    4  A    between atoms: C_9  and  C_10
REMARK    5  A    between atoms: C_11  and  C_12
REMARK    6  A    between atoms: N_14  and  C_15
REMARK    7  A    between atoms: C_16  and  C_26
REMARK    8  A    between atoms: C_21  and  C_25
REMARK                            x       y       z     vdW  Elec       q    Type
REMARK                         _______ _______ _______ _____ _____    ______ ____
ROOT
ATOM      1  C   UNL     1       3.165  -1.046  -5.577  0.00  0.00    +0.241 C 
ATOM      2  O   UNL     1       3.075   0.160  -5.438  0.00  0.00    -0.270 OA
ATOM      3  N   UNL     1       3.783  -1.554  -6.662  0.00  0.00    -0.276 N 
ATOM      4  H   UNL     1       3.855  -2.515  -6.772  0.00  0.00    +0.156 HD
ENDROOT
BRANCH   3   5
ATOM      5  C   UNL     1       4.315  -0.705  -7.618  0.00  0.00    +0.085 A 
ATOM      6  C   UNL     1       4.974  -1.046  -8.789  0.00  0.00    +0.068 A 
ATOM      7  C   UNL     1       5.439   0.043  -9.630  0.00  0.00    -0.023 A 
ATOM      8  C   UNL     1       5.160   1.273  -9.146  0.00  0.00    -0.004 A 
ATOM      9  S   UNL     1       4.303   0.974  -7.628  0.00  0.00    -0.077 S 
ATOM     10  C   UNL     1       5.504   2.587  -9.777  0.00  0.00    +0.046 C 
ATOM     11  C   UNL     1       5.888   2.333 -11.242  0.00  0.00    -0.009 C 
ATOM     12  C   UNL     1       6.886   1.172 -11.298  0.00  0.00    +0.008 C 
ATOM     13  C   UNL     1       6.180  -0.139 -10.947  0.00  0.00    +0.037 C 
ATOM     14  C   UNL     1       6.530   3.591 -11.829  0.00  0.00    +0.008 C 
BRANCH   6  15
ATOM     15  C   UNL     1       5.192  -2.446  -9.163  0.00  0.00    +0.244 C 
ATOM     16  O   UNL     1       4.363  -3.034  -9.834  0.00  0.00    -0.270 OA
ATOM     17  N   UNL     1       6.310  -3.084  -8.763  0.00  0.00    -0.325 N 
ATOM     18  H   UNL     1       6.971  -2.616  -8.229  0.00  0.00    +0.145 HD
ATOM     19  H   UNL     1       6.455  -4.011  -9.011  0.00  0.00    +0.145 HD
ENDBRANCH   6  15
ENDBRANCH   3   5
BRANCH   1  21
ATOM     20  C   UNL     1       1.985  -1.432  -3.482  0.00  0.00    +0.016 C 
ATOM     21  C   UNL     1       2.604  -1.942  -4.568  0.00  0.00    +0.068 C 
BRANCH  20  27
ATOM     22  C   UNL     1       0.777  -1.808  -1.336  0.00  0.00    +0.128 A 
ATOM     23  C   UNL     1       0.244  -2.668  -0.388  0.00  0.00    +0.047 A 
ATOM     24  C   UNL     1       0.351  -4.035  -0.554  0.00  0.00    +0.019 A 
ATOM     25  C   UNL     1       0.992  -4.559  -1.667  0.00  0.00    +0.019 A 
ATOM     26  C   UNL     1       1.528  -3.720  -2.620  0.00  0.00    +0.026 A 
ATOM     27  C   UNL     1       1.421  -2.333  -2.467  0.00  0.00    +0.018 A 
ATOM     28 BR   UNL     1       1.130  -6.433  -1.877  0.00  0.00    -0.050 Br
BRANCH  22  29
ATOM     29  O   UNL     1       0.671  -0.465  -1.174  0.00  0.00    -0.492 OA
BRANCH  29  31
ATOM     30  C   UNL     1      -0.019   1.526   0.010  0.00  0.00    +0.048 C 
ATOM     31  C   UNL     1       0.002  -0.004   0.002  0.00  0.00    +0.226 C 
ENDBRANCH  29  31
ENDBRANCH  22  29
ENDBRANCH  20  27
ENDBRANCH   1  21
TORSDOF 6
