REMARK  Name = ZINC35496572
REMARK  14 active torsions:
REMARK  status: ('A' for Active; 'I' for Inactive)
REMARK    1  A    between atoms: C_1  and  C_2
REMARK    2  A    between atoms: C_4  and  C_8
REMARK    3  A    between atoms: N_5  and  C_7
REMARK    4  A    between atoms: C_8  and  N_9
REMARK    5  A    between atoms: N_9  and  C_10
REMARK    6  A    between atoms: C_10  and  C_11
REMARK    7  A    between atoms: C_11  and  C_12
REMARK    8  A    between atoms: C_12  and  N_13
REMARK    9  A    between atoms: C_14  and  C_16
REMARK   10  A    between atoms: C_27  and  O_29
REMARK   11  A    between atoms: O_29  and  C_30
REMARK   12  A    between atoms: C_30  and  C_31
REMARK   13  A    between atoms: C_30  and  C_32
REMARK   14  A    between atoms: C_30  and  C_33
REMARK                            x       y       z     vdW  Elec       q    Type
REMARK                         _______ _______ _______ _____ _____    ______ ____
ROOT
ATOM      1  N   UNL     1       4.352  -6.901  -3.829  0.00  0.00    -0.204 N 
ATOM      2  C   UNL     1       4.866  -7.968  -3.186  0.00  0.00    +0.268 C 
ATOM      3  O   UNL     1       4.212  -8.539  -2.340  0.00  0.00    -0.271 OA
ATOM      4  C   UNL     1       5.117  -6.198  -4.688  0.00  0.00    +0.410 C 
ATOM      5  O   UNL     1       6.239  -6.579  -4.953  0.00  0.00    -0.226 OA
ENDROOT
BRANCH   2   6
ATOM      6  C   UNL     1       6.254  -8.451  -3.520  0.00  0.00    +0.296 C 
ATOM      7  C   UNL     1       6.243  -9.159  -4.881  0.00  0.00    +0.283 C 
ATOM      8  O   UNL     1       7.571  -9.617  -5.160  0.00  0.00    -0.484 OA
ATOM      9  C   UNL     1       8.222 -10.255  -4.149  0.00  0.00    +0.162 A 
ATOM     10  C   UNL     1       9.335 -11.030  -4.439  0.00  0.00    +0.049 A 
ATOM     11  C   UNL     1      10.009 -11.681  -3.424  0.00  0.00    +0.004 A 
ATOM     12  C   UNL     1       9.576 -11.562  -2.116  0.00  0.00    +0.004 A 
ATOM     13  C   UNL     1       8.467 -10.792  -1.820  0.00  0.00    +0.049 A 
ATOM     14  C   UNL     1       7.785 -10.137  -2.835  0.00  0.00    +0.163 A 
ATOM     15  O   UNL     1       6.690  -9.389  -2.529  0.00  0.00    -0.472 OA
ENDBRANCH   2   6
BRANCH   1  16
ATOM     16  C   UNL     1       2.961  -6.505  -3.594  0.00  0.00    +0.118 C 
BRANCH  16  17
ATOM     17  C   UNL     1       2.904  -5.511  -2.432  0.00  0.00    +0.001 C 
BRANCH  17  18
ATOM     18  C   UNL     1       1.451  -5.097  -2.187  0.00  0.00    -0.081 C 
BRANCH  18  19
ATOM     19  N   UNL     1       1.396  -4.142  -1.071  0.00  0.00    +0.383 N 
ATOM     20  H   UNL     1       1.944  -3.326  -1.299  0.00  0.00    -0.085 HD
ATOM     21  H   UNL     1       1.767  -4.576  -0.239  0.00  0.00    -0.085 HD
BRANCH  19  22
ATOM     22  C   UNL     1       0.001  -3.745  -0.835  0.00  0.00    -0.027 C 
BRANCH  22  26
ATOM     23  C   UNL     1      -0.151   0.579   1.851  0.00  0.00    +0.067 C 
ATOM     24  C   UNL     1      -0.123  -0.886   1.498  0.00  0.00    +0.060 A 
ATOM     25  C   UNL     1      -0.064  -1.417   0.205  0.00  0.00    +0.045 A 
ATOM     26  C   UNL     1      -0.055  -2.766   0.309  0.00  0.00    +0.022 A 
ATOM     27  N   UNL     1      -0.107  -3.078   1.621  0.00  0.00    -0.273 N 
ATOM     28  N   UNL     1      -0.144  -1.880   2.347  0.00  0.00    -0.177 NA
ATOM     29  C   UNL     1      -0.118  -4.429   2.186  0.00  0.00    +0.172 C 
ENDBRANCH  22  26
ENDBRANCH  19  22
ENDBRANCH  18  19
ENDBRANCH  17  18
ENDBRANCH  16  17
ENDBRANCH   1  16
BRANCH   4  30
ATOM     30  O   UNL     1       4.637  -5.074  -5.252  0.00  0.00    -0.444 OA
BRANCH  30  31
ATOM     31  C   UNL     1       5.502  -4.380  -6.153  0.00  0.00    +0.107 C 
ATOM     32  C   UNL     1       5.869  -5.301  -7.319  0.00  0.00    +0.055 C 
ATOM     33  C   UNL     1       4.788  -3.138  -6.690  0.00  0.00    +0.055 C 
ATOM     34  C   UNL     1       6.774  -3.959  -5.415  0.00  0.00    +0.055 C 
ENDBRANCH  30  31
ENDBRANCH   4  30
TORSDOF 9
