REMARK  Name = ZINC47176534
REMARK  8 active torsions:
REMARK  status: ('A' for Active; 'I' for Inactive)
REMARK    1  A    between atoms: C_1  and  C_2
REMARK    2  A    between atoms: N_11  and  C_15
REMARK    3  A    between atoms: C_15  and  C_16
REMARK    4  A    between atoms: C_16  and  O_18
REMARK    5  A    between atoms: O_18  and  C_19
REMARK    6  A    between atoms: C_19  and  C_21
REMARK    7  A    between atoms: C_19  and  C_22
REMARK    8  A    between atoms: C_25  and  N_28
REMARK                            x       y       z     vdW  Elec       q    Type
REMARK                         _______ _______ _______ _____ _____    ______ ____
ROOT
ATOM      1  C   UNL     1       3.332   1.546   2.915  0.00  0.00    +0.238 C 
ENDROOT
BRANCH   1  11
ATOM      2  C   UNL     1      -0.019   1.526   0.010  0.00  0.00    +0.010 C 
ATOM      3  C   UNL     1       0.002  -0.004   0.002  0.00  0.00    +0.018 C 
ATOM      4  C   UNL     1       0.718  -0.497  -1.258  0.00  0.00    +0.006 C 
ATOM      5  C   UNL     1       0.756  -2.027  -1.256  0.00  0.00    +0.000 C 
ATOM      6  C   UNL     1       1.519  -2.517  -0.023  0.00  0.00    +0.003 C 
ATOM      7  C   UNL     1       0.807  -2.032   1.242  0.00  0.00    +0.035 C 
ATOM      8  C   UNL     1       0.739  -0.509   1.238  0.00  0.00    +0.115 C 
ATOM      9  C   UNL     1       2.128   0.083   1.303  0.00  0.00    +0.247 C 
ATOM     10  O   UNL     1       3.022  -0.055   0.496  0.00  0.00    -0.273 OA
ATOM     11  N   UNL     1       2.163   0.796   2.447  0.00  0.00    -0.213 N 
ATOM     12  C   UNL     1       0.998   0.734   3.103  0.00  0.00    +0.310 C 
ATOM     13  O   UNL     1       0.786   1.296   4.159  0.00  0.00    -0.252 OA
ATOM     14  N   UNL     1       0.086  -0.021   2.460  0.00  0.00    -0.285 N 
ATOM     15  H   UNL     1      -0.822  -0.205   2.747  0.00  0.00    +0.151 HD
ENDBRANCH   1  11
BRANCH   1  16
ATOM     16  C   UNL     1       3.277   2.951   2.373  0.00  0.00    +0.326 C 
ATOM     17  O   UNL     1       2.357   3.291   1.669  0.00  0.00    -0.249 OA
BRANCH  16  18
ATOM     18  O   UNL     1       4.252   3.824   2.673  0.00  0.00    -0.456 OA
BRANCH  18  19
ATOM     19  C   UNL     1       4.136   5.139   2.125  0.00  0.00    +0.204 C 
ATOM     20  C   UNL     1       3.358   6.029   3.096  0.00  0.00    +0.057 C 
BRANCH  19  21
ATOM     21  C   UNL     1       5.511   5.715   1.907  0.00  0.00    -0.007 A 
ATOM     22  C   UNL     1       6.534   5.414   2.787  0.00  0.00    +0.009 A 
ATOM     23  C   UNL     1       7.795   5.942   2.587  0.00  0.00    +0.033 A 
ATOM     24  C   UNL     1       8.034   6.772   1.507  0.00  0.00    +0.126 A 
ATOM     25  C   UNL     1       7.011   7.072   0.627  0.00  0.00    +0.033 A 
ATOM     26  C   UNL     1       5.751   6.540   0.825  0.00  0.00    +0.009 A 
BRANCH  24  27
ATOM     27  N   UNL     1       9.385   7.339   1.293  0.00  0.00    +0.056 N 
ATOM     28  O   UNL     1      10.279   7.076   2.063  0.00  0.00    -0.126 OA
ATOM     29  O   UNL     1       9.593   8.064   0.349  0.00  0.00    -0.126 OA
ENDBRANCH  24  27
ENDBRANCH  19  21
ENDBRANCH  18  19
ENDBRANCH  16  18
ENDBRANCH   1  16
TORSDOF 6
