REMARK  Name = ZINC05493826
REMARK  10 active torsions:
REMARK  status: ('A' for Active; 'I' for Inactive)
REMARK    1  A    between atoms: C_1  and  C_2
REMARK    2  A    between atoms: C_2  and  C_4
REMARK    3  A    between atoms: C_2  and  N_10
REMARK    4  A    between atoms: N_10  and  S_11
REMARK    5  A    between atoms: S_11  and  C_14
REMARK    6  A    between atoms: C_17  and  O_20
REMARK    7  A    between atoms: O_20  and  C_21
REMARK    8  A    between atoms: C_21  and  C_22
REMARK    9  A    between atoms: N_24  and  C_25
REMARK   10  A    between atoms: C_29  and  N_31
REMARK                            x       y       z     vdW  Elec       q    Type
REMARK                         _______ _______ _______ _____ _____    ______ ____
ROOT
ATOM      1  C   UNL     1      -1.228  -2.272  -2.079  0.00  0.00    +0.105 A 
ATOM      2  C   UNL     1      -0.168  -2.050  -2.939  0.00  0.00    +0.032 A 
ATOM      3  C   UNL     1       0.517  -3.118  -3.485  0.00  0.00    +0.047 A 
ATOM      4  C   UNL     1       0.141  -4.416  -3.168  0.00  0.00    +0.121 A 
ATOM      5  C   UNL     1      -0.922  -4.637  -2.305  0.00  0.00    +0.047 A 
ATOM      6  C   UNL     1      -1.600  -3.565  -1.758  0.00  0.00    +0.032 A 
ENDROOT
BRANCH   1   7
ATOM      7  S   UNL     1      -2.100  -0.907  -1.385  0.00  0.00    +0.059 S 
ATOM      8  O   UNL     1      -3.391  -1.386  -1.036  0.00  0.00    -0.153 OA
ATOM      9  O   UNL     1      -1.907   0.189  -2.268  0.00  0.00    -0.153 OA
BRANCH   7  10
ATOM     10  N   UNL     1      -1.342  -0.512   0.033  0.00  0.00    -0.183 NA
ATOM     11  H   UNL     1      -1.808  -0.616   0.877  0.00  0.00    +0.149 HD
BRANCH  10  13
ATOM     12  C   UNL     1       0.012   1.525   0.022  0.00  0.00    +0.031 C 
ATOM     13  C   UNL     1       0.033  -0.005   0.013  0.00  0.00    +0.103 C 
BRANCH  13  14
ATOM     14  C   UNL     1       0.770  -0.505   1.228  0.00  0.00    -0.029 A 
ATOM     15  C   UNL     1       0.129  -0.560   2.451  0.00  0.00    +0.005 A 
ATOM     16  C   UNL     1       0.806  -1.019   3.566  0.00  0.00    +0.000 A 
ATOM     17  C   UNL     1       2.124  -1.422   3.457  0.00  0.00    +0.000 A 
ATOM     18  C   UNL     1       2.764  -1.368   2.233  0.00  0.00    +0.000 A 
ATOM     19  C   UNL     1       2.086  -0.913   1.118  0.00  0.00    +0.005 A 
ENDBRANCH  13  14
ENDBRANCH  10  13
ENDBRANCH   7  10
ENDBRANCH   1   7
BRANCH   4  20
ATOM     20  O   UNL     1       0.813  -5.468  -3.704  0.00  0.00    -0.483 OA
BRANCH  20  21
ATOM     21  C   UNL     1       0.371  -6.776  -3.334  0.00  0.00    +0.324 C 
BRANCH  21  22
ATOM     22  C   UNL     1       1.228  -7.809  -4.020  0.00  0.00    +0.255 C 
ATOM     23  O   UNL     1       2.129  -7.459  -4.753  0.00  0.00    -0.272 OA
ATOM     24  N   UNL     1       0.994  -9.120  -3.818  0.00  0.00    -0.283 N 
ATOM     25  H   UNL     1       0.319  -9.400  -3.180  0.00  0.00    +0.155 HD
BRANCH  24  26
ATOM     26  C   UNL     1       1.726 -10.079  -4.528  0.00  0.00    +0.036 A 
ATOM     27  C   UNL     1       1.118 -11.262  -4.929  0.00  0.00    +0.023 A 
ATOM     28  C   UNL     1       1.842 -12.206  -5.630  0.00  0.00    +0.004 A 
ATOM     29  C   UNL     1       3.171 -11.974  -5.933  0.00  0.00    +0.033 A 
ATOM     30  C   UNL     1       3.780 -10.798  -5.535  0.00  0.00    +0.128 A 
ATOM     31  C   UNL     1       3.059  -9.847  -4.839  0.00  0.00    +0.056 A 
BRANCH  30  32
ATOM     32  N   UNL     1       5.203 -10.555  -5.860  0.00  0.00    +0.056 N 
ATOM     33  O   UNL     1       5.833 -11.385  -6.474  0.00  0.00    -0.126 OA
ATOM     34  O   UNL     1       5.735  -9.527  -5.513  0.00  0.00    -0.126 OA
ENDBRANCH  30  32
ENDBRANCH  24  26
ENDBRANCH  21  22
ENDBRANCH  20  21
ENDBRANCH   4  20
TORSDOF 9
