REMARK  Name = ZINC36774305
REMARK  9 active torsions:
REMARK  status: ('A' for Active; 'I' for Inactive)
REMARK    1  A    between atoms: C_1  and  C_2
REMARK    2  A    between atoms: C_5  and  C_8
REMARK    3  A    between atoms: C_8  and  N_9
REMARK    4  A    between atoms: C_10  and  C_29
REMARK    5  A    between atoms: C_11  and  C_15
REMARK    6  A    between atoms: C_12  and  C_14
REMARK    7  A    between atoms: C_16  and  C_17
REMARK    8  A    between atoms: N_19  and  C_20
REMARK    9  A    between atoms: C_23  and  N_26
REMARK                            x       y       z     vdW  Elec       q    Type
REMARK                         _______ _______ _______ _____ _____    ______ ____
ROOT
ATOM      1  N   UNL     1       1.443  -4.730  -0.048  0.00  0.00    -0.263 N 
ATOM      2  C   UNL     1       2.184  -4.980  -1.141  0.00  0.00    +0.044 A 
ATOM      3  C   UNL     1       3.428  -5.403  -0.709  0.00  0.00    +0.018 A 
ATOM      4  C   UNL     1       3.401  -5.396   0.705  0.00  0.00    +0.067 A 
ATOM      5  N   UNL     1       2.221  -4.990   1.085  0.00  0.00    -0.175 NA
ATOM      6  C   UNL     1       4.539  -5.784   1.614  0.00  0.00    +0.068 C 
ATOM      7  C   UNL     1       1.742  -4.827  -2.574  0.00  0.00    +0.066 C 
ENDROOT
BRANCH   3   8
ATOM      8  C   UNL     1       4.564  -5.787  -1.559  0.00  0.00    +0.016 C 
ATOM      9  C   UNL     1       5.785  -5.255  -1.334  0.00  0.00    +0.068 C 
BRANCH   9  10
ATOM     10  C   UNL     1       6.881  -5.626  -2.154  0.00  0.00    +0.241 C 
ATOM     11  O   UNL     1       6.721  -6.423  -3.060  0.00  0.00    -0.270 OA
ATOM     12  N   UNL     1       8.100  -5.096  -1.930  0.00  0.00    -0.282 N 
ATOM     13  H   UNL     1       8.214  -4.412  -1.253  0.00  0.00    +0.155 HD
BRANCH  12  14
ATOM     14  C   UNL     1       9.199  -5.533  -2.675  0.00  0.00    +0.034 A 
ATOM     15  C   UNL     1      10.452  -5.620  -2.081  0.00  0.00    +0.025 A 
ATOM     16  C   UNL     1      11.536  -6.052  -2.819  0.00  0.00    +0.034 A 
ATOM     17  C   UNL     1      11.376  -6.397  -4.149  0.00  0.00    +0.126 A 
ATOM     18  C   UNL     1      10.130  -6.311  -4.744  0.00  0.00    +0.034 A 
ATOM     19  C   UNL     1       9.041  -5.885  -4.009  0.00  0.00    +0.025 A 
BRANCH  17  20
ATOM     20  N   UNL     1      12.540  -6.859  -4.938  0.00  0.00    +0.056 N 
ATOM     21  O   UNL     1      13.630  -6.934  -4.419  0.00  0.00    -0.126 OA
ATOM     22  O   UNL     1      12.402  -7.160  -6.100  0.00  0.00    -0.126 OA
ENDBRANCH  17  20
ENDBRANCH  12  14
ENDBRANCH   9  10
ENDBRANCH   3   8
BRANCH   1  23
ATOM     23  C   UNL     1       0.056  -4.260  -0.044  0.00  0.00    +0.178 C 
BRANCH  23  28
ATOM     24  C   UNL     1      -0.021   1.519  -0.056  0.00  0.00    +0.044 C 
ATOM     25  C   UNL     1      -0.001   0.012  -0.053  0.00  0.00    -0.050 A 
ATOM     26  C   UNL     1       0.005  -0.682  -1.248  0.00  0.00    +0.004 A 
ATOM     27  C   UNL     1       0.024  -2.064  -1.246  0.00  0.00    +0.006 A 
ATOM     28  C   UNL     1       0.036  -2.753  -0.047  0.00  0.00    -0.026 A 
ATOM     29  C   UNL     1       0.031  -2.059   1.148  0.00  0.00    +0.006 A 
ATOM     30  C   UNL     1       0.017  -0.677   1.146  0.00  0.00    +0.004 A 
ENDBRANCH  23  28
ENDBRANCH   1  23
TORSDOF 6
