REMARK  Name = ZINC52798275
REMARK  4 active torsions:
REMARK  status: ('A' for Active; 'I' for Inactive)
REMARK    1  A    between atoms: C_3  and  N_13
REMARK    2  A    between atoms: C_6  and  C_7
REMARK    3  A    between atoms: N_13  and  S_14
REMARK    4  A    between atoms: S_14  and  C_17
REMARK                            x       y       z     vdW  Elec       q    Type
REMARK                         _______ _______ _______ _____ _____    ______ ____
ROOT
ATOM      1  N   UNL     1       3.581   2.135  -0.022  0.00  0.00    -0.216 N 
ATOM      2  H   UNL     1       3.707   2.866  -0.647  0.00  0.00    +0.174 HD
ENDROOT
BRANCH   1   5
ATOM      3  C   UNL     1      -0.002   1.333  -0.112  0.00  0.00    +0.012 A 
ATOM      4  C   UNL     1       1.171   2.057  -0.095  0.00  0.00    +0.025 A 
ATOM      5  C   UNL     1       2.395   1.400  -0.038  0.00  0.00    +0.048 A 
ATOM      6  C   UNL     1       2.438   0.011   0.004  0.00  0.00    +0.025 A 
ATOM      7  C   UNL     1       1.267  -0.717  -0.012  0.00  0.00    +0.012 A 
ATOM      8  C   UNL     1       0.040  -0.059  -0.070  0.00  0.00    +0.002 A 
BRANCH   8   9
ATOM      9  C   UNL     1      -1.222  -0.841  -0.087  0.00  0.00    +0.092 A 
ATOM     10  C   UNL     1      -1.327  -2.245  -0.044  0.00  0.00    +0.049 A 
ATOM     11  C   UNL     1      -2.640  -2.562  -0.078  0.00  0.00    +0.105 A 
ATOM     12  N   UNL     1      -3.346  -1.413  -0.140  0.00  0.00    -0.284 N 
ATOM     13  H   UNL     1      -4.312  -1.339  -0.174  0.00  0.00    +0.188 HD
ATOM     14  N   UNL     1      -2.440  -0.344  -0.140  0.00  0.00    -0.174 NA
ENDBRANCH   8   9
ENDBRANCH   1   5
BRANCH   1  15
ATOM     15  S   UNL     1       4.775   1.758   1.063  0.00  0.00    +0.072 S 
ATOM     16  O   UNL     1       5.027   0.367   0.922  0.00  0.00    -0.150 OA
ATOM     17  O   UNL     1       5.792   2.737   0.903  0.00  0.00    -0.150 OA
BRANCH  15  18
ATOM     18  C   UNL     1       4.104   1.988   2.676  0.00  0.00    +0.109 A 
ATOM     19  C   UNL     1       4.111   3.250   3.251  0.00  0.00    +0.032 A 
ATOM     20  C   UNL     1       3.590   3.451   4.512  0.00  0.00    +0.049 A 
ATOM     21  C   UNL     1       3.053   2.381   5.216  0.00  0.00    +0.139 A 
ATOM     22  C   UNL     1       3.047   1.104   4.630  0.00  0.00    +0.019 A 
ATOM     23  C   UNL     1       3.575   0.922   3.348  0.00  0.00    +0.040 A 
ATOM     24  C   UNL     1       2.478  -0.020   5.380  0.00  0.00    +0.018 A 
ATOM     25  C   UNL     1       1.977   0.224   6.618  0.00  0.00    +0.092 A 
ATOM     26  C   UNL     1       2.015   1.533   7.145  0.00  0.00    +0.337 A 
ATOM     27  O   UNL     1       1.562   1.738   8.256  0.00  0.00    -0.245 OA
ATOM     28  O   UNL     1       2.538   2.557   6.452  0.00  0.00    -0.422 OA
ENDBRANCH  15  18
ENDBRANCH   1  15
TORSDOF 4
