REMARK  Name = ZINC12564601
REMARK  6 active torsions:
REMARK  status: ('A' for Active; 'I' for Inactive)
REMARK    1  A    between atoms: C_1  and  C_2
REMARK    2  A    between atoms: C_3  and  C_27
REMARK    3  A    between atoms: C_4  and  C_10
REMARK    4  A    between atoms: C_13  and  N_16
REMARK    5  A    between atoms: C_19  and  C_21
REMARK    6  A    between atoms: N_29  and  C_30
REMARK                            x       y       z     vdW  Elec       q    Type
REMARK                         _______ _______ _______ _____ _____    ______ ____
ROOT
ATOM      1  C   UNL     1      -4.090   7.567   0.360  0.00  0.00    +0.061 C 
ATOM      2  C   UNL     1      -2.734   8.216   0.257  0.00  0.00    +0.019 C 
ATOM      3  C   UNL     1      -1.635   7.442   0.139  0.00  0.00    +0.056 C 
ATOM      4  C   UNL     1      -0.291   8.136   0.045  0.00  0.00    +0.142 C 
ATOM      5  N   UNL     1      -0.296   9.608   0.078  0.00  0.00    -0.288 N 
ATOM      6  C   UNL     1      -1.478  10.243   0.201  0.00  0.00    +0.304 C 
ATOM      7  O   UNL     1      -1.492  11.458   0.235  0.00  0.00    -0.252 OA
ATOM      8  N   UNL     1      -2.638   9.579   0.286  0.00  0.00    -0.273 N 
ATOM      9  H   UNL     1       0.533  10.109   0.018  0.00  0.00    +0.151 HD
ATOM     10  H   UNL     1      -3.455  10.094   0.372  0.00  0.00    +0.156 HD
ENDROOT
BRANCH   4  11
ATOM     11  C   UNL     1       0.364   7.707  -1.243  0.00  0.00    -0.022 A 
ATOM     12  C   UNL     1      -0.041   8.267  -2.442  0.00  0.00    +0.007 A 
ATOM     13  C   UNL     1       0.561   7.881  -3.623  0.00  0.00    +0.025 A 
ATOM     14  C   UNL     1       1.565   6.920  -3.608  0.00  0.00    +0.052 A 
ATOM     15  C   UNL     1       1.965   6.356  -2.403  0.00  0.00    +0.025 A 
ATOM     16  C   UNL     1       1.363   6.752  -1.224  0.00  0.00    +0.007 A 
BRANCH  14  17
ATOM     17  N   UNL     1       2.170   6.523  -4.801  0.00  0.00    -0.224 N 
ATOM     18  C   UNL     1       1.839   7.034  -6.141  0.00  0.00    +0.138 C 
ATOM     19  C   UNL     1       2.799   6.264  -7.069  0.00  0.00    +0.078 C 
ATOM     20  C   UNL     1       3.581   5.376  -6.129  0.00  0.00    +0.068 C 
ATOM     21  N   UNL     1       3.183   5.574  -4.919  0.00  0.00    -0.184 NA
BRANCH  20  22
ATOM     22  C   UNL     1       4.636   4.428  -6.533  0.00  0.00    -0.002 A 
ATOM     23  C   UNL     1       4.980   4.294  -7.880  0.00  0.00    +0.010 A 
ATOM     24  C   UNL     1       5.972   3.410  -8.251  0.00  0.00    +0.001 A 
ATOM     25  C   UNL     1       6.618   2.649  -7.293  0.00  0.00    +0.000 A 
ATOM     26  C   UNL     1       6.279   2.772  -5.957  0.00  0.00    +0.001 A 
ATOM     27  C   UNL     1       5.293   3.656  -5.571  0.00  0.00    +0.010 A 
ENDBRANCH  20  22
ENDBRANCH  14  17
ENDBRANCH   4  11
BRANCH   3  28
ATOM     28  C   UNL     1      -1.734   6.030   0.110  0.00  0.00    +0.248 C 
ATOM     29  O   UNL     1      -1.402   5.376   1.082  0.00  0.00    -0.270 OA
ATOM     30  N   UNL     1      -2.195   5.409  -0.994  0.00  0.00    -0.282 N 
ATOM     31  H   UNL     1      -2.341   5.914  -1.809  0.00  0.00    +0.155 HD
BRANCH  30  32
ATOM     32  C   UNL     1      -2.462   4.037  -0.965  0.00  0.00    +0.034 A 
ATOM     33  C   UNL     1      -3.489   3.511  -1.738  0.00  0.00    +0.023 A 
ATOM     34  C   UNL     1      -3.749   2.155  -1.707  0.00  0.00    +0.002 A 
ATOM     35  C   UNL     1      -2.990   1.321  -0.907  0.00  0.00    +0.000 A 
ATOM     36  C   UNL     1      -1.970   1.842  -0.132  0.00  0.00    +0.002 A 
ATOM     37  C   UNL     1      -1.700   3.196  -0.162  0.00  0.00    +0.023 A 
ENDBRANCH  30  32
ENDBRANCH   3  28
TORSDOF 5
