REMARK  Name = ZINC25294832
REMARK  13 active torsions:
REMARK  status: ('A' for Active; 'I' for Inactive)
REMARK    1  A    between atoms: C_1  and  C_2
REMARK    2  A    between atoms: C_2  and  C_4
REMARK    3  A    between atoms: C_2  and  N_31
REMARK    4  A    between atoms: N_6  and  C_7
REMARK    5  A    between atoms: C_10  and  N_13
REMARK    6  A    between atoms: C_14  and  C_16
REMARK    7  A    between atoms: C_19  and  S_25
REMARK    8  A    between atoms: C_20  and  N_22
REMARK    9  A    between atoms: S_25  and  C_26
REMARK   10  A    between atoms: C_26  and  C_27
REMARK   11  A    between atoms: C_27  and  C_28
REMARK   12  A    between atoms: C_28  and  C_29
REMARK   13  A    between atoms: C_28  and  C_30
REMARK                            x       y       z     vdW  Elec       q    Type
REMARK                         _______ _______ _______ _____ _____    ______ ____
ROOT
ATOM      1  N   UNL     1       2.603  -2.029   7.169  0.00  0.00    -0.282 N 
ATOM      2  C   UNL     1       1.986  -1.823   8.349  0.00  0.00    +0.248 C 
ATOM      3  O   UNL     1       0.969  -1.157   8.396  0.00  0.00    -0.270 OA
ATOM      4  H   UNL     1       3.449  -2.502   7.140  0.00  0.00    +0.155 HD
ENDROOT
BRANCH   1   8
ATOM      5  C   UNL     1       0.876  -0.631   3.641  0.00  0.00    +0.034 A 
ATOM      6  C   UNL     1       0.745   0.099   4.815  0.00  0.00    +0.025 A 
ATOM      7  C   UNL     1       1.317  -0.363   5.983  0.00  0.00    +0.025 A 
ATOM      8  C   UNL     1       2.022  -1.560   5.984  0.00  0.00    +0.034 A 
ATOM      9  C   UNL     1       2.153  -2.290   4.810  0.00  0.00    +0.025 A 
ATOM     10  C   UNL     1       1.577  -1.830   3.643  0.00  0.00    +0.025 A 
BRANCH   5  13
ATOM     11  C   UNL     1      -0.220  -1.032   1.566  0.00  0.00    +0.242 C 
ATOM     12  O   UNL     1      -0.109  -2.225   1.752  0.00  0.00    -0.273 OA
ATOM     13  N   UNL     1       0.296  -0.161   2.456  0.00  0.00    -0.284 N 
ATOM     14  H   UNL     1       0.266   0.792   2.275  0.00  0.00    +0.155 HD
BRANCH  11  16
ATOM     15  C   UNL     1       0.022   0.331  -0.491  0.00  0.00    +0.042 C 
ATOM     16  C   UNL     1      -0.936  -0.523   0.342  0.00  0.00    +0.191 C 
BRANCH  16  17
ATOM     17  N   UNL     1      -1.400  -1.659  -0.460  0.00  0.00    -0.240 N 
ATOM     18  C   UNL     1      -0.691  -2.343  -1.374  0.00  0.00    +0.219 A 
ATOM     19  N   UNL     1      -1.460  -3.280  -1.866  0.00  0.00    -0.223 NA
ATOM     20  C   UNL     1      -2.662  -3.226  -1.293  0.00  0.00    +0.245 A 
ATOM     21  N   UNL     1      -2.672  -2.252  -0.421  0.00  0.00    -0.158 NA
ENDBRANCH  16  17
ENDBRANCH  11  16
ENDBRANCH   5  13
ENDBRANCH   1   8
BRANCH   2  22
ATOM     22  C   UNL     1       2.543  -2.405   9.584  0.00  0.00    +0.039 A 
ATOM     23  C   UNL     1       3.715  -3.165   9.533  0.00  0.00    +0.014 A 
ATOM     24  C   UNL     1       4.232  -3.704  10.677  0.00  0.00    +0.018 A 
ATOM     25  C   UNL     1       3.595  -3.497  11.898  0.00  0.00    +0.038 A 
ATOM     26  C   UNL     1       2.426  -2.741  11.958  0.00  0.00    +0.140 A 
ATOM     27  C   UNL     1       1.904  -2.192  10.810  0.00  0.00    +0.047 A 
BRANCH  26  28
ATOM     28  N   UNL     1       1.750  -2.524  13.257  0.00  0.00    +0.058 N 
ATOM     29  O   UNL     1       0.736  -1.868  13.309  0.00  0.00    -0.126 OA
ATOM     30  O   UNL     1       2.212  -3.003  14.266  0.00  0.00    -0.126 OA
ENDBRANCH  26  28
BRANCH  25  31
ATOM     31  S   UNL     1       4.267  -4.195  13.370  0.00  0.00    -0.123 S 
BRANCH  31  32
ATOM     32  C   UNL     1       5.751  -5.071  12.802  0.00  0.00    +0.075 C 
BRANCH  32  33
ATOM     33  C   UNL     1       6.441  -5.732  13.997  0.00  0.00    +0.014 C 
BRANCH  33  34
ATOM     34  C   UNL     1       7.693  -6.470  13.518  0.00  0.00    -0.016 C 
ATOM     35  C   UNL     1       8.705  -5.459  12.974  0.00  0.00    +0.007 C 
ATOM     36  C   UNL     1       8.314  -7.234  14.689  0.00  0.00    +0.007 C 
ENDBRANCH  33  34
ENDBRANCH  32  33
ENDBRANCH  31  32
ENDBRANCH  25  31
ENDBRANCH   2  22
TORSDOF 10
