REMARK  Name = ZINC04038456
REMARK  7 active torsions:
REMARK  status: ('A' for Active; 'I' for Inactive)
REMARK    1  A    between atoms: C_1  and  C_2
REMARK    2  A    between atoms: C_2  and  N_3
REMARK    3  A    between atoms: N_3  and  C_4
REMARK    4  A    between atoms: N_3  and  C_6
REMARK    5  A    between atoms: C_4  and  C_5
REMARK    6  A    between atoms: C_9  and  C_12
REMARK    7  A    between atoms: C_15  and  C_20
REMARK                            x       y       z     vdW  Elec       q    Type
REMARK                         _______ _______ _______ _____ _____    ______ ____
ROOT
ATOM      1  C   UNL     1      -3.974  -1.513   4.920  0.00  0.00    +0.132 A 
ATOM      2  N   UNL     1      -5.182  -1.971   5.133  0.00  0.00    -0.155 NA
ATOM      3  N   UNL     1      -5.662  -2.159   6.422  0.00  0.00    -0.184 N 
ATOM      4  C   UNL     1      -6.808  -2.595   7.072  0.00  0.00    +0.206 A 
ATOM      5  N   UNL     1      -6.589  -2.518   8.364  0.00  0.00    -0.125 NA
ATOM      6  N   UNL     1      -5.402  -2.070   8.582  0.00  0.00    -0.120 NA
ATOM      7  C   UNL     1      -4.808  -1.840   7.448  0.00  0.00    +0.219 A 
ATOM      8  S   UNL     1      -3.357  -1.295   6.582  0.00  0.00    -0.026 S 
ENDROOT
BRANCH   4   9
ATOM      9  C   UNL     1      -8.053  -3.063   6.425  0.00  0.00    +0.135 A 
ATOM     10  C   UNL     1      -9.221  -3.502   7.088  0.00  0.00    +0.004 A 
ATOM     11  C   UNL     1     -10.127  -3.841   6.148  0.00  0.00    +0.040 A 
ATOM     12  N   UNL     1      -9.567  -3.630   4.934  0.00  0.00    -0.281 N 
ATOM     13  H   UNL     1      -9.993  -3.789   4.076  0.00  0.00    +0.189 HD
ATOM     14  N   UNL     1      -8.271  -3.138   5.128  0.00  0.00    -0.170 NA
ATOM     15  C   UNL     1     -11.405  -4.321   6.800  0.00  0.00    +0.055 C 
ATOM     16  C   UNL     1     -11.014  -4.639   8.260  0.00  0.00    +0.011 C 
ATOM     17  C   UNL     1      -9.793  -3.718   8.473  0.00  0.00    +0.039 C 
ENDBRANCH   4   9
BRANCH   1  21
ATOM     18  C   UNL     1      -2.015  -0.759   1.225  0.00  0.00    +0.030 A 
ATOM     19  C   UNL     1      -1.352  -0.519   2.424  0.00  0.00    +0.024 A 
ATOM     20  C   UNL     1      -1.985  -0.762   3.623  0.00  0.00    +0.012 A 
ATOM     21  C   UNL     1      -3.292  -1.251   3.635  0.00  0.00    +0.009 A 
ATOM     22  C   UNL     1      -3.955  -1.491   2.430  0.00  0.00    +0.012 A 
ATOM     23  C   UNL     1      -3.320  -1.240   1.233  0.00  0.00    +0.024 A 
BRANCH  18  24
ATOM     24  N   UNL     1      -1.372  -0.511   0.012  0.00  0.00    -0.330 N 
BRANCH  24  26
ATOM     25  C   UNL     1      -0.019   1.526   0.010  0.00  0.00    +0.024 C 
ATOM     26  C   UNL     1       0.002  -0.004   0.002  0.00  0.00    +0.102 C 
ENDBRANCH  24  26
BRANCH  24  27
ATOM     27  C   UNL     1      -2.072  -0.758  -1.251  0.00  0.00    +0.102 C 
ATOM     28  C   UNL     1      -1.816  -2.197  -1.703  0.00  0.00    +0.024 C 
ENDBRANCH  24  27
ENDBRANCH  18  24
ENDBRANCH   1  21
TORSDOF 5
