REMARK  Name = ZINC37177239
REMARK  6 active torsions:
REMARK  status: ('A' for Active; 'I' for Inactive)
REMARK    1  A    between atoms: C_1  and  C_2
REMARK    2  A    between atoms: C_2  and  C_4
REMARK    3  A    between atoms: C_2  and  N_13
REMARK    4  A    between atoms: C_7  and  N_10
REMARK    5  A    between atoms: N_13  and  C_14
REMARK    6  A    between atoms: C_17  and  C_21
REMARK                            x       y       z     vdW  Elec       q    Type
REMARK                         _______ _______ _______ _____ _____    ______ ____
ROOT
ATOM      1  C   UNL     1      -0.019   1.526   0.010  0.00  0.00    +0.033 C 
ATOM      2  C   UNL     1       0.002  -0.004   0.002  0.00  0.00    +0.098 C 
ENDROOT
BRANCH   2   3
ATOM      3  C   UNL     1       0.707  -0.490  -1.238  0.00  0.00    -0.027 A 
ATOM      4  C   UNL     1       2.089  -0.511  -1.284  0.00  0.00    +0.007 A 
ATOM      5  C   UNL     1       2.736  -0.957  -2.421  0.00  0.00    +0.033 A 
ATOM      6  C   UNL     1       2.002  -1.382  -3.512  0.00  0.00    +0.126 A 
ATOM      7  C   UNL     1       0.620  -1.362  -3.466  0.00  0.00    +0.033 A 
ATOM      8  C   UNL     1      -0.027  -0.920  -2.327  0.00  0.00    +0.007 A 
BRANCH   6   9
ATOM      9  N   UNL     1       2.694  -1.859  -4.731  0.00  0.00    +0.056 N 
ATOM     10  O   UNL     1       3.902  -1.875  -4.771  0.00  0.00    -0.126 OA
ATOM     11  O   UNL     1       2.052  -2.231  -5.685  0.00  0.00    -0.126 OA
ENDBRANCH   6   9
ENDBRANCH   2   3
BRANCH   2  12
ATOM     12  N   UNL     1       0.711  -0.489   1.189  0.00  0.00    -0.337 N 
ATOM     13  H   UNL     1       1.654  -0.707   1.135  0.00  0.00    +0.147 HD
BRANCH  12  14
ATOM     14  C   UNL     1       0.030  -0.638   2.394  0.00  0.00    +0.029 A 
ATOM     15  C   UNL     1      -1.326  -0.331   2.467  0.00  0.00    +0.024 A 
ATOM     16  C   UNL     1      -2.003  -0.476   3.656  0.00  0.00    +0.022 A 
ATOM     17  C   UNL     1      -1.329  -0.934   4.792  0.00  0.00    +0.070 A 
ATOM     18  C   UNL     1       0.034  -1.242   4.715  0.00  0.00    +0.060 A 
ATOM     19  C   UNL     1       0.704  -1.099   3.519  0.00  0.00    +0.044 A 
ATOM     20 CL   UNL     1       0.878  -1.810   6.122  0.00  0.00    -0.082 Cl
BRANCH  17  21
ATOM     21  C   UNL     1      -2.030  -1.086   6.031  0.00  0.00    +0.101 C 
ATOM     22  N   UNL     1      -2.587  -1.207   7.014  0.00  0.00    -0.191 NA
ENDBRANCH  17  21
ENDBRANCH  12  14
ENDBRANCH   2  12
TORSDOF 5
