REMARK  Name = ZINC36601049
REMARK  16 active torsions:
REMARK  status: ('A' for Active; 'I' for Inactive)
REMARK    1  A    between atoms: C_1  and  C_2
REMARK    2  A    between atoms: C_5  and  C_7
REMARK    3  A    between atoms: C_7  and  N_8
REMARK    4  A    between atoms: N_8  and  C_9
REMARK    5  A    between atoms: C_9  and  C_11
REMARK    6  A    between atoms: C_9  and  C_18
REMARK    7  A    between atoms: C_15  and  O_17
REMARK    8  A    between atoms: N_20  and  C_21
REMARK    9  A    between atoms: C_21  and  C_22
REMARK   10  A    between atoms: C_21  and  C_23
REMARK   11  A    between atoms: C_21  and  C_24
REMARK   12  A    between atoms: C_24  and  C_25
REMARK   13  A    between atoms: C_25  and  C_26
REMARK   14  A    between atoms: C_25  and  C_27
REMARK   15  A    between atoms: C_25  and  C_28
REMARK   16  A    between atoms: C_29  and  C_31
REMARK                            x       y       z     vdW  Elec       q    Type
REMARK                         _______ _______ _______ _____ _____    ______ ____
ROOT
ATOM      1  C   UNL     1       6.120  -2.744  -1.376  0.00  0.00    +0.193 C 
ENDROOT
BRANCH   1   2
ATOM      2  C   UNL     1       4.851  -2.933  -2.166  0.00  0.00    -0.015 A 
ATOM      3  C   UNL     1       4.415  -4.208  -2.479  0.00  0.00    +0.006 A 
ATOM      4  C   UNL     1       3.251  -4.385  -3.203  0.00  0.00    +0.004 A 
ATOM      5  C   UNL     1       2.520  -3.288  -3.616  0.00  0.00    +0.045 A 
ATOM      6  C   UNL     1       2.954  -2.008  -3.303  0.00  0.00    +0.117 A 
ATOM      7  C   UNL     1       4.120  -1.834  -2.571  0.00  0.00    +0.051 A 
BRANCH   6   8
ATOM      8  O   UNL     1       2.236  -0.928  -3.708  0.00  0.00    -0.507 OA
ATOM      9  H   UNL     1       1.565  -0.641  -3.074  0.00  0.00    +0.292 HD
ENDBRANCH   6   8
ENDBRANCH   1   2
BRANCH   1  10
ATOM     10  C   UNL     1       7.037  -3.917  -1.611  0.00  0.00    +0.239 C 
ATOM     11  O   UNL     1       7.388  -4.608  -0.678  0.00  0.00    -0.273 OA
ATOM     12  N   UNL     1       7.468  -4.197  -2.857  0.00  0.00    -0.308 N 
ATOM     13  H   UNL     1       7.187  -3.643  -3.603  0.00  0.00    +0.149 HD
BRANCH  12  14
ATOM     14  C   UNL     1       8.359  -5.336  -3.085  0.00  0.00    +0.030 C 
ATOM     15  C   UNL     1       9.444  -5.359  -2.006  0.00  0.00    +0.031 C 
ATOM     16  C   UNL     1       7.552  -6.635  -3.025  0.00  0.00    +0.031 C 
BRANCH  14  17
ATOM     17  C   UNL     1       9.012  -5.205  -4.462  0.00  0.00    +0.031 C 
BRANCH  17  18
ATOM     18  C   UNL     1       7.945  -4.857  -5.502  0.00  0.00    -0.036 C 
ATOM     19  C   UNL     1       7.469  -3.420  -5.283  0.00  0.00    +0.010 C 
ATOM     20  C   UNL     1       8.539  -4.989  -6.906  0.00  0.00    +0.010 C 
ATOM     21  C   UNL     1       6.760  -5.814  -5.357  0.00  0.00    +0.010 C 
ENDBRANCH  17  18
ENDBRANCH  14  17
ENDBRANCH  12  14
ENDBRANCH   1  10
BRANCH   1  22
ATOM     22  N   UNL     1       5.799  -2.653   0.051  0.00  0.00    -0.277 N 
ATOM     23  C   UNL     1       5.288  -3.721   0.696  0.00  0.00    +0.237 C 
ATOM     24  O   UNL     1       5.148  -4.774   0.110  0.00  0.00    -0.274 OA
BRANCH  23  25
ATOM     25  C   UNL     1       4.890  -3.607   2.145  0.00  0.00    +0.159 C 
ATOM     26  C   UNL     1       6.132  -3.748   3.053  0.00  0.00    +0.041 C 
ATOM     27  C   UNL     1       6.117  -5.261   3.374  0.00  0.00    +0.098 C 
ATOM     28  C   UNL     1       4.669  -5.662   3.204  0.00  0.00    +0.214 C 
ATOM     29  O   UNL     1       4.178  -6.687   3.626  0.00  0.00    -0.276 OA
ATOM     30  N   UNL     1       4.003  -4.714   2.517  0.00  0.00    -0.304 N 
ATOM     31  H   UNL     1       3.059  -4.757   2.296  0.00  0.00    +0.149 HD
ENDBRANCH  23  25
BRANCH  22  32
ATOM     32  C   UNL     1       6.033  -1.402   0.776  0.00  0.00    +0.183 C 
BRANCH  32  37
ATOM     33  C   UNL     1       2.694   2.019  -0.833  0.00  0.00    +0.086 C 
ATOM     34  C   UNL     1       3.348   0.948   0.002  0.00  0.00    +0.102 A 
ATOM     35  C   UNL     1       2.842   0.409   1.126  0.00  0.00    +0.045 A 
ATOM     36  C   UNL     1       3.778  -0.550   1.577  0.00  0.00    +0.046 A 
ATOM     37  C   UNL     1       4.799  -0.540   0.701  0.00  0.00    +0.122 A 
ATOM     38  O   UNL     1       4.530   0.365  -0.254  0.00  0.00    -0.463 OA
ENDBRANCH  32  37
ENDBRANCH  22  32
ENDBRANCH   1  22
TORSDOF 10
