REMARK  Name = ZINC04957107
REMARK  9 active torsions:
REMARK  status: ('A' for Active; 'I' for Inactive)
REMARK    1  A    between atoms: C_1  and  C_2
REMARK    2  A    between atoms: C_2  and  C_4
REMARK    3  A    between atoms: C_2  and  O_18
REMARK    4  A    between atoms: C_4  and  N_5
REMARK    5  A    between atoms: N_5  and  S_6
REMARK    6  A    between atoms: S_6  and  C_9
REMARK    7  A    between atoms: C_13  and  N_15
REMARK    8  A    between atoms: O_18  and  C_19
REMARK    9  A    between atoms: N_21  and  C_22
REMARK                            x       y       z     vdW  Elec       q    Type
REMARK                         _______ _______ _______ _____ _____    ______ ____
ROOT
ATOM      1  C   UNL     1      -1.243   5.800  -2.390  0.00  0.00    +0.150 C 
ENDROOT
BRANCH   1   3
ATOM      2  C   UNL     1      -2.464   6.417  -4.480  0.00  0.00    +0.053 C 
ATOM      3  C   UNL     1      -1.198   6.658  -3.656  0.00  0.00    +0.190 C 
BRANCH   3   4
ATOM      4  O   UNL     1      -0.032   6.298  -4.443  0.00  0.00    -0.446 OA
BRANCH   4   5
ATOM      5  C   UNL     1       0.520   7.268  -5.196  0.00  0.00    +0.405 C 
ATOM      6  O   UNL     1       0.041   8.384  -5.195  0.00  0.00    -0.226 OA
ATOM      7  N   UNL     1       1.604   7.000  -5.950  0.00  0.00    -0.251 N 
ATOM      8  H   UNL     1       2.027   6.128  -5.900  0.00  0.00    +0.158 HD
BRANCH   7   9
ATOM      9  C   UNL     1       2.121   7.979  -6.806  0.00  0.00    +0.038 A 
ATOM     10  C   UNL     1       2.677   7.615  -8.025  0.00  0.00    +0.023 A 
ATOM     11  C   UNL     1       3.182   8.584  -8.870  0.00  0.00    +0.003 A 
ATOM     12  C   UNL     1       3.143   9.915  -8.499  0.00  0.00    +0.020 A 
ATOM     13  C   UNL     1       2.594  10.282  -7.283  0.00  0.00    +0.043 A 
ATOM     14  C   UNL     1       2.083   9.317  -6.436  0.00  0.00    +0.043 A 
ATOM     15 CL   UNL     1       2.548  11.955  -6.821  0.00  0.00    -0.083 Cl
ENDBRANCH   7   9
ENDBRANCH   4   5
ENDBRANCH   3   4
ENDBRANCH   1   3
BRANCH   1  16
ATOM     16  N   UNL     1      -0.091   6.117  -1.543  0.00  0.00    -0.186 NA
ATOM     17  H   UNL     1       0.658   6.613  -1.909  0.00  0.00    +0.148 HD
BRANCH  16  18
ATOM     18  S   UNL     1      -0.066   5.630   0.040  0.00  0.00    +0.059 S 
ATOM     19  O   UNL     1      -1.313   6.014   0.602  0.00  0.00    -0.153 OA
ATOM     20  O   UNL     1       1.177   6.059   0.578  0.00  0.00    -0.153 OA
BRANCH  18  21
ATOM     21  C   UNL     1      -0.034   3.868   0.041  0.00  0.00    +0.107 A 
ATOM     22  C   UNL     1       1.176   3.199   0.030  0.00  0.00    +0.028 A 
ATOM     23  C   UNL     1       1.201   1.817   0.031  0.00  0.00    +0.004 A 
ATOM     24  C   UNL     1       0.016   1.104   0.043  0.00  0.00    +0.033 A 
ATOM     25  C   UNL     1      -1.193   1.773   0.049  0.00  0.00    +0.128 A 
ATOM     26  C   UNL     1      -1.218   3.155   0.053  0.00  0.00    +0.061 A 
BRANCH  25  27
ATOM     27  N   UNL     1      -2.461   1.009   0.056  0.00  0.00    +0.056 N 
ATOM     28  O   UNL     1      -2.439  -0.208   0.056  0.00  0.00    -0.126 OA
ATOM     29  O   UNL     1      -3.527   1.599   0.061  0.00  0.00    -0.126 OA
ENDBRANCH  25  27
ENDBRANCH  18  21
ENDBRANCH  16  18
ENDBRANCH   1  16
TORSDOF 8
