REMARK  Name = ZINC09109065
REMARK  10 active torsions:
REMARK  status: ('A' for Active; 'I' for Inactive)
REMARK    1  A    between atoms: C_4  and  C_7
REMARK    2  A    between atoms: C_8  and  C_9
REMARK    3  A    between atoms: C_9  and  C_11
REMARK    4  A    between atoms: C_12  and  O_35
REMARK    5  A    between atoms: N_15  and  C_27
REMARK    6  A    between atoms: C_16  and  C_18
REMARK    7  A    between atoms: C_21  and  N_24
REMARK    8  A    between atoms: C_27  and  C_28
REMARK    9  A    between atoms: C_28  and  C_29
REMARK   10  A    between atoms: C_29  and  N_62
REMARK                            x       y       z     vdW  Elec       q    Type
REMARK                         _______ _______ _______ _____ _____    ______ ____
ROOT
ATOM      1  C   UNL     1       4.869   4.252   0.301  0.00  0.00    +0.070 C 
ATOM      2  C   UNL     1       6.116   3.726   0.313  0.00  0.00    +0.188 C 
ATOM      3  C   UNL     1       7.095   4.804   0.560  0.00  0.00    +0.282 C 
ATOM      4  O   UNL     1       8.299   4.650   0.627  0.00  0.00    -0.267 OA
ATOM      5  N   UNL     1       6.459   5.981   0.698  0.00  0.00    -0.284 N 
ATOM      6  C   UNL     1       5.020   5.736   0.542  0.00  0.00    +0.144 C 
ENDROOT
BRANCH   6   7
ATOM      7  C   UNL     1       4.291   6.133   1.800  0.00  0.00    -0.022 A 
ATOM      8  C   UNL     1       4.858   5.884   3.036  0.00  0.00    +0.008 A 
ATOM      9  C   UNL     1       4.191   6.254   4.189  0.00  0.00    +0.033 A 
ATOM     10  C   UNL     1       2.953   6.862   4.107  0.00  0.00    +0.126 A 
ATOM     11  C   UNL     1       2.383   7.106   2.872  0.00  0.00    +0.033 A 
ATOM     12  C   UNL     1       3.052   6.742   1.718  0.00  0.00    +0.008 A 
BRANCH  10  13
ATOM     13  N   UNL     1       2.237   7.253   5.343  0.00  0.00    +0.056 N 
ATOM     14  O   UNL     1       1.146   7.789   5.270  0.00  0.00    -0.126 OA
ATOM     15  O   UNL     1       2.739   7.038   6.431  0.00  0.00    -0.126 OA
ENDBRANCH  10  13
ENDBRANCH   6   7
BRANCH   1  16
ATOM     16  C   UNL     1       3.613   3.523   0.089  0.00  0.00    +0.188 C 
ATOM     17  O   UNL     1       3.632   2.319  -0.101  0.00  0.00    -0.287 OA
BRANCH  16  19
ATOM     18  C   UNL     1       1.176   3.554   0.057  0.00  0.00    +0.011 C 
ATOM     19  C   UNL     1       2.338   4.241   0.104  0.00  0.00    +0.052 C 
BRANCH  18  23
ATOM     20  C   UNL     1       1.185  -0.664   0.493  0.00  0.00    +0.000 A 
ATOM     21  C   UNL     1       1.957   0.117   1.336  0.00  0.00    +0.001 A 
ATOM     22  C   UNL     1       1.960   1.489   1.201  0.00  0.00    +0.008 A 
ATOM     23  C   UNL     1       1.179   2.091   0.208  0.00  0.00    -0.025 A 
ATOM     24  C   UNL     1       0.402   1.295  -0.640  0.00  0.00    +0.008 A 
ATOM     25  C   UNL     1       0.410  -0.076  -0.491  0.00  0.00    +0.001 A 
ENDBRANCH  18  23
ENDBRANCH  16  19
ENDBRANCH   1  16
BRANCH   2  26
ATOM     26  O   UNL     1       6.417   2.420   0.128  0.00  0.00    -0.502 OA
ATOM     27  H   UNL     1       7.408   2.295   0.185  0.00  0.00    +0.292 HD
ENDBRANCH   2  26
BRANCH   5  28
ATOM     28  C   UNL     1       7.090   7.278   0.953  0.00  0.00    +0.107 C 
BRANCH  28  29
ATOM     29  C   UNL     1       7.419   7.955  -0.380  0.00  0.00    +0.000 C 
BRANCH  29  30
ATOM     30  C   UNL     1       8.079   9.310  -0.114  0.00  0.00    -0.077 C 
BRANCH  30  36
ATOM     31  C   UNL     1       9.429   9.212  -2.122  0.00  0.00    -0.050 C 
ATOM     32  C   UNL     1       9.685   9.889  -3.471  0.00  0.00    +0.141 C 
ATOM     33  O   UNL     1      10.056  11.253  -3.252  0.00  0.00    -0.383 OA
ATOM     34  C   UNL     1       9.071  12.011  -2.545  0.00  0.00    +0.141 C 
ATOM     35  C   UNL     1       8.809  11.355  -1.186  0.00  0.00    -0.050 C 
ATOM     36  N   UNL     1       8.373   9.960  -1.409  0.00  0.00    +0.383 N 
ATOM     37  H   UNL     1       7.521   9.964  -1.982  0.00  0.00    -0.082 HD
ENDBRANCH  30  36
ENDBRANCH  29  30
ENDBRANCH  28  29
ENDBRANCH   5  28
TORSDOF 10
