REMARK  Name = ZINC06846803
REMARK  6 active torsions:
REMARK  status: ('A' for Active; 'I' for Inactive)
REMARK    1  A    between atoms: C_1  and  C_2
REMARK    2  A    between atoms: N_9  and  N_10
REMARK    3  A    between atoms: C_11  and  C_13
REMARK    4  A    between atoms: N_21  and  C_22
REMARK    5  A    between atoms: C_22  and  C_23
REMARK    6  A    between atoms: C_22  and  C_24
REMARK                            x       y       z     vdW  Elec       q    Type
REMARK                         _______ _______ _______ _____ _____    ______ ____
ROOT
ATOM      1  C   UNL     1      -0.018   1.503   0.010  0.00  0.00    +0.044 C 
ATOM      2  C   UNL     1       0.002  -0.004   0.002  0.00  0.00    -0.050 A 
ATOM      3  C   UNL     1       0.006  -0.689  -1.201  0.00  0.00    +0.005 A 
ATOM      4  C   UNL     1       0.024  -2.069  -1.225  0.00  0.00    +0.024 A 
ATOM      5  C   UNL     1       0.039  -2.787  -0.034  0.00  0.00    +0.046 A 
ATOM      6  C   UNL     1       0.035  -2.090   1.181  0.00  0.00    +0.029 A 
ATOM      7  C   UNL     1       0.023  -0.700   1.194  0.00  0.00    +0.015 A 
ATOM      8  C   UNL     1       0.054  -3.115   2.251  0.00  0.00    +0.153 C 
ATOM      9  N   UNL     1       0.058  -2.916   3.547  0.00  0.00    -0.175 NA
ATOM     10  C   UNL     1       0.069  -4.409   1.539  0.00  0.00    +0.272 C 
ATOM     11  O   UNL     1       0.086  -5.511   2.056  0.00  0.00    -0.268 OA
ATOM     12  N   UNL     1       0.059  -4.154   0.220  0.00  0.00    -0.263 N 
ENDROOT
BRANCH   9  13
ATOM     13  N   UNL     1       0.077  -4.009   4.423  0.00  0.00    -0.206 N 
ATOM     14  C   UNL     1       0.080  -3.804   5.755  0.00  0.00    +0.235 C 
ATOM     15  O   UNL     1       0.067  -2.675   6.195  0.00  0.00    -0.274 OA
ATOM     16  H   UNL     1       0.087  -4.913   4.071  0.00  0.00    +0.177 HD
BRANCH  14  17
ATOM     17  C   UNL     1       0.101  -4.980   6.698  0.00  0.00    +0.077 C 
ATOM     18  C   UNL     1      -1.138  -5.846   6.460  0.00  0.00    +0.013 C 
ATOM     19  C   UNL     1      -1.117  -7.040   7.417  0.00  0.00    +0.001 C 
ATOM     20  C   UNL     1      -1.118  -6.535   8.861  0.00  0.00    +0.000 C 
ATOM     21  C   UNL     1       0.121  -5.669   9.099  0.00  0.00    +0.001 C 
ATOM     22  C   UNL     1       0.101  -4.476   8.142  0.00  0.00    +0.013 C 
ENDBRANCH  14  17
ENDBRANCH   9  13
BRANCH  12  23
ATOM     23  C   UNL     1       0.068  -5.186  -0.820  0.00  0.00    +0.076 C 
ATOM     24  C   UNL     1       1.330  -6.041  -0.679  0.00  0.00    +0.028 C 
ATOM     25  C   UNL     1      -1.169  -6.074  -0.668  0.00  0.00    +0.028 C 
ENDBRANCH  12  23
TORSDOF 3
