REMARK  Name = ZINC56546237
REMARK  4 active torsions:
REMARK  status: ('A' for Active; 'I' for Inactive)
REMARK    1  A    between atoms: C_1  and  C_2
REMARK    2  A    between atoms: C_3  and  N_11
REMARK    3  A    between atoms: C_7  and  N_8
REMARK    4  A    between atoms: C_18  and  C_20
REMARK                            x       y       z     vdW  Elec       q    Type
REMARK                         _______ _______ _______ _____ _____    ______ ____
ROOT
ATOM      1  N   UNL     1      -1.199   0.361  -2.413  0.00  0.00    -0.269 N 
ATOM      2  C   UNL     1      -1.270  -0.486  -3.459  0.00  0.00    +0.307 C 
ATOM      3  O   UNL     1      -0.969  -1.655  -3.317  0.00  0.00    -0.252 OA
ATOM      4  N   UNL     1      -1.676  -0.037  -4.663  0.00  0.00    -0.282 N 
ATOM      5  C   UNL     1      -1.968   1.368  -5.003  0.00  0.00    +0.110 C 
ATOM      6  C   UNL     1      -1.774   1.453  -6.537  0.00  0.00    +0.021 C 
ATOM      7  C   UNL     1      -2.328   0.079  -6.998  0.00  0.00    +0.024 C 
ATOM      8  C   UNL     1      -1.895  -0.866  -5.858  0.00  0.00    +0.081 C 
ATOM      9  H   UNL     1      -1.370   1.307  -2.542  0.00  0.00    +0.156 HD
ENDROOT
BRANCH   1  12
ATOM     10  C   UNL     1      -2.264   1.717  -0.149  0.00  0.00    +0.048 C 
ATOM     11  C   UNL     1      -1.378   0.507  -0.009  0.00  0.00    +0.001 A 
ATOM     12  C   UNL     1      -0.879  -0.125  -1.140  0.00  0.00    +0.040 A 
ATOM     13  C   UNL     1      -0.062  -1.239  -1.006  0.00  0.00    +0.024 A 
ATOM     14  C   UNL     1       0.252  -1.716   0.251  0.00  0.00    +0.004 A 
ATOM     15  C   UNL     1      -0.246  -1.086   1.376  0.00  0.00    +0.033 A 
ATOM     16  C   UNL     1      -1.056   0.028   1.246  0.00  0.00    +0.131 A 
BRANCH  16  17
ATOM     17  N   UNL     1      -1.582   0.705   2.453  0.00  0.00    +0.057 N 
ATOM     18  O   UNL     1      -1.664   1.911   2.483  0.00  0.00    -0.126 OA
ATOM     19  O   UNL     1      -1.930   0.051   3.409  0.00  0.00    -0.126 OA
ENDBRANCH  16  17
ENDBRANCH   1  12
BRANCH   8  20
ATOM     20  C   UNL     1      -3.000  -1.889  -5.586  0.00  0.00    +0.010 C 
ATOM     21  C   UNL     1      -3.283  -2.712  -6.859  0.00  0.00    +0.005 C 
ATOM     22  C   UNL     1      -4.817  -2.928  -6.839  0.00  0.00    +0.000 C 
ATOM     23  C   UNL     1      -5.345  -1.576  -6.298  0.00  0.00    +0.000 C 
ATOM     24  C   UNL     1      -4.311  -1.167  -5.229  0.00  0.00    +0.005 C 
ENDBRANCH   8  20
TORSDOF 3
