REMARK  Name = ZINC38577225
REMARK  8 active torsions:
REMARK  status: ('A' for Active; 'I' for Inactive)
REMARK    1  A    between atoms: C_1  and  C_2
REMARK    2  A    between atoms: C_5  and  C_9
REMARK    3  A    between atoms: C_6  and  O_8
REMARK    4  A    between atoms: C_11  and  C_15
REMARK    5  A    between atoms: N_17  and  C_18
REMARK    6  A    between atoms: C_20  and  C_28
REMARK    7  A    between atoms: N_30  and  C_31
REMARK    8  A    between atoms: C_31  and  C_32
REMARK                            x       y       z     vdW  Elec       q    Type
REMARK                         _______ _______ _______ _____ _____    ______ ____
ROOT
ATOM      1  C   UNL     1      -1.270  -6.798   1.219  0.00  0.00    +0.244 C 
ATOM      2  O   UNL     1      -2.347  -6.524   0.735  0.00  0.00    -0.273 OA
ATOM      3  N   UNL     1      -1.178  -7.765   2.154  0.00  0.00    -0.297 N 
ATOM      4  H   UNL     1      -0.316  -7.985   2.541  0.00  0.00    +0.150 HD
ENDROOT
BRANCH   3   5
ATOM      5  C   UNL     1      -2.379  -8.483   2.586  0.00  0.00    +0.167 C 
ATOM      6  C   UNL     1      -2.033  -9.864   3.111  0.00  0.00    +0.045 C 
ATOM      7  C   UNL     1      -2.725 -10.901   2.680  0.00  0.00    -0.046 C 
ATOM      8  C   UNL     1      -2.659 -12.427   2.698  0.00  0.00    +0.032 C 
ATOM      9  C   UNL     1      -3.518 -12.926   1.515  0.00  0.00    +0.006 C 
ATOM     10  C   UNL     1      -3.733 -11.656   0.639  0.00  0.00    +0.019 C 
ATOM     11  C   UNL     1      -3.896 -10.594   1.741  0.00  0.00    +0.075 C 
ATOM     12  S   UNL     1      -3.450  -8.919   1.144  0.00  0.00    -0.126 S 
BRANCH   6  13
ATOM     13  C   UNL     1      -0.944 -10.043   4.083  0.00  0.00    +0.243 C 
ATOM     14  O   UNL     1      -0.604 -11.162   4.416  0.00  0.00    -0.270 OA
ATOM     15  N   UNL     1      -0.323  -8.966   4.605  0.00  0.00    -0.304 N 
ATOM     16  H   UNL     1      -0.642  -8.074   4.397  0.00  0.00    +0.149 HD
BRANCH  15  17
ATOM     17  C   UNL     1       0.834  -9.144   5.486  0.00  0.00    +0.179 C 
BRANCH  17  18
ATOM     18  C   UNL     1       1.339  -7.795   5.930  0.00  0.00    +0.122 A 
ATOM     19  C   UNL     1       0.942  -7.130   7.029  0.00  0.00    +0.046 A 
ATOM     20  C   UNL     1       1.668  -5.917   7.058  0.00  0.00    +0.041 A 
ATOM     21  C   UNL     1       2.465  -5.914   5.975  0.00  0.00    +0.195 A 
ATOM     22  O   UNL     1       2.266  -7.057   5.298  0.00  0.00    -0.466 OA
ENDBRANCH  17  18
ENDBRANCH  15  17
ENDBRANCH   6  13
ENDBRANCH   3   5
BRANCH   1  25
ATOM     23  C   UNL     1       0.250  -3.838   1.067  0.00  0.00    +0.095 C 
ATOM     24  C   UNL     1       0.334  -4.979   1.777  0.00  0.00    +0.041 C 
ATOM     25  C   UNL     1      -0.033  -6.059   0.775  0.00  0.00    +0.238 C 
ATOM     26  N   UNL     1      -0.293  -5.299  -0.458  0.00  0.00    -0.170 NA
ATOM     27  N   UNL     1      -0.123  -4.103  -0.213  0.00  0.00    -0.153 NA
BRANCH  23  32
ATOM     28  C   UNL     1       1.291   1.429   3.160  0.00  0.00    +0.044 C 
ATOM     29  C   UNL     1       1.020   0.050   2.615  0.00  0.00    -0.047 A 
ATOM     30  C   UNL     1       0.647  -0.106   1.292  0.00  0.00    +0.004 A 
ATOM     31  C   UNL     1       0.396  -1.365   0.784  0.00  0.00    +0.014 A 
ATOM     32  C   UNL     1       0.519  -2.483   1.607  0.00  0.00    +0.043 A 
ATOM     33  C   UNL     1       0.896  -2.322   2.943  0.00  0.00    +0.126 A 
ATOM     34  C   UNL     1       1.150  -1.053   3.438  0.00  0.00    +0.049 A 
BRANCH  33  35
ATOM     35  O   UNL     1       1.018  -3.406   3.752  0.00  0.00    -0.506 OA
ATOM     36  H   UNL     1       1.903  -3.796   3.756  0.00  0.00    +0.292 HD
ENDBRANCH  33  35
ENDBRANCH  23  32
ENDBRANCH   1  25
TORSDOF 7
