REMARK  Name = ZINC23593110
REMARK  8 active torsions:
REMARK  status: ('A' for Active; 'I' for Inactive)
REMARK    1  A    between atoms: C_3  and  N_11
REMARK    2  A    between atoms: C_6  and  N_7
REMARK    3  A    between atoms: C_12  and  C_14
REMARK    4  A    between atoms: C_14  and  O_15
REMARK    5  A    between atoms: O_15  and  C_16
REMARK    6  A    between atoms: C_16  and  C_18
REMARK    7  A    between atoms: C_20  and  S_25
REMARK    8  A    between atoms: S_25  and  N_28
REMARK                            x       y       z     vdW  Elec       q    Type
REMARK                         _______ _______ _______ _____ _____    ______ ____
ROOT
ATOM      1  O   UNL     1      -4.793   1.175  -0.280  0.00  0.00    -0.452 OA
ENDROOT
BRANCH   1   2
ATOM      2  C   UNL     1      -6.039   1.679  -0.380  0.00  0.00    +0.341 C 
ATOM      3  O   UNL     1      -6.208   2.882  -0.386  0.00  0.00    -0.245 OA
BRANCH   2   4
ATOM      4  C   UNL     1      -7.198   0.769  -0.482  0.00  0.00    +0.075 A 
ATOM      5  C   UNL     1      -7.006  -0.614  -0.480  0.00  0.00    +0.044 A 
ATOM      6  C   UNL     1      -8.093  -1.458  -0.571  0.00  0.00    +0.106 A 
ATOM      7  C   UNL     1      -9.372  -0.937  -0.672  0.00  0.00    +0.029 A 
ATOM      8  C   UNL     1      -9.569   0.432  -0.680  0.00  0.00    +0.018 A 
ATOM      9  C   UNL     1      -8.490   1.289  -0.585  0.00  0.00    +0.032 A 
ATOM     10 BR   UNL     1      -8.762   3.160  -0.595  0.00  0.00    -0.049 Br
BRANCH   6  11
ATOM     11  S   UNL     1      -7.854  -3.203  -0.562  0.00  0.00    +0.056 S 
ATOM     12  O   UNL     1      -6.614  -3.440   0.091  0.00  0.00    -0.153 OA
ATOM     13  O   UNL     1      -9.073  -3.778  -0.114  0.00  0.00    -0.153 OA
BRANCH  11  14
ATOM     14  N   UNL     1      -7.657  -3.678  -2.137  0.00  0.00    -0.204 NA
ATOM     15  H   UNL     1      -7.505  -4.766  -2.175  0.00  0.00    +0.144 HD
ATOM     16  H   UNL     1      -6.782  -3.169  -2.567  0.00  0.00    +0.144 HD
ENDBRANCH  11  14
ENDBRANCH   6  11
ENDBRANCH   2   4
ENDBRANCH   1   2
BRANCH   1  17
ATOM     17  C   UNL     1      -3.702   2.127  -0.184  0.00  0.00    +0.328 C 
BRANCH  17  19
ATOM     18  N   UNL     1      -1.238   2.069   0.019  0.00  0.00    -0.281 N 
ATOM     19  C   UNL     1      -2.395   1.385  -0.081  0.00  0.00    +0.255 C 
ATOM     20  O   UNL     1      -2.384   0.172  -0.088  0.00  0.00    -0.272 OA
ATOM     21  H   UNL     1      -1.253   3.164   0.117  0.00  0.00    +0.155 HD
BRANCH  18  24
ATOM     22  C   UNL     1       1.284  -0.526  -0.640  0.00  0.00    +0.034 A 
ATOM     23  C   UNL     1       0.076   0.144  -0.617  0.00  0.00    +0.027 A 
ATOM     24  C   UNL     1      -0.016   1.385  -0.001  0.00  0.00    +0.052 A 
ATOM     25  C   UNL     1       1.108   1.949   0.589  0.00  0.00    +0.064 A 
ATOM     26  C   UNL     1       2.313   1.274   0.562  0.00  0.00    +0.054 A 
ATOM     27  C   UNL     1       2.401   0.037  -0.052  0.00  0.00    +0.128 A 
ATOM     28 CL   UNL     1       0.999   3.501   1.359  0.00  0.00    -0.082 Cl
BRANCH  27  29
ATOM     29  N   UNL     1       3.693  -0.684  -0.080  0.00  0.00    +0.056 N 
ATOM     30  O   UNL     1       3.772  -1.772  -0.621  0.00  0.00    -0.126 OA
ATOM     31  O   UNL     1       4.678  -0.188   0.438  0.00  0.00    -0.126 OA
ENDBRANCH  27  29
ENDBRANCH  18  24
ENDBRANCH  17  19
ENDBRANCH   1  17
TORSDOF 8
