REMARK  Name = ZINC00687061
REMARK  9 active torsions:
REMARK  status: ('A' for Active; 'I' for Inactive)
REMARK    1  A    between atoms: C_1  and  C_2
REMARK    2  A    between atoms: C_2  and  O_3
REMARK    3  A    between atoms: O_3  and  C_4
REMARK    4  A    between atoms: C_4  and  C_6
REMARK    5  A    between atoms: C_10  and  N_11
REMARK    6  A    between atoms: C_12  and  C_14
REMARK    7  A    between atoms: C_17  and  N_21
REMARK    8  A    between atoms: C_18  and  C_20
REMARK    9  A    between atoms: C_25  and  C_29
REMARK                            x       y       z     vdW  Elec       q    Type
REMARK                         _______ _______ _______ _____ _____    ______ ____
ROOT
ATOM      1  C   UNL     1      -0.058  -4.595   0.506  0.00  0.00    +0.091 A 
ATOM      2  C   UNL     1       0.363  -3.264   0.099  0.00  0.00    -0.021 A 
ATOM      3  C   UNL     1      -0.562  -2.549  -0.576  0.00  0.00    -0.004 A 
ATOM      4  S   UNL     1      -1.974  -3.613  -0.675  0.00  0.00    -0.077 S 
ATOM      5  C   UNL     1      -1.346  -4.991   0.168  0.00  0.00    +0.087 A 
ATOM      6  C   UNL     1      -0.412  -1.161  -1.118  0.00  0.00    +0.046 C 
ATOM      7  C   UNL     1       1.081  -0.802  -1.122  0.00  0.00    -0.009 C 
ATOM      8  C   UNL     1       1.679  -1.164   0.241  0.00  0.00    +0.008 C 
ATOM      9  C   UNL     1       1.741  -2.685   0.394  0.00  0.00    +0.037 C 
ATOM     10  C   UNL     1       1.247   0.698  -1.373  0.00  0.00    +0.008 C 
ENDROOT
BRANCH   5  11
ATOM     11  N   UNL     1      -1.975  -6.194   0.439  0.00  0.00    -0.275 N 
ATOM     12  C   UNL     1      -3.241  -6.400   0.026  0.00  0.00    +0.249 C 
ATOM     13  O   UNL     1      -3.832  -5.530  -0.583  0.00  0.00    -0.270 OA
ATOM     14  H   UNL     1      -1.504  -6.889   0.924  0.00  0.00    +0.156 HD
BRANCH  12  15
ATOM     15  C   UNL     1      -3.913  -7.685   0.315  0.00  0.00    +0.037 A 
ATOM     16  C   UNL     1      -3.238  -8.687   1.014  0.00  0.00    +0.015 A 
ATOM     17  C   UNL     1      -3.870  -9.884   1.281  0.00  0.00    +0.034 A 
ATOM     18  C   UNL     1      -5.171 -10.092   0.856  0.00  0.00    +0.129 A 
ATOM     19  C   UNL     1      -5.846  -9.103   0.163  0.00  0.00    -0.020 A 
ATOM     20  C   UNL     1      -5.226  -7.899  -0.105  0.00  0.00    +0.018 A 
ATOM     21  C   UNL     1      -7.262  -9.338  -0.295  0.00  0.00    +0.046 C 
BRANCH  18  22
ATOM     22  N   UNL     1      -5.844 -11.378   1.146  0.00  0.00    +0.057 N 
ATOM     23  O   UNL     1      -7.031 -11.397   1.418  0.00  0.00    -0.126 OA
ATOM     24  O   UNL     1      -5.210 -12.418   1.113  0.00  0.00    -0.126 OA
ENDBRANCH  18  22
ENDBRANCH  12  15
ENDBRANCH   5  11
BRANCH   1  25
ATOM     25  C   UNL     1       0.841  -5.484   1.245  0.00  0.00    +0.342 C 
ATOM     26  O   UNL     1       0.855  -5.460   2.461  0.00  0.00    -0.245 OA
BRANCH  25  27
ATOM     27  O   UNL     1       1.653  -6.328   0.577  0.00  0.00    -0.461 OA
BRANCH  27  29
ATOM     28  C   UNL     1       3.359  -8.061   0.449  0.00  0.00    +0.048 C 
ATOM     29  C   UNL     1       2.518  -7.180   1.374  0.00  0.00    +0.229 C 
ENDBRANCH  27  29
ENDBRANCH  25  27
ENDBRANCH   1  25
TORSDOF 6
