REMARK  Name = ZINC39570579
REMARK  10 active torsions:
REMARK  status: ('A' for Active; 'I' for Inactive)
REMARK    1  A    between atoms: C_1  and  C_2
REMARK    2  A    between atoms: C_2  and  C_3
REMARK    3  A    between atoms: C_3  and  C_25
REMARK    4  A    between atoms: N_6  and  C_10
REMARK    5  A    between atoms: C_10  and  C_11
REMARK    6  A    between atoms: N_13  and  C_14
REMARK    7  A    between atoms: C_17  and  C_20
REMARK    8  A    between atoms: C_20  and  O_22
REMARK    9  A    between atoms: O_22  and  C_23
REMARK   10  A    between atoms: C_23  and  C_24
REMARK                            x       y       z     vdW  Elec       q    Type
REMARK                         _______ _______ _______ _____ _____    ______ ____
ROOT
ATOM      1  C   UNL     1       0.721  -0.494  -1.250  0.00  0.00    +0.138 C 
ATOM      2  C   UNL     1       2.145   0.025  -1.291  0.00  0.00    +0.251 C 
ATOM      3  O   UNL     1       3.026  -0.192  -0.487  0.00  0.00    -0.272 OA
ATOM      4  N   UNL     1       2.228   0.776  -2.407  0.00  0.00    -0.215 N 
ATOM      5  C   UNL     1       1.066   0.804  -3.070  0.00  0.00    +0.310 C 
ATOM      6  O   UNL     1       0.894   1.416  -4.106  0.00  0.00    -0.252 OA
ATOM      7  N   UNL     1       0.109   0.080  -2.462  0.00  0.00    -0.281 N 
ATOM      8  H   UNL     1      -0.805  -0.042  -2.762  0.00  0.00    +0.152 HD
ENDROOT
BRANCH   1   9
ATOM      9  C   UNL     1       0.700  -2.000  -1.307  0.00  0.00    -0.015 A 
ATOM     10  C   UNL     1       0.674  -2.735  -0.137  0.00  0.00    +0.007 A 
ATOM     11  C   UNL     1       0.655  -4.116  -0.189  0.00  0.00    +0.020 A 
ATOM     12  C   UNL     1       0.661  -4.762  -1.412  0.00  0.00    +0.041 A 
ATOM     13  C   UNL     1       0.686  -4.026  -2.583  0.00  0.00    +0.020 A 
ATOM     14  C   UNL     1       0.700  -2.645  -2.530  0.00  0.00    +0.007 A 
ATOM     15 CL   UNL     1       0.637  -6.497  -1.478  0.00  0.00    -0.084 Cl
ENDBRANCH   1   9
BRANCH   1  17
ATOM     16  C   UNL     1      -0.025   1.536   0.002  0.00  0.00    +0.007 C 
ATOM     17  C   UNL     1       0.002   0.006   0.004  0.00  0.00    +0.037 C 
ENDBRANCH   1  17
BRANCH   4  18
ATOM     18  C   UNL     1       3.439   1.476  -2.840  0.00  0.00    +0.214 C 
BRANCH  18  19
ATOM     19  C   UNL     1       4.251   0.571  -3.730  0.00  0.00    +0.235 C 
ATOM     20  O   UNL     1       3.857  -0.548  -3.978  0.00  0.00    -0.274 OA
ATOM     21  N   UNL     1       5.416   1.006  -4.250  0.00  0.00    -0.284 N 
ATOM     22  H   UNL     1       5.699   1.923  -4.107  0.00  0.00    +0.155 HD
BRANCH  21  23
ATOM     23  C   UNL     1       6.214   0.139  -4.994  0.00  0.00    +0.033 A 
ATOM     24  C   UNL     1       5.623  -0.819  -5.813  0.00  0.00    +0.024 A 
ATOM     25  C   UNL     1       6.408  -1.677  -6.549  0.00  0.00    +0.017 A 
ATOM     26  C   UNL     1       7.801  -1.586  -6.474  0.00  0.00    +0.059 A 
ATOM     27  C   UNL     1       8.392  -0.622  -5.651  0.00  0.00    +0.017 A 
ATOM     28  C   UNL     1       7.600   0.236  -4.922  0.00  0.00    +0.024 A 
BRANCH  26  29
ATOM     29  C   UNL     1       8.645  -2.504  -7.261  0.00  0.00    +0.339 C 
ATOM     30  O   UNL     1       8.130  -3.341  -7.975  0.00  0.00    -0.245 OA
BRANCH  29  31
ATOM     31  O   UNL     1       9.987  -2.414  -7.188  0.00  0.00    -0.461 OA
BRANCH  31  32
ATOM     32  C   UNL     1      10.743  -3.335  -7.977  0.00  0.00    +0.229 C 
ATOM     33  C   UNL     1      12.237  -3.083  -7.765  0.00  0.00    +0.048 C 
ENDBRANCH  31  32
ENDBRANCH  29  31
ENDBRANCH  26  29
ENDBRANCH  21  23
ENDBRANCH  18  19
ENDBRANCH   4  18
TORSDOF 8
