REMARK  Name = ZINC16066734
REMARK  11 active torsions:
REMARK  status: ('A' for Active; 'I' for Inactive)
REMARK    1  A    between atoms: C_1  and  C_2
REMARK    2  A    between atoms: C_2  and  C_3
REMARK    3  A    between atoms: C_7  and  C_33
REMARK    4  A    between atoms: C_8  and  N_9
REMARK    5  A    between atoms: C_10  and  C_27
REMARK    6  A    between atoms: C_13  and  S_14
REMARK    7  A    between atoms: S_14  and  C_15
REMARK    8  A    between atoms: C_15  and  C_16
REMARK    9  A    between atoms: N_21  and  C_22
REMARK   10  A    between atoms: C_22  and  C_23
REMARK   11  A    between atoms: C_33  and  C_34
REMARK                            x       y       z     vdW  Elec       q    Type
REMARK                         _______ _______ _______ _____ _____    ______ ____
ROOT
ATOM      1  N   UNL     1      -0.017   1.364   0.009  0.00  0.00    -0.270 N 
ATOM      2  C   UNL     1       1.306   1.752  -0.001  0.00  0.00    +0.171 A 
ATOM      3  N   UNL     1       2.028   0.656  -0.014  0.00  0.00    -0.128 NA
ATOM      4  N   UNL     1       1.263  -0.376  -0.012  0.00  0.00    -0.122 NA
ATOM      5  C   UNL     1       0.002  -0.004   0.002  0.00  0.00    +0.197 A 
ENDROOT
BRANCH   1  11
ATOM      6  C   UNL     1      -1.707   2.620  -1.177  0.00  0.00    -0.023 A 
ATOM      7  C   UNL     1      -2.822   3.435  -1.164  0.00  0.00    +0.005 A 
ATOM      8  C   UNL     1      -3.371   3.839   0.040  0.00  0.00    +0.001 A 
ATOM      9  C   UNL     1      -2.809   3.423   1.233  0.00  0.00    +0.005 A 
ATOM     10  C   UNL     1      -1.698   2.603   1.226  0.00  0.00    -0.023 A 
ATOM     11  C   UNL     1      -1.144   2.196   0.020  0.00  0.00    +0.057 A 
BRANCH   6  13
ATOM     12  C   UNL     1      -1.667   0.817  -2.879  0.00  0.00    +0.009 C 
ATOM     13  C   UNL     1      -1.105   2.186  -2.489  0.00  0.00    +0.034 C 
ENDBRANCH   6  13
BRANCH  10  14
ATOM     14  C   UNL     1      -1.086   2.151   2.527  0.00  0.00    +0.034 C 
ATOM     15  C   UNL     1       0.061   3.090   2.905  0.00  0.00    +0.009 C 
ENDBRANCH  10  14
ENDBRANCH   1  11
BRANCH   2  16
ATOM     16  C   UNL     1       1.814   3.140   0.001  0.00  0.00    +0.038 A 
ATOM     17  C   UNL     1       3.155   3.407   0.302  0.00  0.00    +0.014 A 
ATOM     18  C   UNL     1       3.580   4.723   0.290  0.00  0.00    +0.020 A 
ATOM     19  C   UNL     1       2.676   5.725  -0.015  0.00  0.00    +0.111 A 
ATOM     20  N   UNL     1       1.418   5.444  -0.295  0.00  0.00    -0.263 NA
ATOM     21  C   UNL     1       0.966   4.207  -0.302  0.00  0.00    +0.122 A 
ENDBRANCH   2  16
BRANCH   5  22
ATOM     22  S   UNL     1      -1.402  -1.069   0.010  0.00  0.00    -0.076 S 
BRANCH  22  23
ATOM     23  C   UNL     1      -0.575  -2.679  -0.007  0.00  0.00    +0.173 C 
BRANCH  23  24
ATOM     24  C   UNL     1      -1.610  -3.775  -0.002  0.00  0.00    +0.231 C 
ATOM     25  O   UNL     1      -2.789  -3.495   0.011  0.00  0.00    -0.274 OA
ATOM     26  N   UNL     1      -1.224  -5.066  -0.013  0.00  0.00    -0.240 N 
ATOM     27  C   UNL     1      -2.149  -6.046  -0.009  0.00  0.00    +0.306 C 
ATOM     28  O   UNL     1      -3.331  -5.765   0.004  0.00  0.00    -0.252 OA
ATOM     29  N   UNL     1      -1.763  -7.337  -0.020  0.00  0.00    -0.291 N 
ATOM     30  H   UNL     1      -0.280  -5.290  -0.024  0.00  0.00    +0.159 HD
ATOM     31  H   UNL     1      -0.819  -7.561  -0.030  0.00  0.00    +0.151 HD
BRANCH  29  32
ATOM     32  C   UNL     1      -2.768  -8.403  -0.016  0.00  0.00    +0.219 C 
BRANCH  32  33
ATOM     33  C   UNL     1      -2.070  -9.764  -0.030  0.00  0.00    +0.405 C 
ATOM     34  F   UNL     1      -1.259  -9.883   1.104  0.00  0.00    -0.169 F 
ATOM     35  F   UNL     1      -3.030 -10.781  -0.026  0.00  0.00    -0.169 F 
ATOM     36  F   UNL     1      -1.281  -9.871  -1.181  0.00  0.00    -0.169 F 
ENDBRANCH  32  33
ENDBRANCH  29  32
ENDBRANCH  23  24
ENDBRANCH  22  23
ENDBRANCH   5  22
TORSDOF 9
