REMARK  Name = ZINC44918954
REMARK  8 active torsions:
REMARK  status: ('A' for Active; 'I' for Inactive)
REMARK    1  A    between atoms: C_1  and  C_2
REMARK    2  A    between atoms: C_3  and  C_28
REMARK    3  A    between atoms: C_11  and  O_14
REMARK    4  A    between atoms: C_12  and  C_13
REMARK    5  A    between atoms: O_14  and  C_15
REMARK    6  A    between atoms: C_15  and  C_16
REMARK    7  A    between atoms: N_18  and  C_19
REMARK    8  A    between atoms: C_22  and  C_25
REMARK                            x       y       z     vdW  Elec       q    Type
REMARK                         _______ _______ _______ _____ _____    ______ ____
ROOT
ATOM      1  C   UNL     1       0.094  -2.205   5.972  0.00  0.00    +0.324 C 
ENDROOT
BRANCH   1   2
ATOM      2  C   UNL     1       0.109  -3.159   7.139  0.00  0.00    +0.255 C 
ATOM      3  O   UNL     1       0.114  -4.356   6.944  0.00  0.00    -0.272 OA
ATOM      4  N   UNL     1       0.116  -2.681   8.399  0.00  0.00    -0.283 N 
ATOM      5  H   UNL     1       0.179  -1.726   8.556  0.00  0.00    +0.155 HD
BRANCH   4   6
ATOM      6  C   UNL     1       0.033  -3.560   9.478  0.00  0.00    +0.034 A 
ATOM      7  C   UNL     1       0.648  -4.806   9.408  0.00  0.00    +0.024 A 
ATOM      8  C   UNL     1       0.568  -5.676  10.471  0.00  0.00    +0.015 A 
ATOM      9  C   UNL     1      -0.132  -5.307  11.623  0.00  0.00    +0.037 A 
ATOM     10  C   UNL     1      -0.748  -4.055  11.691  0.00  0.00    +0.015 A 
ATOM     11  C   UNL     1      -0.660  -3.187  10.626  0.00  0.00    +0.024 A 
BRANCH   9  12
ATOM     12  C   UNL     1      -0.220  -6.238  12.765  0.00  0.00    +0.242 C 
ATOM     13  O   UNL     1       0.317  -7.327  12.705  0.00  0.00    -0.270 OA
ATOM     14  N   UNL     1      -0.895  -5.880  13.875  0.00  0.00    -0.325 N 
ATOM     15  H   UNL     1      -1.323  -5.011  13.924  0.00  0.00    +0.145 HD
ATOM     16  H   UNL     1      -0.953  -6.492  14.626  0.00  0.00    +0.145 HD
ENDBRANCH   9  12
ENDBRANCH   4   6
ENDBRANCH   1   2
BRANCH   1  17
ATOM     17  O   UNL     1       0.088  -2.947   4.751  0.00  0.00    -0.482 OA
BRANCH  17  28
ATOM     18  C   UNL     1       0.025   1.504   0.011  0.00  0.00    +0.045 C 
ATOM     19  C   UNL     1       0.033  -0.003   0.002  0.00  0.00    -0.030 A 
ATOM     20  C   UNL     1       0.033  -0.694  -1.167  0.00  0.00    +0.037 A 
ATOM     21  C   UNL     1       0.042  -2.104  -1.149  0.00  0.00    +0.340 A 
ATOM     22  O   UNL     1       0.042  -2.711  -2.205  0.00  0.00    -0.245 OA
ATOM     23  O   UNL     1       0.050  -2.794   0.002  0.00  0.00    -0.422 OA
ATOM     24  C   UNL     1       0.050  -2.168   1.199  0.00  0.00    +0.146 A 
ATOM     25  C   UNL     1       0.048  -0.762   1.254  0.00  0.00    +0.021 A 
ATOM     26  C   UNL     1       0.054  -0.109   2.492  0.00  0.00    +0.015 A 
ATOM     27  C   UNL     1       0.067  -0.841   3.644  0.00  0.00    +0.047 A 
ATOM     28  C   UNL     1       0.075  -2.234   3.596  0.00  0.00    +0.128 A 
ATOM     29  C   UNL     1       0.058  -2.896   2.379  0.00  0.00    +0.034 A 
ATOM     30  C   UNL     1       0.067  -4.402   2.338  0.00  0.00    +0.051 C 
ATOM     31  C   UNL     1       0.024   0.044  -2.481  0.00  0.00    +0.051 C 
ENDBRANCH  17  28
ENDBRANCH   1  17
TORSDOF 5
