REMARK  Name = ZINC13221932
REMARK  15 active torsions:
REMARK  status: ('A' for Active; 'I' for Inactive)
REMARK    1  A    between atoms: C_1  and  C_2
REMARK    2  A    between atoms: C_2  and  C_3
REMARK    3  A    between atoms: C_4  and  C_32
REMARK    4  A    between atoms: C_5  and  C_27
REMARK    5  A    between atoms: C_6  and  N_8
REMARK    6  A    between atoms: C_9  and  C_11
REMARK    7  A    between atoms: C_11  and  S_12
REMARK    8  A    between atoms: S_12  and  C_13
REMARK    9  A    between atoms: C_17  and  C_26
REMARK   10  A    between atoms: C_18  and  C_23
REMARK   11  A    between atoms: C_19  and  C_22
REMARK   12  A    between atoms: C_23  and  C_24
REMARK   13  A    between atoms: C_27  and  O_29
REMARK   14  A    between atoms: O_29  and  C_30
REMARK   15  A    between atoms: C_30  and  C_31
REMARK                            x       y       z     vdW  Elec       q    Type
REMARK                         _______ _______ _______ _____ _____    ______ ____
ROOT
ATOM      1  N   UNL     1      -9.529  -5.277   0.707  0.00  0.00    -0.279 N 
ATOM      2  C   UNL     1      -8.731  -4.583   1.543  0.00  0.00    +0.228 C 
ATOM      3  O   UNL     1      -8.857  -4.706   2.743  0.00  0.00    -0.275 OA
ATOM      4  H   UNL     1      -9.428  -5.179  -0.253  0.00  0.00    +0.155 HD
ENDROOT
BRANCH   1   8
ATOM      5  C   UNL     1     -12.187  -7.635   2.658  0.00  0.00    -0.005 A 
ATOM      6  C   UNL     1     -12.303  -7.724   1.321  0.00  0.00    -0.024 A 
ATOM      7  C   UNL     1     -11.402  -6.923   0.526  0.00  0.00    +0.091 A 
ATOM      8  C   UNL     1     -10.493  -6.131   1.219  0.00  0.00    +0.086 A 
ATOM      9  S   UNL     1     -10.854  -6.475   2.878  0.00  0.00    -0.077 S 
ATOM     10  C   UNL     1     -13.331  -8.621   0.679  0.00  0.00    +0.045 C 
BRANCH   5  12
ATOM     11  C   UNL     1     -12.306  -9.675   4.062  0.00  0.00    +0.009 C 
ATOM     12  C   UNL     1     -12.988  -8.350   3.715  0.00  0.00    +0.039 C 
ENDBRANCH   5  12
BRANCH   7  13
ATOM     13  C   UNL     1     -11.443  -6.944  -0.938  0.00  0.00    +0.342 C 
ATOM     14  O   UNL     1     -10.764  -7.744  -1.554  0.00  0.00    -0.245 OA
BRANCH  13  15
ATOM     15  O   UNL     1     -12.233  -6.077  -1.603  0.00  0.00    -0.461 OA
BRANCH  15  16
ATOM     16  C   UNL     1     -12.223  -6.154  -3.053  0.00  0.00    +0.229 C 
ATOM     17  C   UNL     1     -13.173  -5.101  -3.626  0.00  0.00    +0.048 C 
ENDBRANCH  15  16
ENDBRANCH  13  15
ENDBRANCH   7  13
ENDBRANCH   1   8
BRANCH   2  18
ATOM     18  C   UNL     1      -7.682  -3.655   0.986  0.00  0.00    +0.173 C 
BRANCH  18  19
ATOM     19  S   UNL     1      -6.779  -2.875   2.352  0.00  0.00    -0.075 S 
BRANCH  19  20
ATOM     20  C   UNL     1      -5.606  -1.835   1.548  0.00  0.00    +0.211 A 
ATOM     21  N   UNL     1      -5.471  -1.703   0.230  0.00  0.00    -0.183 NA
ATOM     22  C   UNL     1      -4.495  -0.841  -0.037  0.00  0.00    +0.254 A 
ATOM     23  N   UNL     1      -3.987  -0.383  -1.186  0.00  0.00    -0.216 NA
ATOM     24  C   UNL     1      -3.003   0.489  -1.188  0.00  0.00    +0.047 A 
ATOM     25  C   UNL     1      -2.462   0.945   0.019  0.00  0.00    +0.006 A 
ATOM     26  C   UNL     1      -2.972   0.485   1.191  0.00  0.00    +0.049 A 
ATOM     27  N   UNL     1      -3.993  -0.411   1.159  0.00  0.00    -0.200 N 
ATOM     28  N   UNL     1      -4.726  -1.066   2.158  0.00  0.00    -0.137 NA
ATOM     29  C   UNL     1      -2.415   0.963   2.507  0.00  0.00    +0.066 C 
ATOM     30  C   UNL     1      -2.451   0.994  -2.496  0.00  0.00    +0.066 C 
BRANCH  25  31
ATOM     31  C   UNL     1      -1.329   1.940   0.019  0.00  0.00    +0.163 C 
BRANCH  31  32
ATOM     32  C   UNL     1      -0.014   1.204   0.009  0.00  0.00    +0.360 C 
ATOM     33  O   UNL     1       0.002  -0.004   0.002  0.00  0.00    -0.246 OA
ATOM     34  O   UNL     1       1.139   1.891   0.001  0.00  0.00    -0.246 OA
ENDBRANCH  31  32
ENDBRANCH  25  31
ENDBRANCH  19  20
ENDBRANCH  18  19
ENDBRANCH   2  18
TORSDOF 10
