REMARK  Name = ZINC35947203
REMARK  8 active torsions:
REMARK  status: ('A' for Active; 'I' for Inactive)
REMARK    1  A    between atoms: C_1  and  C_2
REMARK    2  A    between atoms: C_2  and  N_3
REMARK    3  A    between atoms: N_6  and  C_7
REMARK    4  A    between atoms: N_6  and  C_8
REMARK    5  A    between atoms: C_8  and  C_9
REMARK    6  A    between atoms: C_12  and  C_24
REMARK    7  A    between atoms: C_15  and  C_17
REMARK    8  A    between atoms: C_28  and  N_30
REMARK                            x       y       z     vdW  Elec       q    Type
REMARK                         _______ _______ _______ _____ _____    ______ ____
ROOT
ATOM      1  C   UNL     1       0.424  -4.176  -3.556  0.00  0.00    +0.253 C 
ATOM      2  O   UNL     1      -0.461  -3.411  -3.880  0.00  0.00    -0.272 OA
ATOM      3  N   UNL     1       0.346  -5.478  -3.895  0.00  0.00    -0.184 N 
ATOM      4  C   UNL     1      -0.748  -6.100  -4.659  0.00  0.00    +0.137 C 
ATOM      5  C   UNL     1      -0.326  -7.580  -4.754  0.00  0.00    +0.087 C 
ATOM      6  C   UNL     1       0.992  -7.631  -4.015  0.00  0.00    +0.069 C 
ATOM      7  N   UNL     1       1.291  -6.454  -3.586  0.00  0.00    -0.181 NA
ENDROOT
BRANCH   6   8
ATOM      8  C   UNL     1       1.813  -8.841  -3.822  0.00  0.00    -0.002 A 
ATOM      9  C   UNL     1       1.391 -10.066  -4.346  0.00  0.00    +0.012 A 
ATOM     10  C   UNL     1       2.162 -11.194  -4.162  0.00  0.00    +0.039 A 
ATOM     11  C   UNL     1       3.354 -11.114  -3.459  0.00  0.00    +0.123 A 
ATOM     12  C   UNL     1       3.778  -9.902  -2.937  0.00  0.00    +0.039 A 
ATOM     13  C   UNL     1       3.018  -8.766  -3.119  0.00  0.00    +0.012 A 
ATOM     14  F   UNL     1       4.106 -12.223  -3.282  0.00  0.00    -0.205 F 
ENDBRANCH   6   8
BRANCH   4  15
ATOM     15  C   UNL     1      -2.054  -5.964  -3.920  0.00  0.00    -0.023 A 
ATOM     16  C   UNL     1      -2.087  -6.090  -2.543  0.00  0.00    +0.005 A 
ATOM     17  C   UNL     1      -3.285  -5.965  -1.866  0.00  0.00    +0.003 A 
ATOM     18  C   UNL     1      -4.451  -5.714  -2.564  0.00  0.00    +0.033 A 
ATOM     19  C   UNL     1      -4.419  -5.587  -3.940  0.00  0.00    +0.127 A 
ATOM     20  C   UNL     1      -3.219  -5.707  -4.618  0.00  0.00    +0.038 A 
BRANCH  19  21
ATOM     21  N   UNL     1      -5.667  -5.318  -4.688  0.00  0.00    +0.056 N 
ATOM     22  O   UNL     1      -6.715  -5.210  -4.096  0.00  0.00    -0.126 OA
ATOM     23  O   UNL     1      -5.639  -5.207  -5.892  0.00  0.00    -0.126 OA
ENDBRANCH  19  21
ENDBRANCH   4  15
BRANCH   1  24
ATOM     24  C   UNL     1       1.609  -3.670  -2.775  0.00  0.00    +0.206 C 
BRANCH  24  28
ATOM     25  N   UNL     1       0.688  -0.476  -1.203  0.00  0.00    -0.300 N 
ATOM     26  C   UNL     1       0.827  -1.799  -1.425  0.00  0.00    +0.302 C 
ATOM     27  O   UNL     1       0.383  -2.599  -0.625  0.00  0.00    -0.253 OA
ATOM     28  N   UNL     1       1.458  -2.233  -2.534  0.00  0.00    -0.280 N 
ATOM     29  C   UNL     1       1.992  -1.269  -3.498  0.00  0.00    +0.134 C 
ATOM     30  H   UNL     1       1.042   0.162  -1.842  0.00  0.00    +0.150 HD
BRANCH  25  32
ATOM     31  C   UNL     1      -0.019   1.526   0.010  0.00  0.00    +0.024 C 
ATOM     32  C   UNL     1       0.002  -0.004   0.002  0.00  0.00    +0.102 C 
ENDBRANCH  25  32
ENDBRANCH  24  28
ENDBRANCH   1  24
TORSDOF 6
