REMARK  Name = ZINC13178509
REMARK  8 active torsions:
REMARK  status: ('A' for Active; 'I' for Inactive)
REMARK    1  A    between atoms: C_1  and  C_2
REMARK    2  A    between atoms: C_2  and  O_3
REMARK    3  A    between atoms: O_3  and  C_4
REMARK    4  A    between atoms: C_4  and  C_6
REMARK    5  A    between atoms: C_8  and  C_15
REMARK    6  A    between atoms: C_10  and  N_12
REMARK    7  A    between atoms: N_17  and  C_18
REMARK    8  A    between atoms: C_23  and  C_24
REMARK                            x       y       z     vdW  Elec       q    Type
REMARK                         _______ _______ _______ _____ _____    ______ ____
ROOT
ATOM      1  C   UNL     1      -0.032   1.486  -0.034  0.00  0.00    +0.062 A 
ATOM      2  C   UNL     1       1.167   2.197  -0.026  0.00  0.00    +0.028 A 
ATOM      3  C   UNL     1       1.142   3.590  -0.017  0.00  0.00    +0.040 A 
ATOM      4  C   UNL     1      -0.082   4.264  -0.017  0.00  0.00    +0.045 A 
ATOM      5  C   UNL     1      -1.265   3.553  -0.024  0.00  0.00    +0.128 A 
ATOM      6  C   UNL     1      -1.248   2.172  -0.039  0.00  0.00    +0.047 A 
ENDROOT
BRANCH   3   7
ATOM      7  C   UNL     1       2.408   4.353  -0.009  0.00  0.00    +0.248 C 
ATOM      8  O   UNL     1       3.472   3.766  -0.010  0.00  0.00    -0.270 OA
ATOM      9  N   UNL     1       2.383   5.701  -0.001  0.00  0.00    -0.281 N 
ATOM     10  H   UNL     1       1.536   6.170  -0.066  0.00  0.00    +0.155 HD
BRANCH   9  11
ATOM     11  C   UNL     1       3.571   6.419   0.101  0.00  0.00    +0.048 A 
ATOM     12  C   UNL     1       4.727   5.944  -0.503  0.00  0.00    +0.025 A 
ATOM     13  C   UNL     1       5.904   6.657  -0.401  0.00  0.00    +0.017 A 
ATOM     14  C   UNL     1       5.943   7.850   0.304  0.00  0.00    +0.019 A 
ATOM     15  C   UNL     1       4.805   8.337   0.911  0.00  0.00    +0.032 A 
ATOM     16  C   UNL     1       3.604   7.629   0.811  0.00  0.00    +0.085 A 
ATOM     17 BR   UNL     1       7.564   8.814   0.434  0.00  0.00    -0.050 Br
BRANCH  16  18
ATOM     18  C   UNL     1       2.382   8.147   1.452  0.00  0.00    +0.388 C 
ATOM     19  O   UNL     1       1.366   7.481   1.450  0.00  0.00    -0.241 OA
ATOM     20  O   UNL     1       2.392   9.359   2.041  0.00  0.00    -0.241 OA
ENDBRANCH  16  18
ENDBRANCH   9  11
ENDBRANCH   3   7
BRANCH   5  21
ATOM     21  N   UNL     1      -2.558   4.274  -0.023  0.00  0.00    +0.056 N 
ATOM     22  O   UNL     1      -2.576   5.492  -0.015  0.00  0.00    -0.126 OA
ATOM     23  O   UNL     1      -3.603   3.650  -0.030  0.00  0.00    -0.126 OA
ENDBRANCH   5  21
BRANCH   1  24
ATOM     24  C   UNL     1      -0.015   0.008  -0.043  0.00  0.00    +0.339 C 
ATOM     25  O   UNL     1       1.043  -0.587  -0.044  0.00  0.00    -0.245 OA
BRANCH  24  26
ATOM     26  O   UNL     1      -1.174  -0.678  -0.051  0.00  0.00    -0.461 OA
BRANCH  26  28
ATOM     27  C   UNL     1      -2.490  -2.728  -0.067  0.00  0.00    +0.048 C 
ATOM     28  C   UNL     1      -1.082  -2.127  -0.060  0.00  0.00    +0.229 C 
ENDBRANCH  26  28
ENDBRANCH  24  26
ENDBRANCH   1  24
TORSDOF 7
