REMARK  Name = ZINC56771191
REMARK  7 active torsions:
REMARK  status: ('A' for Active; 'I' for Inactive)
REMARK    1  A    between atoms: C_1  and  C_2
REMARK    2  A    between atoms: C_9  and  C_11
REMARK    3  A    between atoms: N_19  and  C_20
REMARK    4  A    between atoms: C_20  and  C_22
REMARK    5  A    between atoms: C_20  and  C_23
REMARK    6  A    between atoms: C_23  and  C_24
REMARK    7  A    between atoms: C_27  and  O_30
REMARK                            x       y       z     vdW  Elec       q    Type
REMARK                         _______ _______ _______ _____ _____    ______ ____
ROOT
ATOM      1  C   UNL     1       0.280  -2.991   4.786  0.00  0.00    +0.078 C 
ATOM      2  C   UNL     1      -0.948  -3.890   4.949  0.00  0.00    +0.032 C 
ATOM      3  C   UNL     1      -0.799  -4.724   6.225  0.00  0.00    +0.110 C 
ATOM      4  N   UNL     1      -0.559  -3.818   7.357  0.00  0.00    -0.286 N 
ATOM      5  C   UNL     1       0.542  -2.849   7.266  0.00  0.00    +0.110 C 
ATOM      6  C   UNL     1       0.378  -2.036   5.978  0.00  0.00    +0.032 C 
ATOM      7  C   UNL     1      -1.335  -3.874   8.458  0.00  0.00    +0.302 C 
ATOM      8  O   UNL     1      -1.188  -3.058   9.347  0.00  0.00    -0.253 OA
ATOM      9  N   UNL     1      -2.272  -4.835   8.573  0.00  0.00    -0.296 N 
ATOM     10  H   UNL     1      -2.439  -5.442   7.835  0.00  0.00    +0.151 HD
ENDROOT
BRANCH   1  19
ATOM     11  C   UNL     1       0.042  -2.694  -2.591  0.00  0.00    +0.044 C 
ATOM     12  C   UNL     1       0.034  -2.014  -1.247  0.00  0.00    -0.046 A 
ATOM     13  C   UNL     1       0.015  -0.629  -1.152  0.00  0.00    +0.023 A 
ATOM     14  C   UNL     1       0.008  -0.037   0.096  0.00  0.00    +0.113 A 
ATOM     15  N   UNL     1       0.020  -0.770   1.192  0.00  0.00    -0.240 NA
ATOM     16  C   UNL     1       0.039  -2.092   1.143  0.00  0.00    +0.125 A 
ATOM     17  C   UNL     1       0.040  -2.755  -0.079  0.00  0.00    +0.047 A 
ATOM     18  N   UNL     1       0.051  -2.827   2.328  0.00  0.00    -0.270 N 
ATOM     19  C   UNL     1       0.152  -2.193   3.513  0.00  0.00    +0.221 C 
ATOM     20  O   UNL     1       0.141  -0.981   3.556  0.00  0.00    -0.275 OA
ATOM     21  H   UNL     1      -0.014  -3.795   2.299  0.00  0.00    +0.156 HD
ENDBRANCH   1  19
BRANCH   9  22
ATOM     22  C   UNL     1      -3.041  -4.964   9.814  0.00  0.00    +0.076 C 
ATOM     23  C   UNL     1      -4.235  -4.008   9.776  0.00  0.00    +0.028 C 
BRANCH  22  24
ATOM     24  C   UNL     1      -3.543  -6.402   9.956  0.00  0.00    +0.057 C 
BRANCH  24  25
ATOM     25  C   UNL     1      -2.367  -7.332  10.116  0.00  0.00    -0.045 A 
ATOM     26  C   UNL     1      -1.770  -7.889   9.001  0.00  0.00    +0.007 A 
ATOM     27  C   UNL     1      -0.693  -8.741   9.145  0.00  0.00    +0.045 A 
ATOM     28  C   UNL     1      -0.209  -9.037  10.411  0.00  0.00    +0.117 A 
ATOM     29  C   UNL     1      -0.810  -8.476  11.529  0.00  0.00    +0.045 A 
ATOM     30  C   UNL     1      -1.884  -7.621  11.379  0.00  0.00    +0.007 A 
BRANCH  28  31
ATOM     31  O   UNL     1       0.850  -9.876  10.556  0.00  0.00    -0.507 OA
ATOM     32  H   UNL     1       1.708  -9.430  10.549  0.00  0.00    +0.292 HD
ENDBRANCH  28  31
ENDBRANCH  24  25
ENDBRANCH  22  24
ENDBRANCH   9  22
TORSDOF 5
