REMARK  Name = ZINC41005776
REMARK  6 active torsions:
REMARK  status: ('A' for Active; 'I' for Inactive)
REMARK    1  A    between atoms: C_1  and  C_2
REMARK    2  A    between atoms: C_4  and  C_27
REMARK    3  A    between atoms: C_6  and  O_8
REMARK    4  A    between atoms: O_8  and  C_9
REMARK    5  A    between atoms: C_9  and  C_10
REMARK    6  A    between atoms: C_16  and  C_21
REMARK                            x       y       z     vdW  Elec       q    Type
REMARK                         _______ _______ _______ _____ _____    ______ ____
ROOT
ATOM      1  C   UNL     1       0.064  -2.932   4.751  0.00  0.00    +0.256 C 
ATOM      2  O   UNL     1       0.080  -4.133   4.584  0.00  0.00    -0.272 OA
ATOM      3  N   UNL     1       0.063  -2.425   6.000  0.00  0.00    -0.260 N 
ATOM      4  C   UNL     1       0.080  -3.279   7.096  0.00  0.00    +0.188 A 
ATOM      5  N   UNL     1       0.077  -2.982   8.368  0.00  0.00    -0.140 NA
ATOM      6  N   UNL     1       0.095  -3.975   9.339  0.00  0.00    -0.184 N 
ATOM      7  C   UNL     1       0.100  -4.104  10.720  0.00  0.00    +0.186 A 
ATOM      8  N   UNL     1       0.122  -5.387  11.003  0.00  0.00    -0.126 NA
ATOM      9  N   UNL     1       0.133  -6.074   9.914  0.00  0.00    -0.120 NA
ATOM     10  C   UNL     1       0.117  -5.271   8.891  0.00  0.00    +0.220 A 
ATOM     11  S   UNL     1       0.104  -5.065   7.128  0.00  0.00    -0.011 S 
ATOM     12  H   UNL     1       0.051  -1.464   6.134  0.00  0.00    +0.157 HD
ENDROOT
BRANCH   7  13
ATOM     13  C   UNL     1       0.082  -2.997  11.699  0.00  0.00    +0.021 A 
ATOM     14  C   UNL     1       0.366  -1.693  11.288  0.00  0.00    +0.011 A 
ATOM     15  C   UNL     1       0.348  -0.664  12.206  0.00  0.00    +0.001 A 
ATOM     16  C   UNL     1       0.049  -0.922  13.533  0.00  0.00    +0.000 A 
ATOM     17  C   UNL     1      -0.233  -2.212  13.947  0.00  0.00    +0.001 A 
ATOM     18  C   UNL     1      -0.224  -3.249  13.037  0.00  0.00    +0.011 A 
ENDBRANCH   7  13
BRANCH   1  19
ATOM     19  C   UNL     1       0.046  -2.005   3.563  0.00  0.00    +0.324 C 
BRANCH  19  20
ATOM     20  O   UNL     1       0.051  -2.775   2.359  0.00  0.00    -0.483 OA
BRANCH  20  26
ATOM     21  C   UNL     1      -0.018   1.503   0.010  0.00  0.00    +0.044 C 
ATOM     22  C   UNL     1       0.002  -0.004   0.002  0.00  0.00    -0.047 A 
ATOM     23  C   UNL     1       0.006  -0.688  -1.200  0.00  0.00    +0.007 A 
ATOM     24  C   UNL     1       0.025  -2.071  -1.210  0.00  0.00    -0.047 A 
ATOM     25  C   UNL     1       0.040  -2.772  -0.020  0.00  0.00    +0.049 A 
ATOM     26  C   UNL     1       0.036  -2.088   1.187  0.00  0.00    +0.122 A 
ATOM     27  C   UNL     1       0.023  -0.701   1.195  0.00  0.00    +0.049 A 
ATOM     28  C   UNL     1       0.029  -2.813  -2.522  0.00  0.00    +0.044 C 
ENDBRANCH  20  26
ENDBRANCH  19  20
ENDBRANCH   1  19
TORSDOF 4
