REMARK  Name = ZINC17399489
REMARK  10 active torsions:
REMARK  status: ('A' for Active; 'I' for Inactive)
REMARK    1  A    between atoms: C_1  and  C_2
REMARK    2  A    between atoms: C_2  and  O_3
REMARK    3  A    between atoms: O_3  and  C_4
REMARK    4  A    between atoms: C_7  and  S_10
REMARK    5  A    between atoms: S_10  and  N_13
REMARK    6  A    between atoms: N_13  and  C_14
REMARK    7  A    between atoms: C_17  and  C_20
REMARK    8  A    between atoms: N_22  and  N_23
REMARK    9  A    between atoms: C_24  and  C_26
REMARK   10  A    between atoms: C_26  and  C_27
REMARK                            x       y       z     vdW  Elec       q    Type
REMARK                         _______ _______ _______ _____ _____    ______ ____
ROOT
ATOM      1  C   UNL     1      -0.277  -6.237  -4.114  0.00  0.00    +0.048 A 
ATOM      2  C   UNL     1       0.156  -4.957  -4.448  0.00  0.00    +0.025 A 
ATOM      3  C   UNL     1       0.076  -4.521  -5.751  0.00  0.00    +0.015 A 
ATOM      4  C   UNL     1      -0.441  -5.365  -6.739  0.00  0.00    +0.038 A 
ATOM      5  C   UNL     1      -0.874  -6.650  -6.399  0.00  0.00    +0.015 A 
ATOM      6  C   UNL     1      -0.787  -7.082  -5.096  0.00  0.00    +0.025 A 
ENDROOT
BRANCH   4   7
ATOM      7  C   UNL     1      -0.529  -4.900  -8.136  0.00  0.00    +0.260 C 
ATOM      8  O   UNL     1      -0.152  -3.782  -8.430  0.00  0.00    -0.269 OA
ATOM      9  N   UNL     1      -1.027  -5.715  -9.087  0.00  0.00    -0.230 N 
ATOM     10  H   UNL     1      -1.327  -6.607  -8.853  0.00  0.00    +0.173 HD
BRANCH   9  11
ATOM     11  N   UNL     1      -1.110  -5.274 -10.414  0.00  0.00    -0.234 N 
ATOM     12  C   UNL     1      -1.608  -6.088 -11.365  0.00  0.00    +0.229 C 
ATOM     13  O   UNL     1      -1.984  -7.204 -11.072  0.00  0.00    -0.274 OA
ATOM     14  H   UNL     1      -0.809  -4.381 -10.648  0.00  0.00    +0.173 HD
BRANCH  12  15
ATOM     15  C   UNL     1      -1.698  -5.614 -12.793  0.00  0.00    +0.101 C 
BRANCH  15  16
ATOM     16  C   UNL     1      -2.294  -6.722 -13.662  0.00  0.00    +0.001 C 
ATOM     17  C   UNL     1      -1.312  -7.910 -13.769  0.00  0.00    +0.007 C 
ATOM     18  C   UNL     1      -0.989  -8.020 -15.291  0.00  0.00    -0.010 C 
ATOM     19  C   UNL     1      -2.304  -8.562 -15.931  0.00  0.00    +0.004 C 
ATOM     20  C   UNL     1      -3.303  -7.387 -15.826  0.00  0.00    +0.004 C 
ATOM     21  C   UNL     1      -2.476  -6.224 -15.129  0.00  0.00    -0.007 C 
ATOM     22  C   UNL     1      -1.042  -6.507 -15.708  0.00  0.00    +0.007 C 
ENDBRANCH  15  16
ENDBRANCH  12  15
ENDBRANCH   9  11
ENDBRANCH   4   7
BRANCH   1  23
ATOM     23  N   UNL     1      -0.195  -6.675  -2.796  0.00  0.00    -0.216 N 
ATOM     24  H   UNL     1      -0.997  -6.735  -2.254  0.00  0.00    +0.174 HD
BRANCH  23  25
ATOM     25  S   UNL     1       1.273  -7.095  -2.154  0.00  0.00    +0.072 S 
ATOM     26  O   UNL     1       1.026  -7.512  -0.818  0.00  0.00    -0.150 OA
ATOM     27  O   UNL     1       2.171  -6.040  -2.469  0.00  0.00    -0.150 OA
BRANCH  25  31
ATOM     28  C   UNL     1       2.724 -10.748  -4.403  0.00  0.00    +0.121 A 
ATOM     29  C   UNL     1       3.144  -9.483  -4.787  0.00  0.00    +0.047 A 
ATOM     30  C   UNL     1       2.700  -8.370  -4.099  0.00  0.00    +0.032 A 
ATOM     31  C   UNL     1       1.837  -8.516  -3.029  0.00  0.00    +0.109 A 
ATOM     32  C   UNL     1       1.417  -9.776  -2.644  0.00  0.00    +0.032 A 
ATOM     33  C   UNL     1       1.854 -10.892  -3.332  0.00  0.00    +0.047 A 
BRANCH  28  34
ATOM     34  O   UNL     1       3.159 -11.844  -5.078  0.00  0.00    -0.492 OA
BRANCH  34  36
ATOM     35  C   UNL     1       4.432 -12.961  -6.802  0.00  0.00    +0.048 C 
ATOM     36  C   UNL     1       4.054 -11.620  -6.170  0.00  0.00    +0.225 C 
ENDBRANCH  34  36
ENDBRANCH  28  34
ENDBRANCH  25  31
ENDBRANCH  23  25
ENDBRANCH   1  23
TORSDOF 9
