REMARK  Name = ZINC41089643
REMARK  10 active torsions:
REMARK  status: ('A' for Active; 'I' for Inactive)
REMARK    1  A    between atoms: C_1  and  C_2
REMARK    2  A    between atoms: C_6  and  C_12
REMARK    3  A    between atoms: C_12  and  O_13
REMARK    4  A    between atoms: O_13  and  C_14
REMARK    5  A    between atoms: C_14  and  C_16
REMARK    6  A    between atoms: C_20  and  N_23
REMARK    7  A    between atoms: C_21  and  C_22
REMARK    8  A    between atoms: C_24  and  C_26
REMARK    9  A    between atoms: C_26  and  O_27
REMARK   10  A    between atoms: O_27  and  C_28
REMARK                            x       y       z     vdW  Elec       q    Type
REMARK                         _______ _______ _______ _____ _____    ______ ____
ROOT
ATOM      1  C   UNL     1      -3.654  -7.282   2.597  0.00  0.00    +0.064 A 
ATOM      2  C   UNL     1      -3.419  -6.369   3.628  0.00  0.00    +0.015 A 
ATOM      3  C   UNL     1      -4.220  -6.377   4.752  0.00  0.00    +0.003 A 
ATOM      4  C   UNL     1      -5.255  -7.286   4.863  0.00  0.00    +0.023 A 
ATOM      5  C   UNL     1      -5.497  -8.200   3.844  0.00  0.00    +0.037 A 
ATOM      6  C   UNL     1      -4.702  -8.196   2.707  0.00  0.00    -0.015 A 
ATOM      7  C   UNL     1      -4.967  -9.181   1.597  0.00  0.00    +0.046 C 
ENDROOT
BRANCH   5   8
ATOM      8  N   UNL     1      -6.545  -9.119   3.962  0.00  0.00    -0.282 N 
ATOM      9  C   UNL     1      -7.052  -9.411   5.176  0.00  0.00    +0.255 C 
ATOM     10  O   UNL     1      -6.538  -8.951   6.174  0.00  0.00    -0.272 OA
ATOM     11  H   UNL     1      -6.908  -9.545   3.170  0.00  0.00    +0.155 HD
BRANCH   9  12
ATOM     12  C   UNL     1      -8.255 -10.310   5.294  0.00  0.00    +0.324 C 
BRANCH  12  13
ATOM     13  O   UNL     1      -8.599 -10.467   6.672  0.00  0.00    -0.483 OA
BRANCH  13  14
ATOM     14  C   UNL     1      -9.671 -11.254   6.955  0.00  0.00    +0.121 A 
ATOM     15  C   UNL     1     -10.373 -11.867   5.927  0.00  0.00    +0.045 A 
ATOM     16  C   UNL     1     -11.462 -12.666   6.217  0.00  0.00    +0.004 A 
ATOM     17  C   UNL     1     -11.851 -12.856   7.530  0.00  0.00    +0.000 A 
ATOM     18  C   UNL     1     -11.153 -12.247   8.556  0.00  0.00    +0.004 A 
ATOM     19  C   UNL     1     -10.060 -11.451   8.272  0.00  0.00    +0.045 A 
ENDBRANCH  13  14
ENDBRANCH  12  13
ENDBRANCH   9  12
ENDBRANCH   5   8
BRANCH   1  20
ATOM     20  C   UNL     1      -2.799  -7.277   1.393  0.00  0.00    +0.340 C 
ATOM     21  O   UNL     1      -2.923  -8.148   0.556  0.00  0.00    -0.245 OA
BRANCH  20  22
ATOM     22  O   UNL     1      -1.882  -6.305   1.222  0.00  0.00    -0.455 OA
BRANCH  22  23
ATOM     23  C   UNL     1      -1.089  -6.361   0.035  0.00  0.00    +0.288 C 
BRANCH  23  29
ATOM     24  C   UNL     1       1.400   0.592  -0.205  0.00  0.00    +0.089 C 
ATOM     25  C   UNL     1       1.200  -0.901  -0.140  0.00  0.00    +0.134 A 
ATOM     26  C   UNL     1       0.011  -1.529  -0.158  0.00  0.00    +0.093 A 
ATOM     27  C   UNL     1       0.240  -2.920  -0.080  0.00  0.00    +0.177 A 
ATOM     28  N   UNL     1      -0.585  -3.961  -0.063  0.00  0.00    -0.228 NA
ATOM     29  C   UNL     1      -0.127  -5.202   0.017  0.00  0.00    +0.086 A 
ATOM     30  C   UNL     1       1.232  -5.434   0.085  0.00  0.00    +0.100 A 
ATOM     31  C   UNL     1       2.106  -4.337   0.068  0.00  0.00    +0.287 A 
ATOM     32  O   UNL     1       3.314  -4.504   0.126  0.00  0.00    -0.265 OA
ATOM     33  N   UNL     1       1.588  -3.096  -0.015  0.00  0.00    -0.119 N 
ATOM     34  O   UNL     1       2.180  -1.811  -0.059  0.00  0.00    -0.373 OA
ENDBRANCH  23  29
ENDBRANCH  22  23
ENDBRANCH  20  22
ENDBRANCH   1  20
TORSDOF 8
