REMARK  Name = ZINC09834636
REMARK  13 active torsions:
REMARK  status: ('A' for Active; 'I' for Inactive)
REMARK    1  A    between atoms: C_1  and  C_2
REMARK    2  A    between atoms: C_3  and  C_31
REMARK    3  A    between atoms: C_4  and  C_30
REMARK    4  A    between atoms: C_7  and  C_8
REMARK    5  A    between atoms: N_10  and  C_11
REMARK    6  A    between atoms: C_13  and  S_21
REMARK    7  A    between atoms: C_16  and  O_17
REMARK    8  A    between atoms: O_17  and  C_18
REMARK    9  A    between atoms: C_18  and  C_19
REMARK   10  A    between atoms: C_18  and  C_20
REMARK   11  A    between atoms: S_21  and  N_24
REMARK   12  A    between atoms: C_31  and  O_33
REMARK   13  A    between atoms: O_33  and  C_34
REMARK                            x       y       z     vdW  Elec       q    Type
REMARK                         _______ _______ _______ _____ _____    ______ ____
ROOT
ATOM      1  C   UNL     1      -1.535   3.504  -3.014  0.00  0.00    +0.078 A 
ATOM      2  C   UNL     1      -0.837   3.120  -1.878  0.00  0.00    +0.055 A 
ATOM      3  C   UNL     1      -1.058   1.874  -1.321  0.00  0.00    +0.107 A 
ATOM      4  C   UNL     1      -1.968   1.007  -1.896  0.00  0.00    +0.032 A 
ATOM      5  C   UNL     1      -2.671   1.385  -3.025  0.00  0.00    +0.049 A 
ATOM      6  C   UNL     1      -2.456   2.632  -3.590  0.00  0.00    +0.142 A 
ENDROOT
BRANCH   1   9
ATOM      7  C   UNL     1      -0.136   5.392  -3.391  0.00  0.00    +0.265 C 
ATOM      8  O   UNL     1       0.708   4.896  -2.668  0.00  0.00    -0.268 OA
ATOM      9  N   UNL     1      -1.314   4.766  -3.580  0.00  0.00    -0.277 N 
ATOM     10  H   UNL     1      -2.009   5.189  -4.109  0.00  0.00    +0.155 HD
BRANCH   7  17
ATOM     11  C   UNL     1       2.486   7.062  -3.123  0.00  0.00    +0.047 C 
ATOM     12  C   UNL     1       1.272   7.410  -3.945  0.00  0.00    -0.006 A 
ATOM     13  C   UNL     1       1.102   8.561  -4.748  0.00  0.00    +0.083 A 
ATOM     14  C   UNL     1      -0.157   8.478  -5.314  0.00  0.00    +0.028 A 
ATOM     15  N   UNL     1      -0.736   7.342  -4.894  0.00  0.00    -0.354 N 
ATOM     16  H   UNL     1      -1.624   7.039  -5.142  0.00  0.00    +0.166 HD
ATOM     17  C   UNL     1       0.129   6.674  -4.056  0.00  0.00    +0.106 A 
ATOM     18  C   UNL     1      -0.774   9.490  -6.245  0.00  0.00    +0.064 C 
BRANCH  13  19
ATOM     19  C   UNL     1       2.079   9.645  -4.941  0.00  0.00    +0.341 C 
ATOM     20  O   UNL     1       2.076  10.605  -4.195  0.00  0.00    -0.245 OA
BRANCH  19  21
ATOM     21  O   UNL     1       2.975   9.574  -5.945  0.00  0.00    -0.464 OA
ATOM     22  C   UNL     1       3.908  10.679  -6.075  0.00  0.00    +0.280 C 
ENDBRANCH  19  21
ENDBRANCH  13  19
ENDBRANCH   7  17
ENDBRANCH   1   9
BRANCH   3  23
ATOM     23  S   UNL     1      -0.171   1.388   0.122  0.00  0.00    +0.061 S 
ATOM     24  O   UNL     1      -0.158  -0.033   0.131  0.00  0.00    -0.153 OA
ATOM     25  O   UNL     1       1.022   2.160   0.145  0.00  0.00    -0.153 OA
BRANCH  23  26
ATOM     26  N   UNL     1      -1.067   1.861   1.431  0.00  0.00    -0.177 NA
ATOM     27  C   UNL     1      -0.870   3.186   2.034  0.00  0.00    +0.109 C 
ATOM     28  C   UNL     1      -2.229   3.900   2.100  0.00  0.00    +0.017 C 
ATOM     29  C   UNL     1      -3.229   3.014   2.845  0.00  0.00    +0.003 C 
ATOM     30  C   UNL     1      -3.413   1.699   2.085  0.00  0.00    +0.017 C 
ATOM     31  C   UNL     1      -2.072   0.962   2.015  0.00  0.00    +0.109 C 
ENDBRANCH  23  26
ENDBRANCH   3  23
BRANCH   6  32
ATOM     32  O   UNL     1      -3.143   3.003  -4.703  0.00  0.00    -0.488 OA
BRANCH  32  33
ATOM     33  C   UNL     1      -4.152   2.107  -5.172  0.00  0.00    +0.167 C 
ATOM     34  C   UNL     1      -5.195   2.888  -5.974  0.00  0.00    +0.051 C 
ATOM     35  C   UNL     1      -3.514   1.042  -6.066  0.00  0.00    +0.051 C 
ENDBRANCH  32  33
ENDBRANCH   6  32
TORSDOF 8
