REMARK  Name = ZINC25833410
REMARK  13 active torsions:
REMARK  status: ('A' for Active; 'I' for Inactive)
REMARK    1  A    between atoms: C_1  and  C_2
REMARK    2  A    between atoms: C_3  and  C_25
REMARK    3  A    between atoms: C_4  and  C_24
REMARK    4  A    between atoms: C_7  and  C_8
REMARK    5  A    between atoms: N_10  and  C_11
REMARK    6  A    between atoms: N_10  and  C_12
REMARK    7  A    between atoms: C_12  and  C_14
REMARK    8  A    between atoms: C_12  and  C_15
REMARK    9  A    between atoms: C_19  and  N_21
REMARK   10  A    between atoms: C_25  and  O_27
REMARK   11  A    between atoms: O_27  and  C_28
REMARK   12  A    between atoms: C_28  and  C_29
REMARK   13  A    between atoms: C_28  and  C_30
REMARK                            x       y       z     vdW  Elec       q    Type
REMARK                         _______ _______ _______ _____ _____    ______ ____
ROOT
ATOM      1  C   UNL     1      -0.129  -0.084   2.592  0.00  0.00    +0.263 C 
ATOM      2  O   UNL     1      -1.089   0.104   3.315  0.00  0.00    -0.268 OA
ATOM      3  N   UNL     1       1.119   0.068   3.076  0.00  0.00    -0.293 N 
ATOM      4  C   UNL     1       2.272  -0.053   2.180  0.00  0.00    +0.133 C 
ENDROOT
BRANCH   1  11
ATOM      5  C   UNL     1       0.278   1.771   0.117  0.00  0.00    +0.047 C 
ATOM      6  C   UNL     1      -0.155   0.328   0.104  0.00  0.00    -0.006 A 
ATOM      7  C   UNL     1      -0.451  -0.451  -1.038  0.00  0.00    +0.083 A 
ATOM      8  C   UNL     1      -0.804  -1.711  -0.589  0.00  0.00    +0.028 A 
ATOM      9  N   UNL     1      -0.733  -1.718   0.751  0.00  0.00    -0.354 N 
ATOM     10  H   UNL     1      -0.930  -2.479   1.320  0.00  0.00    +0.166 HD
ATOM     11  C   UNL     1      -0.331  -0.476   1.191  0.00  0.00    +0.106 A 
ATOM     12  C   UNL     1      -1.201  -2.877  -1.457  0.00  0.00    +0.064 C 
BRANCH   7  13
ATOM     13  C   UNL     1      -0.394  -0.006  -2.440  0.00  0.00    +0.341 C 
ATOM     14  O   UNL     1       0.636  -0.123  -3.074  0.00  0.00    -0.245 OA
BRANCH  13  15
ATOM     15  O   UNL     1      -1.485   0.532  -3.021  0.00  0.00    -0.458 OA
BRANCH  15  16
ATOM     16  C   UNL     1      -1.358   0.943  -4.384  0.00  0.00    +0.171 C 
ATOM     17  C   UNL     1      -1.729  -0.222  -5.304  0.00  0.00    +0.052 C 
ATOM     18  C   UNL     1      -2.296   2.121  -4.650  0.00  0.00    +0.052 C 
ENDBRANCH  15  16
ENDBRANCH  13  15
ENDBRANCH   7  13
ENDBRANCH   1  11
BRANCH   3  19
ATOM     19  C   UNL     1       1.324   0.353   4.498  0.00  0.00    +0.103 C 
ATOM     20  C   UNL     1       2.289  -0.676   5.091  0.00  0.00    +0.033 C 
BRANCH  19  21
ATOM     21  C   UNL     1       1.905   1.734   4.655  0.00  0.00    -0.025 A 
ATOM     22  C   UNL     1       1.245   2.678   5.421  0.00  0.00    +0.005 A 
ATOM     23  C   UNL     1       1.778   3.946   5.565  0.00  0.00    +0.003 A 
ATOM     24  C   UNL     1       2.970   4.269   4.944  0.00  0.00    +0.033 A 
ATOM     25  C   UNL     1       3.630   3.325   4.180  0.00  0.00    +0.127 A 
ATOM     26  C   UNL     1       3.099   2.056   4.039  0.00  0.00    +0.038 A 
BRANCH  25  27
ATOM     27  N   UNL     1       4.906   3.672   3.515  0.00  0.00    +0.056 N 
ATOM     28  O   UNL     1       5.371   4.780   3.640  0.00  0.00    -0.126 OA
ATOM     29  O   UNL     1       5.483   2.846   2.846  0.00  0.00    -0.126 OA
ENDBRANCH  25  27
ENDBRANCH  19  21
ENDBRANCH   3  19
TORSDOF 7
