REMARK  Name = ZINC00989498
REMARK  6 active torsions:
REMARK  status: ('A' for Active; 'I' for Inactive)
REMARK    1  A    between atoms: C_3  and  C_19
REMARK    2  A    between atoms: C_5  and  O_7
REMARK    3  A    between atoms: O_7  and  C_8
REMARK    4  A    between atoms: C_8  and  C_10
REMARK    5  A    between atoms: N_20  and  N_21
REMARK    6  A    between atoms: C_22  and  C_24
REMARK                            x       y       z     vdW  Elec       q    Type
REMARK                         _______ _______ _______ _____ _____    ______ ____
ROOT
ATOM      1  C   UNL     1       4.732   3.874  -0.099  0.00  0.00    +0.004 A 
ATOM      2  C   UNL     1       3.554   3.161  -0.001  0.00  0.00    +0.010 A 
ATOM      3  C   UNL     1       3.589   1.767   0.087  0.00  0.00    -0.002 A 
ATOM      4  C   UNL     1       4.816   1.102   0.065  0.00  0.00    +0.055 A 
ATOM      5  C   UNL     1       5.990   1.828  -0.039  0.00  0.00    +0.133 A 
ATOM      6  C   UNL     1       5.946   3.213  -0.120  0.00  0.00    +0.046 A 
ENDROOT
BRANCH   3   7
ATOM      7  C   UNL     1       2.333   1.001   0.196  0.00  0.00    +0.138 C 
ATOM      8  N   UNL     1       1.194   1.622   0.217  0.00  0.00    -0.187 NA
BRANCH   8   9
ATOM      9  N   UNL     1       0.001   0.895   0.321  0.00  0.00    -0.203 N 
ATOM     10  C   UNL     1      -1.182   1.539   0.336  0.00  0.00    +0.270 C 
ATOM     11  O   UNL     1      -1.215   2.754   0.265  0.00  0.00    -0.268 OA
ATOM     12  H   UNL     1       0.027  -0.073   0.378  0.00  0.00    +0.178 HD
BRANCH  10  13
ATOM     13  C   UNL     1      -2.430   0.778   0.439  0.00  0.00    +0.075 A 
ATOM     14  C   UNL     1      -3.736   1.242   0.476  0.00  0.00    +0.021 A 
ATOM     15  C   UNL     1      -4.731   0.300   0.572  0.00  0.00    +0.008 A 
ATOM     16  C   UNL     1      -4.396  -1.015   0.636  0.00  0.00    +0.046 A 
ATOM     17  S   UNL     1      -2.664  -0.987   0.556  0.00  0.00    -0.092 S 
ENDBRANCH  10  13
ENDBRANCH   8   9
ENDBRANCH   3   7
BRANCH   5  18
ATOM     18  O   UNL     1       7.187   1.184  -0.061  0.00  0.00    -0.422 OA
BRANCH  18  19
ATOM     19  C   UNL     1       7.467   0.450  -1.156  0.00  0.00    +0.345 C 
ATOM     20  O   UNL     1       6.713   0.469  -2.109  0.00  0.00    -0.245 OA
BRANCH  19  21
ATOM     21  C   UNL     1       8.687  -0.377  -1.198  0.00  0.00    +0.063 A 
ATOM     22  C   UNL     1       9.558  -0.397  -0.104  0.00  0.00    +0.019 A 
ATOM     23  C   UNL     1      10.694  -1.174  -0.143  0.00  0.00    +0.050 A 
ATOM     24  C   UNL     1      10.985  -1.932  -1.270  0.00  0.00    +0.166 A 
ATOM     25  C   UNL     1      10.122  -1.913  -2.367  0.00  0.00    +0.167 A 
ATOM     26  C   UNL     1       8.979  -1.139  -2.333  0.00  0.00    +0.064 A 
ATOM     27  O   UNL     1      10.630  -2.733  -3.334  0.00  0.00    -0.453 OA
ATOM     28  C   UNL     1      12.011  -2.933  -2.981  0.00  0.00    +0.466 C 
ATOM     29  O   UNL     1      12.028  -2.764  -1.552  0.00  0.00    -0.453 OA
ENDBRANCH  19  21
ENDBRANCH  18  19
ENDBRANCH   5  18
TORSDOF 6
