REMARK  Name = ZINC10750413
REMARK  11 active torsions:
REMARK  status: ('A' for Active; 'I' for Inactive)
REMARK    1  A    between atoms: C_1  and  C_2
REMARK    2  A    between atoms: C_5  and  C_36
REMARK    3  A    between atoms: C_6  and  N_8
REMARK    4  A    between atoms: C_9  and  C_11
REMARK    5  A    between atoms: C_11  and  C_12
REMARK    6  A    between atoms: C_14  and  C_17
REMARK    7  A    between atoms: C_17  and  O_18
REMARK    8  A    between atoms: O_18  and  C_19
REMARK    9  A    between atoms: C_19  and  C_21
REMARK   10  A    between atoms: C_21  and  N_22
REMARK   11  A    between atoms: C_30  and  C_32
REMARK                            x       y       z     vdW  Elec       q    Type
REMARK                         _______ _______ _______ _____ _____    ______ ____
ROOT
ATOM      1  C   UNL     1       1.284   2.003  -0.014  0.00  0.00    +0.288 C 
ENDROOT
BRANCH   1   4
ATOM      2  C   UNL     1       1.909   5.627   0.015  0.00  0.00    +0.087 A 
ATOM      3  N   UNL     1       2.086   4.326   0.004  0.00  0.00    -0.245 NA
ATOM      4  C   UNL     1       1.065   3.494   0.005  0.00  0.00    +0.086 A 
ATOM      5  C   UNL     1      -0.189   4.012   0.030  0.00  0.00    +0.073 A 
ATOM      6  S   UNL     1       0.178   5.761   0.043  0.00  0.00    -0.080 S 
BRANCH   2   7
ATOM      7  C   UNL     1       2.944   6.723   0.010  0.00  0.00    +0.159 C 
BRANCH   7   9
ATOM      8  N   UNL     1       4.173   8.069  -1.662  0.00  0.00    -0.285 N 
ATOM      9  C   UNL     1       3.267   7.103  -1.412  0.00  0.00    +0.224 C 
ATOM     10  O   UNL     1       2.712   6.539  -2.331  0.00  0.00    -0.275 OA
ATOM     11  H   UNL     1       4.558   8.574  -0.929  0.00  0.00    +0.155 HD
BRANCH   8  17
ATOM     12  C   UNL     1       4.713   6.567  -6.312  0.00  0.00    +0.044 C 
ATOM     13  C   UNL     1       4.831   7.632  -5.253  0.00  0.00    -0.049 A 
ATOM     14  C   UNL     1       5.322   8.883  -5.583  0.00  0.00    +0.004 A 
ATOM     15  C   UNL     1       5.431   9.863  -4.614  0.00  0.00    +0.005 A 
ATOM     16  C   UNL     1       5.046   9.598  -3.314  0.00  0.00    -0.029 A 
ATOM     17  C   UNL     1       4.559   8.342  -2.979  0.00  0.00    +0.037 A 
ATOM     18  C   UNL     1       4.450   7.359  -3.954  0.00  0.00    +0.027 A 
ATOM     19  C   UNL     1       5.160  10.669  -2.260  0.00  0.00    +0.045 C 
ENDBRANCH   8  17
ENDBRANCH   7   9
ENDBRANCH   2   7
ENDBRANCH   1   4
BRANCH   1  20
ATOM     20  O   UNL     1       0.000   1.325  -0.002  0.00  0.00    -0.457 OA
BRANCH  20  21
ATOM     21  C   UNL     1       0.019  -0.017  -0.016  0.00  0.00    +0.326 C 
ATOM     22  O   UNL     1       1.074  -0.606  -0.039  0.00  0.00    -0.249 OA
BRANCH  21  23
ATOM     23  C   UNL     1      -1.274  -0.789  -0.005  0.00  0.00    +0.238 C 
BRANCH  23  24
ATOM     24  N   UNL     1      -0.986  -2.225  -0.025  0.00  0.00    -0.213 N 
ATOM     25  C   UNL     1      -0.859  -2.958  -1.150  0.00  0.00    +0.247 C 
ATOM     26  O   UNL     1      -0.958  -2.568  -2.294  0.00  0.00    -0.273 OA
ATOM     27  C   UNL     1      -0.566  -4.366  -0.685  0.00  0.00    +0.115 C 
ATOM     28  C   UNL     1       0.799  -4.823  -1.188  0.00  0.00    +0.035 C 
ATOM     29  C   UNL     1       0.787  -4.889  -2.717  0.00  0.00    +0.003 C 
ATOM     30  C   UNL     1      -0.298  -5.866  -3.176  0.00  0.00    +0.000 C 
ATOM     31  C   UNL     1      -1.663  -5.381  -2.685  0.00  0.00    +0.006 C 
ATOM     32  C   UNL     1      -1.661  -5.316  -1.155  0.00  0.00    +0.018 C 
ATOM     33  C   UNL     1      -3.019  -4.811  -0.664  0.00  0.00    +0.010 C 
ATOM     34  N   UNL     1      -0.567  -4.265   0.780  0.00  0.00    -0.285 N 
ATOM     35  C   UNL     1      -0.821  -2.975   1.072  0.00  0.00    +0.310 C 
ATOM     36  O   UNL     1      -0.893  -2.540   2.205  0.00  0.00    -0.252 OA
ATOM     37  H   UNL     1      -0.414  -4.984   1.412  0.00  0.00    +0.151 HD
ENDBRANCH  23  24
ENDBRANCH  21  23
ENDBRANCH  20  21
ENDBRANCH   1  20
TORSDOF 8
