REMARK  Name = ZINC39441243
REMARK  6 active torsions:
REMARK  status: ('A' for Active; 'I' for Inactive)
REMARK    1  A    between atoms: C_1  and  C_2
REMARK    2  A    between atoms: C_2  and  C_4
REMARK    3  A    between atoms: C_2  and  S_16
REMARK    4  A    between atoms: S_16  and  C_17
REMARK    5  A    between atoms: C_23  and  N_31
REMARK    6  A    between atoms: N_24  and  C_25
REMARK                            x       y       z     vdW  Elec       q    Type
REMARK                         _______ _______ _______ _____ _____    ______ ____
ROOT
ATOM      1  C   UNL     1      -0.385  -0.180  -3.056  0.00  0.00    +0.228 C 
ATOM      2  N   UNL     1      -1.741  -0.606  -2.700  0.00  0.00    -0.284 N 
ATOM      3  C   UNL     1      -2.536   0.197  -1.967  0.00  0.00    +0.242 C 
ATOM      4  O   UNL     1      -3.615  -0.215  -1.577  0.00  0.00    -0.271 OA
ATOM      5  C   UNL     1      -2.134   1.501  -1.646  0.00  0.00    +0.106 C 
ATOM      6  C   UNL     1      -1.030   2.038  -2.251  0.00  0.00    +0.095 C 
ATOM      7  N   UNL     1      -0.358   1.282  -3.189  0.00  0.00    -0.260 N 
ATOM      8  H   UNL     1      -2.069  -1.470  -2.994  0.00  0.00    +0.152 HD
ENDROOT
BRANCH   7   9
ATOM      9  C   UNL     1       0.332   1.891  -4.242  0.00  0.00    +0.037 A 
ATOM     10  C   UNL     1       1.696   1.680  -4.395  0.00  0.00    +0.023 A 
ATOM     11  C   UNL     1       2.373   2.284  -5.436  0.00  0.00    +0.002 A 
ATOM     12  C   UNL     1       1.696   3.097  -6.325  0.00  0.00    +0.000 A 
ATOM     13  C   UNL     1       0.337   3.310  -6.175  0.00  0.00    +0.002 A 
ATOM     14  C   UNL     1      -0.347   2.705  -5.139  0.00  0.00    +0.023 A 
ENDBRANCH   7   9
BRANCH   6  15
ATOM     15  N   UNL     1      -0.602   3.301  -1.932  0.00  0.00    -0.346 N 
ATOM     16  H   UNL     1      -1.125   3.854  -1.330  0.00  0.00    +0.143 HD
ATOM     17  H   UNL     1       0.225   3.642  -2.308  0.00  0.00    +0.143 HD
ENDBRANCH   6  15
BRANCH   1  18
ATOM     18  S   UNL     1       0.773  -0.693  -1.757  0.00  0.00    -0.108 S 
BRANCH  18  20
ATOM     19  C   UNL     1      -0.240  -3.233  -1.720  0.00  0.00    +0.027 C 
ATOM     20  C   UNL     1       1.032  -2.461  -2.073  0.00  0.00    +0.112 C 
BRANCH  20  21
ATOM     21  C   UNL     1       2.174  -2.960  -1.225  0.00  0.00    +0.123 A 
ATOM     22  N   UNL     1       2.460  -4.288  -1.248  0.00  0.00    -0.309 N 
ATOM     23  H   UNL     1       1.932  -4.884  -1.801  0.00  0.00    +0.170 HD
ATOM     24  C   UNL     1       3.476  -4.786  -0.505  0.00  0.00    +0.259 A 
ATOM     25  O   UNL     1       3.744  -5.974  -0.516  0.00  0.00    -0.267 OA
ATOM     26  C   UNL     1       4.244  -3.838   0.315  0.00  0.00    +0.065 A 
ATOM     27  C   UNL     1       5.308  -4.248   1.116  0.00  0.00    +0.015 A 
ATOM     28  C   UNL     1       5.992  -3.317   1.865  0.00  0.00    +0.001 A 
ATOM     29  C   UNL     1       5.631  -1.976   1.827  0.00  0.00    +0.002 A 
ATOM     30  C   UNL     1       4.582  -1.550   1.044  0.00  0.00    +0.028 A 
ATOM     31  C   UNL     1       3.873  -2.475   0.275  0.00  0.00    +0.078 A 
ATOM     32  N   UNL     1       2.837  -2.098  -0.516  0.00  0.00    -0.233 NA
ENDBRANCH  20  21
ENDBRANCH  18  20
ENDBRANCH   1  18
TORSDOF 5
