REMARK  Name = ZINC13065471
REMARK  10 active torsions:
REMARK  status: ('A' for Active; 'I' for Inactive)
REMARK    1  A    between atoms: C_1  and  C_2
REMARK    2  A    between atoms: C_5  and  C_8
REMARK    3  A    between atoms: C_8  and  N_64
REMARK    4  A    between atoms: C_9  and  C_10
REMARK    5  A    between atoms: C_9  and  N_64
REMARK    6  A    between atoms: C_14  and  C_22
REMARK    7  A    between atoms: C_23  and  C_24
REMARK    8  A    between atoms: C_23  and  N_64
REMARK    9  A    between atoms: N_28  and  C_29
REMARK   10  A    between atoms: C_29  and  C_30
REMARK                            x       y       z     vdW  Elec       q    Type
REMARK                         _______ _______ _______ _____ _____    ______ ____
ROOT
ATOM      1  N   UNL     1       1.434   1.756  -0.235  0.00  0.00    +0.390 N 
ATOM      2  H   UNL     1       1.653   1.394  -1.171  0.00  0.00    -0.080 HD
ENDROOT
BRANCH   1   3
ATOM      3  C   UNL     1      -0.014   1.593   0.016  0.00  0.00    -0.042 C 
BRANCH   3   8
ATOM      4  C   UNL     1      -1.500  -3.876  -1.112  0.00  0.00    +0.044 C 
ATOM      5  C   UNL     1      -1.112  -2.450  -0.818  0.00  0.00    -0.050 A 
ATOM      6  C   UNL     1      -0.843  -2.060   0.481  0.00  0.00    +0.003 A 
ATOM      7  C   UNL     1      -0.488  -0.752   0.751  0.00  0.00    +0.002 A 
ATOM      8  C   UNL     1      -0.401   0.167  -0.278  0.00  0.00    -0.064 A 
ATOM      9  C   UNL     1      -0.674  -0.221  -1.577  0.00  0.00    +0.002 A 
ATOM     10  C   UNL     1      -1.026  -1.530  -1.847  0.00  0.00    +0.003 A 
ENDBRANCH   3   8
ENDBRANCH   1   3
BRANCH   1  11
ATOM     11  C   UNL     1       2.209   0.995   0.767  0.00  0.00    -0.036 C 
BRANCH  11  12
ATOM     12  C   UNL     1       3.635   0.881   0.293  0.00  0.00    +0.001 A 
ATOM     13  C   UNL     1       4.571   1.746   0.755  0.00  0.00    +0.017 A 
ATOM     14  C   UNL     1       5.948   1.607   0.279  0.00  0.00    -0.001 A 
ATOM     15  C   UNL     1       6.958   2.466   0.723  0.00  0.00    +0.013 A 
ATOM     16  C   UNL     1       8.232   2.313   0.254  0.00  0.00    -0.050 A 
ATOM     17  C   UNL     1       8.533   1.312  -0.660  0.00  0.00    +0.005 A 
ATOM     18  C   UNL     1       7.554   0.454  -1.111  0.00  0.00    +0.026 A 
ATOM     19  C   UNL     1       6.250   0.590  -0.647  0.00  0.00    +0.049 A 
ATOM     20  N   UNL     1       5.250  -0.254  -1.083  0.00  0.00    -0.322 N 
ATOM     21  H   UNL     1       5.460  -0.953  -1.721  0.00  0.00    +0.169 HD
ATOM     22  C   UNL     1       3.989  -0.120  -0.636  0.00  0.00    +0.251 A 
ATOM     23  O   UNL     1       3.131  -0.884  -1.043  0.00  0.00    -0.268 OA
ATOM     24  C   UNL     1       9.320   3.239   0.733  0.00  0.00    +0.044 C 
ENDBRANCH  11  12
ENDBRANCH   1  11
BRANCH   1  25
ATOM     25  C   UNL     1       1.799   3.187  -0.176  0.00  0.00    +0.001 C 
BRANCH  25  26
ATOM     26  C   UNL     1       1.166   3.899  -1.343  0.00  0.00    +0.135 A 
ATOM     27  N   UNL     1       1.688   4.066  -2.534  0.00  0.00    -0.115 NA
ATOM     28  N   UNL     1       0.841   4.720  -3.251  0.00  0.00    -0.023 NA
ATOM     29  N   UNL     1      -0.204   4.982  -2.546  0.00  0.00    -0.044 NA
ATOM     30  N   UNL     1      -0.042   4.492  -1.364  0.00  0.00    -0.229 N 
BRANCH  30  31
ATOM     31  C   UNL     1      -0.993   4.568  -0.253  0.00  0.00    +0.178 C 
BRANCH  31  32
ATOM     32  C   UNL     1      -0.723   5.833   0.564  0.00  0.00    +0.140 C 
ATOM     33  C   UNL     1      -1.644   5.863   1.803  0.00  0.00    +0.035 C 
ATOM     34  C   UNL     1      -2.031   7.365   1.889  0.00  0.00    +0.031 C 
ATOM     35  C   UNL     1      -2.081   7.743   0.387  0.00  0.00    +0.160 C 
ATOM     36  O   UNL     1      -1.019   6.993  -0.223  0.00  0.00    -0.375 OA
ENDBRANCH  31  32
ENDBRANCH  30  31
ENDBRANCH  25  26
ENDBRANCH   1  25
TORSDOF 8
