REMARK  Name = ZINC15525004
REMARK  6 active torsions:
REMARK  status: ('A' for Active; 'I' for Inactive)
REMARK    1  A    between atoms: C_1  and  C_2
REMARK    2  A    between atoms: C_5  and  C_8
REMARK    3  A    between atoms: N_13  and  C_14
REMARK    4  A    between atoms: C_14  and  C_15
REMARK    5  A    between atoms: N_20  and  C_23
REMARK    6  A    between atoms: C_26  and  N_29
REMARK                            x       y       z     vdW  Elec       q    Type
REMARK                         _______ _______ _______ _____ _____    ______ ____
ROOT
ATOM      1  C   UNL     1       4.093   3.316   1.887  0.00  0.00    +0.236 C 
ATOM      2  O   UNL     1       3.965   2.396   2.667  0.00  0.00    -0.274 OA
ATOM      3  N   UNL     1       4.334   4.560   2.347  0.00  0.00    -0.297 N 
ATOM      4  C   UNL     1       4.499   5.689   1.419  0.00  0.00    +0.126 C 
ATOM      5  C   UNL     1       3.562   6.822   1.867  0.00  0.00    +0.124 C 
ATOM      6  N   UNL     1       3.822   7.136   3.279  0.00  0.00    -0.327 N 
ATOM      7  C   UNL     1       3.515   5.989   4.144  0.00  0.00    +0.124 C 
ATOM      8  C   UNL     1       4.444   4.823   3.790  0.00  0.00    +0.126 C 
ENDROOT
BRANCH   6   9
ATOM      9  C   UNL     1       3.111   8.269   3.678  0.00  0.00    +0.030 A 
ATOM     10  C   UNL     1       2.248   8.202   4.765  0.00  0.00    +0.025 A 
ATOM     11  C   UNL     1       1.550   9.327   5.161  0.00  0.00    +0.034 A 
ATOM     12  C   UNL     1       1.701  10.515   4.471  0.00  0.00    +0.126 A 
ATOM     13  C   UNL     1       2.555  10.584   3.385  0.00  0.00    +0.034 A 
ATOM     14  C   UNL     1       3.260   9.465   2.987  0.00  0.00    +0.025 A 
BRANCH  12  15
ATOM     15  N   UNL     1       0.948  11.716   4.894  0.00  0.00    +0.056 N 
ATOM     16  O   UNL     1       1.080  12.764   4.287  0.00  0.00    -0.126 OA
ATOM     17  O   UNL     1       0.196  11.657   5.851  0.00  0.00    -0.126 OA
ENDBRANCH  12  15
ENDBRANCH   6   9
BRANCH   1  18
ATOM     18  C   UNL     1       3.984   3.069   0.405  0.00  0.00    +0.221 C 
BRANCH  18  24
ATOM     19  C   UNL     1       2.478   1.069   0.010  0.00  0.00    +0.165 A 
ATOM     20  N   UNL     1       2.636  -0.209  -0.191  0.00  0.00    -0.128 NA
ATOM     21  N   UNL     1       4.010  -0.484  -0.165  0.00  0.00    -0.121 NA
ATOM     22  C   UNL     1       4.654   0.679   0.059  0.00  0.00    +0.203 A 
ATOM     23  S   UNL     1       6.348   0.890   0.182  0.00  0.00    -0.009 SA
ATOM     24  N   UNL     1       3.722   1.648   0.165  0.00  0.00    -0.293 N 
BRANCH  19  29
ATOM     25  C   UNL     1      -2.564   3.840   0.203  0.00  0.00    +0.044 C 
ATOM     26  C   UNL     1      -1.244   3.115   0.152  0.00  0.00    -0.050 A 
ATOM     27  C   UNL     1      -0.129   3.671   0.754  0.00  0.00    +0.004 A 
ATOM     28  C   UNL     1       1.083   3.014   0.707  0.00  0.00    +0.012 A 
ATOM     29  C   UNL     1       1.181   1.782   0.059  0.00  0.00    +0.019 A 
ATOM     30  C   UNL     1       0.052   1.224  -0.541  0.00  0.00    +0.012 A 
ATOM     31  C   UNL     1      -1.153   1.893  -0.491  0.00  0.00    +0.004 A 
ENDBRANCH  19  29
ENDBRANCH  18  24
ENDBRANCH   1  18
TORSDOF 5
