REMARK  Name = ZINC13979611
REMARK  10 active torsions:
REMARK  status: ('A' for Active; 'I' for Inactive)
REMARK    1  A    between atoms: C_1  and  C_2
REMARK    2  A    between atoms: C_5  and  C_29
REMARK    3  A    between atoms: C_6  and  N_8
REMARK    4  A    between atoms: C_9  and  C_11
REMARK    5  A    between atoms: C_11  and  C_12
REMARK    6  A    between atoms: C_12  and  C_13
REMARK    7  A    between atoms: N_15  and  N_16
REMARK    8  A    between atoms: C_17  and  C_19
REMARK    9  A    between atoms: C_19  and  O_20
REMARK   10  A    between atoms: O_20  and  C_21
REMARK                            x       y       z     vdW  Elec       q    Type
REMARK                         _______ _______ _______ _____ _____    ______ ____
ROOT
ATOM      1  C   UNL     1       5.406  -4.043  -0.103  0.00  0.00    +0.230 C 
ATOM      2  O   UNL     1       4.456  -4.796  -0.104  0.00  0.00    -0.274 OA
ATOM      3  N   UNL     1       5.210  -2.710  -0.097  0.00  0.00    -0.234 N 
ATOM      4  H   UNL     1       5.970  -2.108  -0.095  0.00  0.00    +0.173 HD
ENDROOT
BRANCH   3   5
ATOM      5  N   UNL     1       3.907  -2.194  -0.092  0.00  0.00    -0.232 N 
ATOM      6  C   UNL     1       3.711  -0.861  -0.086  0.00  0.00    +0.267 C 
ATOM      7  O   UNL     1       4.662  -0.107  -0.084  0.00  0.00    -0.271 OA
ATOM      8  H   UNL     1       3.147  -2.796  -0.093  0.00  0.00    +0.173 HD
BRANCH   6   9
ATOM      9  C   UNL     1       2.310  -0.305  -0.081  0.00  0.00    +0.326 C 
BRANCH   9  10
ATOM     10  O   UNL     1       2.364   1.123  -0.074  0.00  0.00    -0.482 OA
BRANCH  10  11
ATOM     11  C   UNL     1       1.176   1.785  -0.069  0.00  0.00    +0.135 A 
ATOM     12  C   UNL     1      -0.015   1.074  -0.070  0.00  0.00    +0.048 A 
ATOM     13  C   UNL     1      -1.221   1.749  -0.071  0.00  0.00    +0.023 A 
ATOM     14  C   UNL     1      -1.241   3.132  -0.060  0.00  0.00    +0.042 A 
ATOM     15  C   UNL     1      -0.054   3.844  -0.059  0.00  0.00    +0.039 A 
ATOM     16  C   UNL     1       1.155   3.172  -0.063  0.00  0.00    +0.061 A 
ATOM     17 BR   UNL     1       2.777   4.144  -0.063  0.00  0.00    -0.046 Br
ATOM     18 CL   UNL     1      -2.757   3.977  -0.054  0.00  0.00    -0.084 Cl
ENDBRANCH  10  11
ENDBRANCH   9  10
ENDBRANCH   6   9
ENDBRANCH   3   5
BRANCH   1  19
ATOM     19  C   UNL     1       6.807  -4.599  -0.108  0.00  0.00    +0.106 C 
BRANCH  19  20
ATOM     20  C   UNL     1       6.750  -6.128  -0.115  0.00  0.00    +0.105 C 
BRANCH  20  22
ATOM     21  N   UNL     1       8.347  -8.016  -0.126  0.00  0.00    -0.285 N 
ATOM     22  C   UNL     1       8.151  -6.683  -0.119  0.00  0.00    +0.218 C 
ATOM     23  O   UNL     1       9.102  -5.930  -0.118  0.00  0.00    -0.275 OA
ATOM     24  H   UNL     1       7.591  -8.618  -0.046  0.00  0.00    +0.155 HD
BRANCH  21  30
ATOM     25  C   UNL     1      12.996  -7.472  -1.631  0.00  0.00    +0.044 C 
ATOM     26  C   UNL     1      11.915  -8.289  -0.972  0.00  0.00    -0.049 A 
ATOM     27  C   UNL     1      12.203  -9.552  -0.487  0.00  0.00    +0.004 A 
ATOM     28  C   UNL     1      11.214 -10.306   0.117  0.00  0.00    +0.005 A 
ATOM     29  C   UNL     1       9.935  -9.800   0.239  0.00  0.00    -0.029 A 
ATOM     30  C   UNL     1       9.642  -8.532  -0.247  0.00  0.00    +0.037 A 
ATOM     31  C   UNL     1      10.637  -7.779  -0.859  0.00  0.00    +0.027 A 
ATOM     32  C   UNL     1       8.857 -10.622   0.898  0.00  0.00    +0.045 C 
ENDBRANCH  21  30
ENDBRANCH  20  22
ENDBRANCH  19  20
ENDBRANCH   1  19
TORSDOF 8
