REMARK  Name = ZINC09423983
REMARK  6 active torsions:
REMARK  status: ('A' for Active; 'I' for Inactive)
REMARK    1  A    between atoms: C_1  and  N_2
REMARK    2  A    between atoms: N_7  and  N_8
REMARK    3  A    between atoms: C_9  and  C_10
REMARK    4  A    between atoms: N_15  and  C_29
REMARK    5  A    between atoms: N_18  and  C_21
REMARK    6  A    between atoms: C_21  and  C_22
REMARK                            x       y       z     vdW  Elec       q    Type
REMARK                         _______ _______ _______ _____ _____    ______ ____
ROOT
ATOM      1  C   UNL     1      -1.968   5.617   3.531  0.00  0.00    +0.152 C 
ATOM      2  N   UNL     1      -1.425   4.702   2.524  0.00  0.00    -0.308 N 
ATOM      3  C   UNL     1      -1.456   3.315   2.564  0.00  0.00    +0.153 A 
ATOM      4  C   UNL     1      -0.822   2.875   1.407  0.00  0.00    +0.170 A 
ATOM      5  N   UNL     1      -0.447   3.954   0.719  0.00  0.00    -0.195 NA
ATOM      6  C   UNL     1      -0.794   5.046   1.369  0.00  0.00    +0.218 A 
ATOM      7  N   UNL     1      -0.555   6.333   0.947  0.00  0.00    -0.206 N 
ATOM      8  N   UNL     1      -0.715   1.512   1.181  0.00  0.00    -0.279 N 
ATOM      9  C   UNL     1      -1.210   0.639   2.079  0.00  0.00    +0.334 A 
ATOM     10  O   UNL     1      -1.103  -0.554   1.867  0.00  0.00    -0.246 OA
ATOM     11  N   UNL     1      -1.819   1.053   3.203  0.00  0.00    -0.255 N 
ATOM     12  C   UNL     1      -1.958   2.367   3.474  0.00  0.00    +0.283 A 
ATOM     13  O   UNL     1      -2.513   2.729   4.497  0.00  0.00    -0.265 OA
ATOM     14  C   UNL     1      -0.058   1.020  -0.033  0.00  0.00    +0.155 C 
ATOM     15  H   UNL     1      -0.845   7.083   1.490  0.00  0.00    +0.177 HD
ENDROOT
BRANCH   7  16
ATOM     16  N   UNL     1       0.107   6.561  -0.266  0.00  0.00    -0.187 NA
ATOM     17  C   UNL     1       0.333   7.778  -0.665  0.00  0.00    +0.145 C 
BRANCH  17  18
ATOM     18  C   UNL     1       1.027   8.016  -1.936  0.00  0.00    +0.032 A 
ATOM     19  C   UNL     1       1.362   9.218  -2.535  0.00  0.00    +0.017 A 
ATOM     20  C   UNL     1       2.019   9.185  -3.743  0.00  0.00    +0.008 A 
ATOM     21  C   UNL     1       2.317   7.985  -4.305  0.00  0.00    +0.046 A 
ATOM     22  S   UNL     1       1.667   6.831  -3.108  0.00  0.00    -0.096 S 
ENDBRANCH  17  18
ENDBRANCH   7  16
BRANCH  11  23
ATOM     23  C   UNL     1      -2.340   0.062   4.148  0.00  0.00    +0.166 C 
BRANCH  23  24
ATOM     24  C   UNL     1      -1.242  -0.360   5.090  0.00  0.00    -0.009 A 
ATOM     25  C   UNL     1      -0.014   0.273   5.047  0.00  0.00    +0.007 A 
ATOM     26  C   UNL     1       0.994  -0.115   5.911  0.00  0.00    +0.000 A 
ATOM     27  C   UNL     1       0.773  -1.134   6.819  0.00  0.00    +0.001 A 
ATOM     28  C   UNL     1      -0.455  -1.766   6.863  0.00  0.00    +0.020 A 
ATOM     29  C   UNL     1      -1.466  -1.376   6.002  0.00  0.00    +0.046 A 
ATOM     30 CL   UNL     1      -3.011  -2.165   6.061  0.00  0.00    -0.083 Cl
ENDBRANCH  23  24
ENDBRANCH  11  23
TORSDOF 4
