REMARK  Name = ZINC62155156
REMARK  12 active torsions:
REMARK  status: ('A' for Active; 'I' for Inactive)
REMARK    1  A    between atoms: C_1  and  C_2
REMARK    2  A    between atoms: C_2  and  C_3
REMARK    3  A    between atoms: N_5  and  C_6
REMARK    4  A    between atoms: C_9  and  C_12
REMARK    5  A    between atoms: C_12  and  C_13
REMARK    6  A    between atoms: C_12  and  N_14
REMARK    7  A    between atoms: C_15  and  C_17
REMARK    8  A    between atoms: N_19  and  C_20
REMARK    9  A    between atoms: C_23  and  N_27
REMARK   10  A    between atoms: C_24  and  C_26
REMARK   11  A    between atoms: N_27  and  C_28
REMARK   12  A    between atoms: N_27  and  C_29
REMARK                            x       y       z     vdW  Elec       q    Type
REMARK                         _______ _______ _______ _____ _____    ______ ____
ROOT
ATOM      1  N   UNL     1       4.851  -4.424  -5.422  0.00  0.00    -0.301 N 
ATOM      2  C   UNL     1       5.878  -4.771  -6.222  0.00  0.00    +0.300 C 
ATOM      3  O   UNL     1       6.120  -4.119  -7.216  0.00  0.00    -0.265 OA
ATOM      4  H   UNL     1       4.657  -4.945  -4.627  0.00  0.00    +0.150 HD
ENDROOT
BRANCH   2   5
ATOM      5  C   UNL     1       6.720  -5.957  -5.884  0.00  0.00    +0.303 C 
ATOM      6  O   UNL     1       6.478  -6.609  -4.889  0.00  0.00    -0.265 OA
ATOM      7  N   UNL     1       7.748  -6.304  -6.684  0.00  0.00    -0.278 N 
ATOM      8  H   UNL     1       7.987  -5.742  -7.437  0.00  0.00    +0.155 HD
BRANCH   7   9
ATOM      9  C   UNL     1       8.469  -7.475  -6.427  0.00  0.00    +0.034 A 
ATOM     10  C   UNL     1       9.831  -7.526  -6.701  0.00  0.00    +0.025 A 
ATOM     11  C   UNL     1      10.543  -8.681  -6.448  0.00  0.00    +0.025 A 
ATOM     12  C   UNL     1       9.898  -9.792  -5.920  0.00  0.00    +0.032 A 
ATOM     13  C   UNL     1       8.537  -9.742  -5.647  0.00  0.00    -0.028 A 
ATOM     14  C   UNL     1       7.826  -8.584  -5.894  0.00  0.00    +0.028 A 
ATOM     15  C   UNL     1       7.838 -10.948  -5.075  0.00  0.00    +0.046 C 
BRANCH  12  16
ATOM     16  N   UNL     1      10.619 -10.963  -5.664  0.00  0.00    -0.336 N 
ATOM     17  C   UNL     1      11.248 -11.164  -4.356  0.00  0.00    +0.129 C 
ATOM     18  C   UNL     1      10.745 -11.987  -6.703  0.00  0.00    +0.129 C 
ENDBRANCH  12  16
ENDBRANCH   7   9
ENDBRANCH   2   5
BRANCH   1  19
ATOM     19  C   UNL     1       4.025  -3.260  -5.753  0.00  0.00    +0.101 C 
ATOM     20  C   UNL     1       2.929  -3.675  -6.736  0.00  0.00    +0.033 C 
BRANCH  19  24
ATOM     21  C   UNL     1       2.236  -1.722  -2.190  0.00  0.00    +0.033 A 
ATOM     22  C   UNL     1       2.722  -0.851  -3.156  0.00  0.00    +0.023 A 
ATOM     23  C   UNL     1       3.300  -1.351  -4.306  0.00  0.00    +0.007 A 
ATOM     24  C   UNL     1       3.394  -2.718  -4.497  0.00  0.00    -0.027 A 
ATOM     25  C   UNL     1       2.910  -3.587  -3.537  0.00  0.00    +0.007 A 
ATOM     26  C   UNL     1       2.337  -3.094  -2.381  0.00  0.00    +0.023 A 
BRANCH  21  29
ATOM     27  C   UNL     1       1.821  -1.861   0.149  0.00  0.00    +0.217 C 
ATOM     28  O   UNL     1       2.413  -2.919   0.179  0.00  0.00    -0.275 OA
ATOM     29  N   UNL     1       1.650  -1.218  -1.023  0.00  0.00    -0.286 N 
ATOM     30  H   UNL     1       1.120  -0.406  -1.058  0.00  0.00    +0.155 HD
BRANCH  27  32
ATOM     31  C   UNL     1       1.607  -2.187   2.598  0.00  0.00    +0.013 C 
ATOM     32  C   UNL     1       1.279  -1.265   1.422  0.00  0.00    +0.093 C 
ENDBRANCH  27  32
ENDBRANCH  21  29
ENDBRANCH  19  24
ENDBRANCH   1  19
TORSDOF 7
