REMARK  Name = ZINC59265056
REMARK  10 active torsions:
REMARK  status: ('A' for Active; 'I' for Inactive)
REMARK    1  A    between atoms: C_1  and  C_2
REMARK    2  A    between atoms: C_2  and  C_3
REMARK    3  A    between atoms: C_3  and  C_5
REMARK    4  A    between atoms: C_3  and  S_6
REMARK    5  A    between atoms: S_6  and  C_7
REMARK    6  A    between atoms: C_13  and  C_15
REMARK    7  A    between atoms: C_15  and  S_16
REMARK    8  A    between atoms: S_16  and  C_17
REMARK    9  A    between atoms: C_20  and  C_23
REMARK   10  A    between atoms: N_21  and  N_22
REMARK                            x       y       z     vdW  Elec       q    Type
REMARK                         _______ _______ _______ _____ _____    ______ ____
ROOT
ATOM      1  S   UNL     1       4.892  -3.180   9.551  0.00  0.00    -0.075 S 
ENDROOT
BRANCH   1   2
ATOM      2  C   UNL     1       6.094  -3.428  10.815  0.00  0.00    +0.209 A 
ATOM      3  N   UNL     1       7.355  -3.058  10.775  0.00  0.00    -0.121 NA
ATOM      4  N   UNL     1       7.948  -3.394  11.864  0.00  0.00    -0.127 NA
ATOM      5  C   UNL     1       7.103  -4.000  12.666  0.00  0.00    +0.182 A 
ATOM      6  N   UNL     1       5.888  -4.035  12.021  0.00  0.00    -0.224 N 
BRANCH   5   7
ATOM      7  C   UNL     1       7.400  -4.537  14.011  0.00  0.00    +0.021 A 
ATOM      8  C   UNL     1       6.514  -5.428  14.620  0.00  0.00    +0.013 A 
ATOM      9  C   UNL     1       6.796  -5.926  15.876  0.00  0.00    +0.016 A 
ATOM     10  C   UNL     1       7.955  -5.544  16.530  0.00  0.00    +0.018 A 
ATOM     11  C   UNL     1       8.837  -4.661  15.931  0.00  0.00    +0.016 A 
ATOM     12  C   UNL     1       8.569  -4.162  14.674  0.00  0.00    +0.013 A 
ATOM     13 BR   UNL     1       8.334  -6.231  18.251  0.00  0.00    -0.050 Br
ENDBRANCH   5   7
BRANCH   6  14
ATOM     14  N   UNL     1       4.721  -4.567  12.488  0.00  0.00    -0.295 N 
ATOM     15  H   UNL     1       4.639  -5.540  12.233  0.00  0.00    +0.163 HD
ATOM     16  H   UNL     1       4.643  -4.448  13.487  0.00  0.00    +0.163 HD
ENDBRANCH   6  14
ENDBRANCH   1   2
BRANCH   1  17
ATOM     17  C   UNL     1       5.807  -2.329   8.236  0.00  0.00    +0.173 C 
BRANCH  17  24
ATOM     18  C   UNL     1       3.154  -0.528   2.698  0.00  0.00    +0.160 A 
ATOM     19  N   UNL     1       2.574  -1.150   3.714  0.00  0.00    -0.133 NA
ATOM     20  N   UNL     1       3.208  -1.454   4.760  0.00  0.00    -0.125 NA
ATOM     21  C   UNL     1       4.492  -1.171   4.909  0.00  0.00    +0.189 A 
ATOM     22  S   UNL     1       4.819  -0.374   3.340  0.00  0.00    -0.024 S 
ATOM     23  N   UNL     1       5.346  -1.426   5.979  0.00  0.00    -0.263 N 
ATOM     24  C   UNL     1       4.882  -2.054   7.078  0.00  0.00    +0.229 C 
ATOM     25  O   UNL     1       3.720  -2.398   7.134  0.00  0.00    -0.275 OA
ATOM     26  H   UNL     1       6.275  -1.151   5.934  0.00  0.00    +0.157 HD
BRANCH  18  27
ATOM     27  S   UNL     1       2.482  -0.007   1.155  0.00  0.00    -0.094 S 
BRANCH  27  28
ATOM     28  C   UNL     1       0.742  -0.511   1.242  0.00  0.00    +0.050 C 
ATOM     29  C   UNL     1       0.655  -2.037   1.299  0.00  0.00    +0.019 C 
BRANCH  28  31
ATOM     30  C   UNL     1      -0.019   1.526   0.010  0.00  0.00    +0.005 C 
ATOM     31  C   UNL     1       0.002  -0.004   0.002  0.00  0.00    +0.011 C 
ENDBRANCH  28  31
ENDBRANCH  27  28
ENDBRANCH  18  27
ENDBRANCH  17  24
ENDBRANCH   1  17
TORSDOF 8
