REMARK  Name = ZINC02858720
REMARK  13 active torsions:
REMARK  status: ('A' for Active; 'I' for Inactive)
REMARK    1  A    between atoms: C_1  and  C_2
REMARK    2  A    between atoms: C_3  and  C_28
REMARK    3  A    between atoms: C_4  and  N_12
REMARK    4  A    between atoms: C_6  and  C_7
REMARK    5  A    between atoms: N_9  and  C_10
REMARK    6  A    between atoms: N_9  and  C_11
REMARK    7  A    between atoms: N_12  and  C_13
REMARK    8  A    between atoms: C_13  and  N_15
REMARK    9  A    between atoms: N_15  and  N_16
REMARK   10  A    between atoms: C_17  and  C_19
REMARK   11  A    between atoms: C_19  and  C_20
REMARK   12  A    between atoms: C_28  and  O_30
REMARK   13  A    between atoms: O_30  and  C_31
REMARK                            x       y       z     vdW  Elec       q    Type
REMARK                         _______ _______ _______ _____ _____    ______ ____
ROOT
ATOM      1  N   UNL     1      -0.017   1.376   0.010  0.00  0.00    -0.290 N 
ATOM      2  H   UNL     1      -0.863   1.849   0.016  0.00  0.00    +0.154 HD
ENDROOT
BRANCH   1   6
ATOM      3  C   UNL     1      -1.907  -3.273   0.003  0.00  0.00    +0.046 C 
ATOM      4  C   UNL     1      -0.801  -2.249  -0.002  0.00  0.00    -0.015 A 
ATOM      5  C   UNL     1      -1.080  -0.891   0.008  0.00  0.00    +0.091 A 
ATOM      6  C   UNL     1       0.002  -0.004   0.002  0.00  0.00    +0.086 A 
ATOM      7  S   UNL     1       1.372  -1.065  -0.024  0.00  0.00    -0.068 S 
ATOM      8  C   UNL     1       0.514  -2.628  -0.017  0.00  0.00    +0.079 A 
BRANCH   8   9
ATOM      9  C   UNL     1       1.075  -3.980  -0.030  0.00  0.00    +0.253 C 
ATOM     10  O   UNL     1       0.336  -4.947  -0.029  0.00  0.00    -0.269 OA
ATOM     11  N   UNL     1       2.412  -4.154  -0.044  0.00  0.00    -0.303 N 
ATOM     12  C   UNL     1       2.974  -5.507  -0.057  0.00  0.00    +0.132 C 
ATOM     13  C   UNL     1       3.302  -2.991  -0.045  0.00  0.00    +0.132 C 
ENDBRANCH   8   9
BRANCH   5  14
ATOM     14  C   UNL     1      -2.463  -0.401   0.024  0.00  0.00    +0.342 C 
ATOM     15  O   UNL     1      -3.046  -0.192  -1.022  0.00  0.00    -0.245 OA
BRANCH  14  16
ATOM     16  O   UNL     1      -3.087  -0.181   1.199  0.00  0.00    -0.464 OA
ATOM     17  C   UNL     1      -4.454   0.303   1.139  0.00  0.00    +0.280 C 
ENDBRANCH  14  16
ENDBRANCH   5  14
ENDBRANCH   1   6
BRANCH   1  18
ATOM     18  C   UNL     1       1.141   2.065   0.002  0.00  0.00    +0.151 C 
ATOM     19  S   UNL     1       2.635   1.230  -0.017  0.00  0.00    -0.017 S 
BRANCH  18  20
ATOM     20  N   UNL     1       1.123   3.413   0.010  0.00  0.00    -0.246 N 
ATOM     21  H   UNL     1       1.956   3.909   0.004  0.00  0.00    +0.172 HD
BRANCH  20  22
ATOM     22  N   UNL     1      -0.100   4.097   0.025  0.00  0.00    -0.235 N 
ATOM     23  C   UNL     1      -0.118   5.445   0.032  0.00  0.00    +0.234 C 
ATOM     24  O   UNL     1       0.924   6.065   0.026  0.00  0.00    -0.274 OA
ATOM     25  H   UNL     1      -0.933   3.601   0.030  0.00  0.00    +0.173 HD
BRANCH  23  26
ATOM     26  C   UNL     1      -1.433   6.180   0.049  0.00  0.00    +0.136 C 
BRANCH  26  27
ATOM     27  C   UNL     1      -1.178   7.665   0.054  0.00  0.00    +0.015 A 
ATOM     28  C   UNL     1      -1.055   8.343   1.256  0.00  0.00    +0.128 A 
ATOM     29  C   UNL     1      -0.814   9.706   1.260  0.00  0.00    +0.039 A 
ATOM     30  C   UNL     1      -0.709  10.393   0.064  0.00  0.00    +0.004 A 
ATOM     31  C   UNL     1      -0.838   9.718  -1.135  0.00  0.00    +0.020 A 
ATOM     32  C   UNL     1      -1.072   8.354  -1.140  0.00  0.00    +0.047 A 
ATOM     33 CL   UNL     1      -1.233   7.507  -2.647  0.00  0.00    -0.083 Cl
ATOM     34  F   UNL     1      -1.164   7.672   2.424  0.00  0.00    -0.205 F 
ENDBRANCH  26  27
ENDBRANCH  23  26
ENDBRANCH  20  22
ENDBRANCH  18  20
ENDBRANCH   1  18
TORSDOF 9
