REMARK  Name = ZINC02738092
REMARK  6 active torsions:
REMARK  status: ('A' for Active; 'I' for Inactive)
REMARK    1  A    between atoms: C_1  and  N_52
REMARK    2  A    between atoms: C_12  and  C_15
REMARK    3  A    between atoms: C_18  and  C_20
REMARK    4  A    between atoms: C_20  and  O_21
REMARK    5  A    between atoms: O_21  and  C_22
REMARK    6  A    between atoms: C_26  and  C_28
REMARK                            x       y       z     vdW  Elec       q    Type
REMARK                         _______ _______ _______ _____ _____    ______ ____
ROOT
ATOM      1  C   UNL     1       2.426   4.763  -8.391  0.00  0.00    -0.096 C 
ATOM      2  C   UNL     1       1.761   6.154  -6.523  0.00  0.00    -0.074 C 
ATOM      3  C   UNL     1       1.087   6.111  -5.149  0.00  0.00    +0.018 C 
ATOM      4  C   UNL     1       1.978   5.308  -4.207  0.00  0.00    -0.027 A 
ATOM      5  C   UNL     1       2.934   4.494  -4.711  0.00  0.00    -0.021 A 
ATOM      6  S   UNL     1       3.714   3.773  -3.293  0.00  0.00    -0.080 S 
ATOM      7  C   UNL     1       2.791   4.529  -2.066  0.00  0.00    +0.080 A 
ATOM      8  C   UNL     1       1.883   5.347  -2.759  0.00  0.00    +0.068 A 
ATOM      9  C   UNL     1       0.942   6.157  -1.952  0.00  0.00    +0.248 C 
ATOM     10  O   UNL     1       0.245   7.015  -2.463  0.00  0.00    -0.270 OA
ATOM     11  N   UNL     1       0.888   5.905  -0.627  0.00  0.00    -0.287 N 
ATOM     12  C   UNL     1       1.575   4.788   0.012  0.00  0.00    +0.227 C 
ATOM     13  N   UNL     1       2.822   4.448  -0.698  0.00  0.00    -0.314 N 
ATOM     14  C   UNL     1       3.241   4.272  -6.159  0.00  0.00    -0.036 C 
ATOM     15  H   UNL     1       0.363   6.500  -0.069  0.00  0.00    +0.151 HD
ATOM     16  H   UNL     1       3.623   4.181  -0.222  0.00  0.00    +0.149 HD
ATOM     17  N   UNL     1       2.094   4.780  -6.950  0.00  0.00    +0.381 N 
ATOM     18  H   UNL     1       1.281   4.173  -6.788  0.00  0.00    -0.082 HD
ENDROOT
BRANCH  12  19
ATOM     19  C   UNL     1       0.666   3.587   0.015  0.00  0.00    +0.144 A 
ATOM     20  C   UNL     1      -0.679   3.618   0.027  0.00  0.00    +0.049 A 
ATOM     21  C   UNL     1      -1.120   2.275   0.019  0.00  0.00    +0.048 A 
ATOM     22  C   UNL     1      -0.018   1.503   0.010  0.00  0.00    +0.143 A 
ATOM     23  O   UNL     1       1.060   2.303   0.004  0.00  0.00    -0.458 OA
BRANCH  22  24
ATOM     24  C   UNL     1       0.002  -0.004   0.002  0.00  0.00    +0.303 C 
BRANCH  24  25
ATOM     25  O   UNL     1      -0.004  -0.473  -1.348  0.00  0.00    -0.484 OA
BRANCH  25  26
ATOM     26  C   UNL     1       0.013  -1.819  -1.533  0.00  0.00    +0.122 A 
ATOM     27  C   UNL     1       0.040  -2.671  -0.439  0.00  0.00    +0.046 A 
ATOM     28  C   UNL     1       0.052  -4.039  -0.630  0.00  0.00    +0.004 A 
ATOM     29  C   UNL     1       0.047  -4.560  -1.911  0.00  0.00    +0.012 A 
ATOM     30  C   UNL     1       0.025  -3.713  -3.003  0.00  0.00    +0.058 A 
ATOM     31  C   UNL     1       0.008  -2.344  -2.817  0.00  0.00    +0.058 A 
BRANCH  30  32
ATOM     32  C   UNL     1       0.021  -4.283  -4.398  0.00  0.00    +0.418 C 
ATOM     33  F   UNL     1       1.339  -4.442  -4.841  0.00  0.00    -0.166 F 
ATOM     34  F   UNL     1      -0.622  -5.526  -4.392  0.00  0.00    -0.166 F 
ATOM     35  F   UNL     1      -0.658  -3.412  -5.256  0.00  0.00    -0.166 F 
ENDBRANCH  30  32
ENDBRANCH  25  26
ENDBRANCH  24  25
ENDBRANCH  22  24
ENDBRANCH  12  19
TORSDOF 5
