REMARK  Name = ZINC09550368
REMARK  9 active torsions:
REMARK  status: ('A' for Active; 'I' for Inactive)
REMARK    1  A    between atoms: C_1  and  C_2
REMARK    2  A    between atoms: C_2  and  C_4
REMARK    3  A    between atoms: C_2  and  N_14
REMARK    4  A    between atoms: C_7  and  S_10
REMARK    5  A    between atoms: S_10  and  N_13
REMARK    6  A    between atoms: C_15  and  C_17
REMARK    7  A    between atoms: N_19  and  C_27
REMARK    8  A    between atoms: C_21  and  C_22
REMARK    9  A    between atoms: C_27  and  C_28
REMARK                            x       y       z     vdW  Elec       q    Type
REMARK                         _______ _______ _______ _____ _____    ______ ____
ROOT
ATOM      1  N   UNL     1       3.865   7.579  -3.785  0.00  0.00    -0.305 N 
ATOM      2  C   UNL     1       3.840   6.291  -4.180  0.00  0.00    +0.248 C 
ATOM      3  O   UNL     1       4.124   6.001  -5.327  0.00  0.00    -0.270 OA
ATOM      4  H   UNL     1       3.638   7.811  -2.871  0.00  0.00    +0.150 HD
ENDROOT
BRANCH   2   5
ATOM      5  C   UNL     1       3.469   5.235  -3.224  0.00  0.00    +0.082 A 
ATOM      6  C   UNL     1       3.119   5.404  -1.900  0.00  0.00    +0.122 A 
ATOM      7  N   UNL     1       2.858   4.194  -1.384  0.00  0.00    -0.266 N 
ATOM      8  N   UNL     1       3.026   3.215  -2.368  0.00  0.00    -0.170 NA
ATOM      9  C   UNL     1       3.394   3.794  -3.491  0.00  0.00    +0.111 A 
BRANCH   9  10
ATOM     10  C   UNL     1       3.677   3.121  -4.775  0.00  0.00    +0.040 A 
ATOM     11  C   UNL     1       4.253   1.900  -5.002  0.00  0.00    +0.018 A 
ATOM     12  C   UNL     1       4.414   1.474  -6.302  0.00  0.00    +0.008 A 
ATOM     13  C   UNL     1       4.007   2.279  -7.316  0.00  0.00    +0.046 A 
ATOM     14  S   UNL     1       3.362   3.693  -6.438  0.00  0.00    -0.095 S 
ENDBRANCH   9  10
BRANCH   7  15
ATOM     15  C   UNL     1       2.451   3.937  -0.001  0.00  0.00    +0.178 C 
BRANCH  15  16
ATOM     16  C   UNL     1       1.156   3.165   0.008  0.00  0.00    -0.026 A 
ATOM     17  C   UNL     1       1.175   1.783   0.000  0.00  0.00    +0.005 A 
ATOM     18  C   UNL     1      -0.013   1.076   0.008  0.00  0.00    +0.000 A 
ATOM     19  C   UNL     1      -1.219   1.751   0.017  0.00  0.00    +0.000 A 
ATOM     20  C   UNL     1      -1.238   3.133   0.030  0.00  0.00    +0.000 A 
ATOM     21  C   UNL     1      -0.050   3.840   0.023  0.00  0.00    +0.005 A 
ENDBRANCH  15  16
ENDBRANCH   7  15
ENDBRANCH   2   5
BRANCH   1  23
ATOM     22  C   UNL     1       5.757   8.767  -4.779  0.00  0.00    +0.033 C 
ATOM     23  C   UNL     1       4.234   8.630  -4.737  0.00  0.00    +0.100 C 
BRANCH  23  24
ATOM     24  C   UNL     1       3.624   9.938  -4.302  0.00  0.00    -0.027 A 
ATOM     25  C   UNL     1       3.591  10.274  -2.962  0.00  0.00    +0.007 A 
ATOM     26  C   UNL     1       3.036  11.476  -2.563  0.00  0.00    +0.029 A 
ATOM     27  C   UNL     1       2.504  12.337  -3.505  0.00  0.00    +0.105 A 
ATOM     28  C   UNL     1       2.532  11.998  -4.845  0.00  0.00    +0.029 A 
ATOM     29  C   UNL     1       3.091  10.799  -5.244  0.00  0.00    +0.007 A 
BRANCH  27  30
ATOM     30  S   UNL     1       1.790  13.865  -2.997  0.00  0.00    +0.056 S 
ATOM     31  O   UNL     1       2.378  14.192  -1.745  0.00  0.00    -0.153 OA
ATOM     32  O   UNL     1       1.852  14.736  -4.118  0.00  0.00    -0.153 OA
BRANCH  30  33
ATOM     33  N   UNL     1       0.184  13.583  -2.706  0.00  0.00    -0.204 NA
ATOM     34  H   UNL     1      -0.182  12.693  -2.829  0.00  0.00    +0.144 HD
ATOM     35  H   UNL     1      -0.391  14.307  -2.413  0.00  0.00    +0.144 HD
ENDBRANCH  30  33
ENDBRANCH  27  30
ENDBRANCH  23  24
ENDBRANCH   1  23
TORSDOF 8
