REMARK  Name = ZINC15277991
REMARK  7 active torsions:
REMARK  status: ('A' for Active; 'I' for Inactive)
REMARK    1  A    between atoms: C_10  and  N_11
REMARK    2  A    between atoms: C_12  and  C_14
REMARK    3  A    between atoms: C_14  and  O_15
REMARK    4  A    between atoms: O_15  and  C_16
REMARK    5  A    between atoms: C_16  and  C_18
REMARK    6  A    between atoms: C_20  and  N_30
REMARK    7  A    between atoms: C_23  and  N_24
REMARK                            x       y       z     vdW  Elec       q    Type
REMARK                         _______ _______ _______ _____ _____    ______ ____
ROOT
ATOM      1  C   UNL     1      -2.045   1.211   3.017  0.00  0.00    +0.342 C 
ATOM      2  O   UNL     1      -1.456   0.766   2.051  0.00  0.00    -0.245 OA
ENDROOT
BRANCH   1   3
ATOM      3  C   UNL     1      -2.052   2.662   3.270  0.00  0.00    +0.082 A 
ATOM      4  C   UNL     1      -2.633   3.170   4.436  0.00  0.00    +0.049 A 
ATOM      5  C   UNL     1      -2.641   4.528   4.664  0.00  0.00    +0.127 A 
ATOM      6  C   UNL     1      -2.071   5.396   3.747  0.00  0.00    +0.034 A 
ATOM      7  C   UNL     1      -1.488   4.911   2.594  0.00  0.00    +0.026 A 
ATOM      8  C   UNL     1      -1.470   3.544   2.345  0.00  0.00    +0.044 A 
BRANCH   8   9
ATOM      9  N   UNL     1      -0.885   3.053   1.186  0.00  0.00    -0.325 N 
ATOM     10  C   UNL     1      -1.585   3.549  -0.008  0.00  0.00    +0.133 C 
ATOM     11  C   UNL     1      -0.946   2.939  -1.258  0.00  0.00    +0.178 C 
ATOM     12  O   UNL     1       0.449   3.254  -1.278  0.00  0.00    -0.377 OA
ATOM     13  C   UNL     1       1.161   2.784  -0.130  0.00  0.00    +0.178 C 
ATOM     14  C   UNL     1       0.544   3.394   1.132  0.00  0.00    +0.133 C 
ENDBRANCH   8   9
BRANCH   5  15
ATOM     15  N   UNL     1      -3.263   5.064   5.896  0.00  0.00    +0.056 N 
ATOM     16  O   UNL     1      -3.272   6.264   6.101  0.00  0.00    -0.126 OA
ATOM     17  O   UNL     1      -3.765   4.303   6.705  0.00  0.00    -0.126 OA
ENDBRANCH   5  15
ENDBRANCH   1   3
BRANCH   1  18
ATOM     18  O   UNL     1      -2.692   0.378   3.855  0.00  0.00    -0.452 OA
BRANCH  18  19
ATOM     19  C   UNL     1      -2.643  -1.040   3.543  0.00  0.00    +0.328 C 
BRANCH  19  21
ATOM     20  N   UNL     1      -3.507  -3.152   4.497  0.00  0.00    -0.282 N 
ATOM     21  C   UNL     1      -3.416  -1.810   4.582  0.00  0.00    +0.255 C 
ATOM     22  O   UNL     1      -3.955  -1.222   5.496  0.00  0.00    -0.272 OA
ATOM     23  H   UNL     1      -3.007  -3.630   3.817  0.00  0.00    +0.155 HD
BRANCH  20  33
ATOM     24  C   UNL     1      -3.587  -7.876   6.271  0.00  0.00    +0.001 A 
ATOM     25  C   UNL     1      -2.760  -7.194   5.380  0.00  0.00    +0.001 A 
ATOM     26  C   UNL     1      -2.984  -5.885   5.079  0.00  0.00    +0.010 A 
ATOM     27  C   UNL     1      -4.064  -5.211   5.670  0.00  0.00    +0.003 A 
ATOM     28  C   UNL     1      -4.903  -5.902   6.579  0.00  0.00    -0.016 A 
ATOM     29  C   UNL     1      -4.641  -7.254   6.865  0.00  0.00    +0.008 A 
ATOM     30  C   UNL     1      -5.982  -5.228   7.173  0.00  0.00    +0.008 A 
ATOM     31  C   UNL     1      -6.213  -3.919   6.877  0.00  0.00    +0.002 A 
ATOM     32  C   UNL     1      -5.393  -3.228   5.990  0.00  0.00    +0.024 A 
ATOM     33  C   UNL     1      -4.324  -3.854   5.386  0.00  0.00    +0.041 A 
ENDBRANCH  20  33
ENDBRANCH  19  21
ENDBRANCH  18  19
ENDBRANCH   1  18
TORSDOF 7
