REMARK  Name = ZINC16807869
REMARK  11 active torsions:
REMARK  status: ('A' for Active; 'I' for Inactive)
REMARK    1  A    between atoms: C_1  and  C_2
REMARK    2  A    between atoms: C_2  and  C_3
REMARK    3  A    between atoms: C_2  and  C_4
REMARK    4  A    between atoms: C_7  and  S_10
REMARK    5  A    between atoms: S_10  and  N_13
REMARK    6  A    between atoms: C_16  and  C_19
REMARK    7  A    between atoms: C_19  and  O_21
REMARK    8  A    between atoms: O_21  and  C_22
REMARK    9  A    between atoms: C_22  and  C_23
REMARK   10  A    between atoms: C_26  and  C_32
REMARK   11  A    between atoms: C_28  and  N_29
REMARK                            x       y       z     vdW  Elec       q    Type
REMARK                         _______ _______ _______ _____ _____    ______ ____
ROOT
ATOM      1  N   UNL     1       1.155   4.329   1.596  0.00  0.00    -0.177 NA
ATOM      2  C   UNL     1      -0.105   4.535   2.322  0.00  0.00    +0.110 C 
ATOM      3  C   UNL     1      -0.068   3.702   3.612  0.00  0.00    +0.032 C 
ATOM      4  C   UNL     1       1.185   4.066   4.412  0.00  0.00    +0.100 C 
ATOM      5  C   UNL     1       2.432   3.735   3.589  0.00  0.00    +0.032 C 
ATOM      6  C   UNL     1       2.423   4.564   2.300  0.00  0.00    +0.110 C 
ENDROOT
BRANCH   1   7
ATOM      7  S   UNL     1       1.147   3.847   0.011  0.00  0.00    +0.061 S 
ATOM      8  O   UNL     1       2.382   4.273  -0.549  0.00  0.00    -0.153 OA
ATOM      9  O   UNL     1      -0.109   4.239  -0.526  0.00  0.00    -0.153 OA
BRANCH   7  13
ATOM     10  C   UNL     1       1.208  -0.679  -0.013  0.00  0.00    -0.045 A 
ATOM     11  C   UNL     1       0.002  -0.004   0.002  0.00  0.00    +0.006 A 
ATOM     12  C   UNL     1      -0.017   1.378   0.010  0.00  0.00    +0.029 A 
ATOM     13  C   UNL     1       1.171   2.086   0.002  0.00  0.00    +0.105 A 
ATOM     14  C   UNL     1       2.377   1.411  -0.015  0.00  0.00    +0.029 A 
ATOM     15  C   UNL     1       2.396   0.029  -0.021  0.00  0.00    +0.006 A 
BRANCH  10  17
ATOM     16  C   UNL     1       1.944  -2.680  -1.279  0.00  0.00    +0.012 C 
ATOM     17  C   UNL     1       1.229  -2.186  -0.021  0.00  0.00    +0.013 C 
ATOM     18  C   UNL     1       1.969  -2.692   1.219  0.00  0.00    +0.012 C 
ENDBRANCH  10  17
ENDBRANCH   7  13
ENDBRANCH   1   7
BRANCH   4  19
ATOM     19  C   UNL     1       1.207   3.278   5.696  0.00  0.00    +0.311 C 
ATOM     20  O   UNL     1       2.126   2.529   5.929  0.00  0.00    -0.251 OA
BRANCH  19  21
ATOM     21  O   UNL     1       0.206   3.409   6.581  0.00  0.00    -0.460 OA
BRANCH  21  22
ATOM     22  C   UNL     1       0.294   2.619   7.796  0.00  0.00    +0.269 C 
BRANCH  22  23
ATOM     23  C   UNL     1      -0.908   2.895   8.662  0.00  0.00    +0.020 A 
ATOM     24  C   UNL     1      -1.873   3.791   8.236  0.00  0.00    +0.010 A 
ATOM     25  C   UNL     1      -2.976   4.047   9.024  0.00  0.00    +0.013 A 
ATOM     26  C   UNL     1      -3.118   3.400  10.253  0.00  0.00    +0.039 A 
ATOM     27  C   UNL     1      -2.141   2.498  10.677  0.00  0.00    +0.046 A 
ATOM     28  C   UNL     1      -1.045   2.247   9.877  0.00  0.00    +0.133 A 
BRANCH  26  29
ATOM     29  C   UNL     1      -4.298   3.670  11.102  0.00  0.00    +0.242 C 
ATOM     30  O   UNL     1      -4.419   3.106  12.172  0.00  0.00    -0.270 OA
ATOM     31  N   UNL     1      -5.239   4.542  10.690  0.00  0.00    -0.325 N 
ATOM     32  H   UNL     1      -5.143   4.992   9.836  0.00  0.00    +0.145 HD
ATOM     33  H   UNL     1      -6.013   4.719  11.247  0.00  0.00    +0.145 HD
ENDBRANCH  26  29
BRANCH  28  34
ATOM     34  N   UNL     1      -0.011   1.286  10.322  0.00  0.00    +0.057 N 
ATOM     35  O   UNL     1      -0.130   0.715  11.391  0.00  0.00    -0.126 OA
ATOM     36  O   UNL     1       0.959   1.067   9.619  0.00  0.00    -0.126 OA
ENDBRANCH  28  34
ENDBRANCH  22  23
ENDBRANCH  21  22
ENDBRANCH  19  21
ENDBRANCH   4  19
TORSDOF 9
