REMARK  Name = ZINC13020396
REMARK  12 active torsions:
REMARK  status: ('A' for Active; 'I' for Inactive)
REMARK    1  A    between atoms: C_1  and  C_2
REMARK    2  A    between atoms: C_2  and  O_3
REMARK    3  A    between atoms: O_3  and  C_4
REMARK    4  A    between atoms: C_9  and  N_10
REMARK    5  A    between atoms: C_11  and  C_13
REMARK    6  A    between atoms: C_13  and  C_15
REMARK    7  A    between atoms: C_13  and  S_16
REMARK    8  A    between atoms: S_16  and  C_17
REMARK    9  A    between atoms: C_20  and  C_27
REMARK   10  A    between atoms: N_21  and  C_22
REMARK   11  A    between atoms: C_22  and  C_24
REMARK   12  A    between atoms: C_22  and  C_25
REMARK                            x       y       z     vdW  Elec       q    Type
REMARK                         _______ _______ _______ _____ _____    ______ ____
ROOT
ATOM      1  S   UNL     1       2.579   0.961  -0.757  0.00  0.00    -0.073 S 
ENDROOT
BRANCH   1   2
ATOM      2  C   UNL     1       3.900   2.127  -0.794  0.00  0.00    +0.193 A 
ATOM      3  N   UNL     1       3.851   3.372  -0.378  0.00  0.00    -0.122 NA
ATOM      4  N   UNL     1       4.992   3.939  -0.546  0.00  0.00    -0.128 NA
ATOM      5  C   UNL     1       5.838   3.093  -1.090  0.00  0.00    +0.172 A 
ATOM      6  N   UNL     1       5.164   1.905  -1.265  0.00  0.00    -0.288 N 
BRANCH   5   7
ATOM      7  C   UNL     1       7.241   3.363  -1.444  0.00  0.00    +0.056 A 
ATOM      8  C   UNL     1       7.887   4.568  -1.557  0.00  0.00    +0.019 A 
ATOM      9  C   UNL     1       9.220   4.573  -1.905  0.00  0.00    +0.008 A 
ATOM     10  C   UNL     1       9.851   3.391  -2.124  0.00  0.00    +0.046 A 
ATOM     11  S   UNL     1       8.547   2.208  -1.831  0.00  0.00    -0.094 S 
ENDBRANCH   5   7
BRANCH   6  12
ATOM     12  C   UNL     1       5.691   0.663  -1.836  0.00  0.00    +0.201 C 
ATOM     13  C   UNL     1       5.593  -0.458  -0.799  0.00  0.00    +0.043 C 
BRANCH  12  14
ATOM     14  C   UNL     1       4.887   0.291  -3.056  0.00  0.00    +0.378 C 
ATOM     15  O   UNL     1       4.297  -0.763  -3.091  0.00  0.00    -0.244 OA
ATOM     16  O   UNL     1       4.827   1.130  -4.102  0.00  0.00    -0.244 OA
ENDBRANCH  12  14
ENDBRANCH   6  12
ENDBRANCH   1   2
BRANCH   1  17
ATOM     17  C   UNL     1       1.280   1.981  -0.016  0.00  0.00    +0.137 C 
ATOM     18  C   UNL     1       1.677   2.349   1.415  0.00  0.00    +0.029 C 
BRANCH  17  20
ATOM     19  N   UNL     1      -1.191   1.867   0.018  0.00  0.00    -0.282 N 
ATOM     20  C   UNL     1      -0.014   1.209   0.005  0.00  0.00    +0.230 C 
ATOM     21  O   UNL     1       0.003  -0.004   0.004  0.00  0.00    -0.274 OA
ATOM     22  H   UNL     1      -1.205   2.833   0.099  0.00  0.00    +0.155 HD
BRANCH  19  28
ATOM     23  C   UNL     1      -3.572   1.697   0.420  0.00  0.00    +0.142 A 
ATOM     24  C   UNL     1      -4.758   0.988   0.314  0.00  0.00    +0.047 A 
ATOM     25  C   UNL     1      -4.769  -0.254  -0.293  0.00  0.00    +0.004 A 
ATOM     26  C   UNL     1      -3.599  -0.793  -0.795  0.00  0.00    +0.002 A 
ATOM     27  C   UNL     1      -2.413  -0.090  -0.698  0.00  0.00    +0.027 A 
ATOM     28  C   UNL     1      -2.393   1.154  -0.086  0.00  0.00    +0.076 A 
BRANCH  23  29
ATOM     29  O   UNL     1      -3.559   2.919   1.015  0.00  0.00    -0.490 OA
BRANCH  29  31
ATOM     30  C   UNL     1      -4.595   4.789   2.142  0.00  0.00    +0.048 C 
ATOM     31  C   UNL     1      -4.806   3.412   1.511  0.00  0.00    +0.226 C 
ENDBRANCH  29  31
ENDBRANCH  23  29
ENDBRANCH  19  28
ENDBRANCH  17  20
ENDBRANCH   1  17
TORSDOF 9
