REMARK  Name = ZINC58356232
REMARK  16 active torsions:
REMARK  status: ('A' for Active; 'I' for Inactive)
REMARK    1  A    between atoms: C_1  and  C_2
REMARK    2  A    between atoms: C_2  and  N_3
REMARK    3  A    between atoms: N_3  and  C_4
REMARK    4  A    between atoms: C_4  and  C_5
REMARK    5  A    between atoms: C_6  and  C_8
REMARK    6  A    between atoms: C_8  and  S_9
REMARK    7  A    between atoms: S_9  and  C_10
REMARK    8  A    between atoms: C_13  and  S_16
REMARK    9  A    between atoms: N_14  and  N_15
REMARK   10  A    between atoms: S_16  and  C_17
REMARK   11  A    between atoms: C_17  and  C_18
REMARK   12  A    between atoms: C_18  and  C_19
REMARK   13  A    between atoms: C_19  and  C_20
REMARK   14  A    between atoms: C_20  and  C_21
REMARK   15  A    between atoms: C_21  and  N_22
REMARK   16  A    between atoms: C_24  and  C_27
REMARK                            x       y       z     vdW  Elec       q    Type
REMARK                         _______ _______ _______ _____ _____    ______ ____
ROOT
ATOM      1  C   UNL     1      -1.394  -0.566   5.299  0.00  0.00    +0.209 A 
ATOM      2  N   UNL     1      -0.166  -0.107   5.302  0.00  0.00    -0.120 NA
ATOM      3  N   UNL     1       0.242   0.029   6.635  0.00  0.00    -0.120 NA
ATOM      4  C   UNL     1      -0.749  -0.351   7.403  0.00  0.00    +0.209 A 
ATOM      5  N   UNL     1      -1.789  -0.723   6.598  0.00  0.00    -0.219 N 
ENDROOT
BRANCH   5   6
ATOM      6  N   UNL     1      -3.007  -1.177   7.017  0.00  0.00    -0.294 N 
ATOM      7  H   UNL     1      -3.004  -2.180   7.121  0.00  0.00    +0.163 HD
ATOM      8  H   UNL     1      -3.285  -0.725   7.876  0.00  0.00    +0.163 HD
ENDBRANCH   5   6
BRANCH   1   9
ATOM      9  S   UNL     1      -2.367  -0.912   3.871  0.00  0.00    -0.075 S 
BRANCH   9  10
ATOM     10  C   UNL     1      -1.274  -0.497   2.484  0.00  0.00    +0.173 C 
BRANCH  10  12
ATOM     11  N   UNL     1      -1.372  -0.511   0.012  0.00  0.00    -0.301 N 
ATOM     12  C   UNL     1      -1.993  -0.751   1.184  0.00  0.00    +0.226 C 
ATOM     13  O   UNL     1      -3.131  -1.171   1.193  0.00  0.00    -0.275 OA
BRANCH  11  15
ATOM     14  C   UNL     1      -0.019   1.526   0.010  0.00  0.00    +0.024 C 
ATOM     15  C   UNL     1       0.002  -0.004   0.002  0.00  0.00    +0.104 C 
ENDBRANCH  11  15
BRANCH  11  16
ATOM     16  C   UNL     1      -2.072  -0.758  -1.251  0.00  0.00    +0.104 C 
ATOM     17  C   UNL     1      -1.816  -2.197  -1.703  0.00  0.00    +0.024 C 
ENDBRANCH  11  16
ENDBRANCH  10  12
ENDBRANCH   9  10
ENDBRANCH   1   9
BRANCH   4  18
ATOM     18  S   UNL     1      -0.745  -0.372   9.165  0.00  0.00    -0.084 S 
BRANCH  18  19
ATOM     19  C   UNL     1       0.905   0.239   9.607  0.00  0.00    +0.077 C 
BRANCH  19  20
ATOM     20  C   UNL     1       1.045   0.272  11.130  0.00  0.00    +0.011 C 
BRANCH  20  21
ATOM     21  C   UNL     1       2.436   0.788  11.504  0.00  0.00    +0.003 C 
BRANCH  21  22
ATOM     22  C   UNL     1       2.577   0.821  13.027  0.00  0.00    +0.025 C 
BRANCH  22  23
ATOM     23  C   UNL     1       3.968   1.336  13.400  0.00  0.00    +0.168 C 
BRANCH  23  24
ATOM     24  N   UNL     1       4.102   1.367  14.858  0.00  0.00    -0.163 N 
ATOM     25  N   UNL     1       3.798   2.366  15.613  0.00  0.00    -0.130 NA
ATOM     26  C   UNL     1       4.054   2.022  16.860  0.00  0.00    +0.205 A 
ATOM     27  N   UNL     1       4.527   0.769  16.823  0.00  0.00    -0.108 NA
ATOM     28  N   UNL     1       4.538   0.400  15.587  0.00  0.00    -0.046 NA
BRANCH  26  29
ATOM     29  C   UNL     1       3.857   2.860  18.069  0.00  0.00    +0.023 A 
ATOM     30  C   UNL     1       3.347   4.151  17.950  0.00  0.00    +0.012 A 
ATOM     31  C   UNL     1       3.165   4.926  19.078  0.00  0.00    +0.001 A 
ATOM     32  C   UNL     1       3.488   4.423  20.325  0.00  0.00    +0.000 A 
ATOM     33  C   UNL     1       3.994   3.142  20.449  0.00  0.00    +0.001 A 
ATOM     34  C   UNL     1       4.175   2.356  19.328  0.00  0.00    +0.012 A 
ENDBRANCH  26  29
ENDBRANCH  23  24
ENDBRANCH  22  23
ENDBRANCH  21  22
ENDBRANCH  20  21
ENDBRANCH  19  20
ENDBRANCH  18  19
ENDBRANCH   4  18
TORSDOF 14
