REMARK  Name = ZINC02915262
REMARK  8 active torsions:
REMARK  status: ('A' for Active; 'I' for Inactive)
REMARK    1  A    between atoms: C_1  and  C_2
REMARK    2  A    between atoms: C_2  and  C_3
REMARK    3  A    between atoms: C_3  and  C_4
REMARK    4  A    between atoms: C_4  and  S_5
REMARK    5  A    between atoms: S_5  and  C_6
REMARK    6  A    between atoms: C_19  and  C_21
REMARK    7  A    between atoms: C_19  and  C_22
REMARK    8  A    between atoms: C_22  and  C_23
REMARK                            x       y       z     vdW  Elec       q    Type
REMARK                         _______ _______ _______ _____ _____    ______ ____
ROOT
ATOM      1  C   UNL     1      -4.851  -0.218  -0.027  0.00  0.00    +0.212 A 
ATOM      2  N   UNL     1      -4.687   0.760   0.859  0.00  0.00    -0.184 NA
ATOM      3  C   UNL     1      -3.534   1.407   0.901  0.00  0.00    +0.248 A 
ATOM      4  C   UNL     1      -2.515   1.038  -0.005  0.00  0.00    +0.156 A 
ATOM      5  N   UNL     1      -2.742   0.052  -0.860  0.00  0.00    -0.141 NA
ATOM      6  N   UNL     1      -3.878  -0.554  -0.865  0.00  0.00    -0.122 NA
ATOM      7  C   UNL     1      -1.224   1.756   0.017  0.00  0.00    +0.028 A 
ATOM      8  C   UNL     1      -0.013   1.076   0.008  0.00  0.00    +0.012 A 
ATOM      9  C   UNL     1       1.173   1.785   0.000  0.00  0.00    +0.001 A 
ATOM     10  C   UNL     1       1.162   3.169   0.007  0.00  0.00    +0.002 A 
ATOM     11  C   UNL     1      -0.036   3.859   0.027  0.00  0.00    +0.023 A 
ATOM     12  C   UNL     1      -1.231   3.164   0.041  0.00  0.00    +0.039 A 
ATOM     13  N   UNL     1      -2.461   3.828   0.090  0.00  0.00    -0.307 N 
ATOM     14  C   UNL     1      -3.270   3.733   1.290  0.00  0.00    +0.175 C 
ATOM     15  O   UNL     1      -3.315   2.402   1.793  0.00  0.00    -0.451 OA
ATOM     16  C   UNL     1      -4.694   4.195   0.975  0.00  0.00    +0.078 C 
ATOM     17  H   UNL     1      -2.774   4.343  -0.670  0.00  0.00    +0.150 HD
ENDROOT
BRANCH  14  18
ATOM     18  C   UNL     1      -2.675   4.649   2.361  0.00  0.00    +0.065 C 
ATOM     19  C   UNL     1      -3.548   4.601   3.616  0.00  0.00    +0.009 C 
ENDBRANCH  14  18
BRANCH   1  20
ATOM     20  S   UNL     1      -6.385  -1.083  -0.089  0.00  0.00    -0.084 S 
BRANCH  20  21
ATOM     21  C   UNL     1      -6.035  -2.249  -1.428  0.00  0.00    +0.077 C 
BRANCH  21  22
ATOM     22  C   UNL     1      -7.261  -3.133  -1.668  0.00  0.00    +0.011 C 
BRANCH  22  24
ATOM     23  C   UNL     1      -8.191  -5.002  -3.040  0.00  0.00    +0.004 C 
ATOM     24  C   UNL     1      -6.965  -4.119  -2.800  0.00  0.00    -0.003 C 
ENDBRANCH  22  24
ENDBRANCH  21  22
ENDBRANCH  20  21
ENDBRANCH   1  20
TORSDOF 5
