REMARK  Name = ZINC61697849
REMARK  6 active torsions:
REMARK  status: ('A' for Active; 'I' for Inactive)
REMARK    1  A    between atoms: C_1  and  C_2
REMARK    2  A    between atoms: C_2  and  C_4
REMARK    3  A    between atoms: C_2  and  O_22
REMARK    4  A    between atoms: C_7  and  O_11
REMARK    5  A    between atoms: O_11  and  C_12
REMARK    6  A    between atoms: C_15  and  N_19
REMARK                            x       y       z     vdW  Elec       q    Type
REMARK                         _______ _______ _______ _____ _____    ______ ____
ROOT
ATOM      1  C   UNL     1      -1.326  -0.787  -0.032  0.00  0.00    -0.018 A 
ATOM      2  C   UNL     1      -2.086  -0.722  -1.185  0.00  0.00    +0.010 A 
ATOM      3  C   UNL     1      -3.411  -1.112  -1.164  0.00  0.00    +0.048 A 
ATOM      4  C   UNL     1      -3.979  -1.569   0.016  0.00  0.00    +0.147 A 
ATOM      5  C   UNL     1      -3.215  -1.634   1.173  0.00  0.00    +0.083 A 
ATOM      6  C   UNL     1      -1.887  -1.248   1.145  0.00  0.00    +0.029 A 
ATOM      7 CL   UNL     1      -3.922  -2.206   2.652  0.00  0.00    -0.080 Cl
ENDROOT
BRANCH   1   9
ATOM      8  C   UNL     1       0.209   1.152   0.150  0.00  0.00    +0.043 C 
ATOM      9  C   UNL     1       0.120  -0.361  -0.058  0.00  0.00    +0.141 C 
BRANCH   9  10
ATOM     10  O   UNL     1       0.694  -0.703  -1.322  0.00  0.00    -0.387 OA
ATOM     11  H   UNL     1       1.625  -0.457  -1.410  0.00  0.00    +0.210 HD
ENDBRANCH   9  10
ENDBRANCH   1   9
BRANCH   4  12
ATOM     12  O   UNL     1      -5.283  -1.953   0.040  0.00  0.00    -0.452 OA
BRANCH  12  13
ATOM     13  C   UNL     1      -5.963  -1.977  -1.137  0.00  0.00    +0.164 A 
ATOM     14  C   UNL     1      -6.717  -0.880  -1.526  0.00  0.00    +0.051 A 
ATOM     15  C   UNL     1      -7.407  -0.906  -2.723  0.00  0.00    +0.036 A 
ATOM     16  C   UNL     1      -7.347  -2.025  -3.534  0.00  0.00    +0.129 A 
ATOM     17  C   UNL     1      -6.596  -3.120  -3.150  0.00  0.00    +0.074 A 
ATOM     18  C   UNL     1      -5.898  -3.098  -1.956  0.00  0.00    +0.168 A 
ATOM     19  F   UNL     1      -5.160  -4.166  -1.584  0.00  0.00    -0.202 F 
BRANCH  16  20
ATOM     20  N   UNL     1      -8.088  -2.049  -4.815  0.00  0.00    +0.057 N 
ATOM     21  O   UNL     1      -8.745  -1.091  -5.151  0.00  0.00    -0.126 OA
ATOM     22  O   UNL     1      -8.036  -3.026  -5.525  0.00  0.00    -0.126 OA
ENDBRANCH  16  20
ENDBRANCH  12  13
ENDBRANCH   4  12
TORSDOF 5
