REMARK  Name = ZINC13498982
REMARK  14 active torsions:
REMARK  status: ('A' for Active; 'I' for Inactive)
REMARK    1  A    between atoms: C_1  and  C_2
REMARK    2  A    between atoms: C_6  and  C_15
REMARK    3  A    between atoms: C_13  and  C_14
REMARK    4  A    between atoms: C_15  and  N_69
REMARK    5  A    between atoms: C_16  and  N_69
REMARK    6  A    between atoms: C_21  and  C_23
REMARK    7  A    between atoms: C_21  and  C_32
REMARK    8  A    between atoms: C_21  and  N_69
REMARK    9  A    between atoms: N_27  and  C_28
REMARK   10  A    between atoms: C_28  and  C_29
REMARK   11  A    between atoms: C_29  and  O_30
REMARK   12  A    between atoms: O_30  and  C_31
REMARK   13  A    between atoms: C_32  and  C_33
REMARK   14  A    between atoms: C_32  and  C_34
REMARK                            x       y       z     vdW  Elec       q    Type
REMARK                         _______ _______ _______ _____ _____    ______ ____
ROOT
ATOM      1  N   UNL     1      -5.646   3.454  -1.350  0.00  0.00    +0.391 N 
ATOM      2  H   UNL     1      -5.911   2.560  -1.781  0.00  0.00    -0.080 HD
ENDROOT
BRANCH   1   3
ATOM      3  C   UNL     1      -4.446   3.979  -2.034  0.00  0.00    -0.067 C 
ATOM      4  C   UNL     1      -4.454   5.521  -2.055  0.00  0.00    -0.015 C 
ATOM      5  C   UNL     1      -3.871   5.885  -3.445  0.00  0.00    -0.002 C 
ATOM      6  C   UNL     1      -4.477   4.796  -4.365  0.00  0.00    -0.002 C 
ATOM      7  C   UNL     1      -4.460   3.518  -3.502  0.00  0.00    -0.015 C 
ENDBRANCH   1   3
BRANCH   1   8
ATOM      8  C   UNL     1      -5.354   3.229   0.081  0.00  0.00    -0.036 C 
BRANCH   8  14
ATOM      9  C   UNL     1       1.731   1.095   1.015  0.00  0.00    +0.044 C 
ATOM     10  C   UNL     1       0.276   0.765   0.802  0.00  0.00    -0.047 A 
ATOM     11  C   UNL     1      -0.640   1.774   0.701  0.00  0.00    +0.013 A 
ATOM     12  C   UNL     1      -1.990   1.468   0.504  0.00  0.00    -0.001 A 
ATOM     13  C   UNL     1      -2.998   2.524   0.392  0.00  0.00    +0.017 A 
ATOM     14  C   UNL     1      -4.292   2.166   0.201  0.00  0.00    +0.001 A 
ATOM     15  C   UNL     1      -4.648   0.803   0.115  0.00  0.00    +0.251 A 
ATOM     16  O   UNL     1      -5.817   0.504  -0.057  0.00  0.00    -0.268 OA
ATOM     17  N   UNL     1      -3.730  -0.174   0.218  0.00  0.00    -0.322 N 
ATOM     18  H   UNL     1      -4.009  -1.100   0.154  0.00  0.00    +0.169 HD
ATOM     19  C   UNL     1      -2.397   0.123   0.406  0.00  0.00    +0.049 A 
ATOM     20  C   UNL     1      -1.447  -0.887   0.518  0.00  0.00    +0.030 A 
ATOM     21  C   UNL     1      -0.122  -0.562   0.712  0.00  0.00    -0.046 A 
ATOM     22  C   UNL     1       0.906  -1.658   0.826  0.00  0.00    +0.044 C 
ENDBRANCH   8  14
ENDBRANCH   1   8
BRANCH   1  23
ATOM     23  C   UNL     1      -6.766   4.407  -1.493  0.00  0.00    +0.006 C 
BRANCH  23  24
ATOM     24  C   UNL     1      -7.122   4.526  -2.953  0.00  0.00    +0.138 A 
ATOM     25  N   UNL     1      -7.059   3.576  -3.853  0.00  0.00    -0.115 NA
ATOM     26  N   UNL     1      -7.445   4.068  -4.979  0.00  0.00    -0.023 NA
ATOM     27  N   UNL     1      -7.753   5.308  -4.820  0.00  0.00    -0.044 NA
ATOM     28  N   UNL     1      -7.573   5.626  -3.583  0.00  0.00    -0.229 N 
BRANCH  28  29
ATOM     29  C   UNL     1      -7.810   6.939  -2.979  0.00  0.00    +0.175 C 
BRANCH  29  30
ATOM     30  C   UNL     1      -6.604   7.845  -3.235  0.00  0.00    +0.183 C 
BRANCH  30  31
ATOM     31  O   UNL     1      -6.816   9.111  -2.607  0.00  0.00    -0.381 OA
ATOM     32  C   UNL     1      -5.742  10.036  -2.787  0.00  0.00    +0.194 C 
ENDBRANCH  30  31
ENDBRANCH  29  30
ENDBRANCH  28  29
ENDBRANCH  23  24
BRANCH  23  33
ATOM     33  C   UNL     1      -7.973   3.878  -0.715  0.00  0.00    -0.024 C 
ATOM     34  C   UNL     1      -9.148   4.845  -0.877  0.00  0.00    +0.006 C 
ATOM     35  C   UNL     1      -8.366   2.502  -1.258  0.00  0.00    +0.006 C 
ENDBRANCH  23  33
ENDBRANCH   1  23
TORSDOF 9
