REMARK  Name = ZINC61540002
REMARK  6 active torsions:
REMARK  status: ('A' for Active; 'I' for Inactive)
REMARK    1  A    between atoms: C_1  and  N_2
REMARK    2  A    between atoms: N_2  and  C_3
REMARK    3  A    between atoms: N_11  and  C_12
REMARK    4  A    between atoms: N_11  and  C_15
REMARK    5  A    between atoms: C_12  and  C_13
REMARK    6  A    between atoms: C_13  and  O_14
REMARK                            x       y       z     vdW  Elec       q    Type
REMARK                         _______ _______ _______ _____ _____    ______ ____
ROOT
ATOM      1  C   UNL     1      -0.018   1.461   0.010  0.00  0.00    +0.132 C 
ATOM      2  N   UNL     1       0.002  -0.004   0.002  0.00  0.00    -0.306 N 
ATOM      3  C   UNL     1       1.281  -0.719  -0.014  0.00  0.00    +0.132 C 
ATOM      4  C   UNL     1      -1.183  -0.710   0.009  0.00  0.00    +0.223 A 
ATOM      5  N   UNL     1      -1.166  -2.039   0.008  0.00  0.00    -0.181 NA
ATOM      6  C   UNL     1      -2.310  -2.715   0.015  0.00  0.00    +0.224 A 
ATOM      7  N   UNL     1      -3.468  -2.061   0.025  0.00  0.00    -0.184 NA
ATOM      8  C   UNL     1      -3.482  -0.738   0.027  0.00  0.00    +0.229 A 
ATOM      9  N   UNL     1      -2.345  -0.061   0.024  0.00  0.00    -0.184 NA
ATOM     10 CL   UNL     1      -4.996   0.113   0.038  0.00  0.00    -0.041 Cl
ATOM     11  N   UNL     1      -2.296  -4.095   0.013  0.00  0.00    -0.294 N 
ENDROOT
BRANCH  11  12
ATOM     12  C   UNL     1      -3.558  -4.840   0.022  0.00  0.00    +0.076 C 
ATOM     13  C   UNL     1      -4.373  -4.477  -1.221  0.00  0.00    +0.022 C 
ATOM     14  C   UNL     1      -5.690  -5.255  -1.212  0.00  0.00    +0.002 C 
ATOM     15  C   UNL     1      -6.487  -4.895   0.044  0.00  0.00    +0.000 C 
ATOM     16  C   UNL     1      -5.671  -5.258   1.287  0.00  0.00    +0.002 C 
ATOM     17  C   UNL     1      -4.354  -4.481   1.278  0.00  0.00    +0.022 C 
ENDBRANCH  11  12
BRANCH  11  18
ATOM     18  C   UNL     1      -1.020  -4.815   0.002  0.00  0.00    +0.136 C 
BRANCH  18  19
ATOM     19  C   UNL     1      -0.565  -5.068   1.441  0.00  0.00    +0.174 C 
BRANCH  19  20
ATOM     20  O   UNL     1      -1.489  -5.947   2.086  0.00  0.00    -0.393 OA
ATOM     21  H   UNL     1      -1.263  -6.151   3.003  0.00  0.00    +0.209 HD
ENDBRANCH  19  20
ENDBRANCH  18  19
ENDBRANCH  11  18
TORSDOF 4
