REMARK  Name = ZINC64185687
REMARK  7 active torsions:
REMARK  status: ('A' for Active; 'I' for Inactive)
REMARK    1  A    between atoms: C_7  and  C_10
REMARK    2  A    between atoms: C_10  and  C_11
REMARK    3  A    between atoms: C_11  and  C_13
REMARK    4  A    between atoms: C_11  and  N_26
REMARK    5  A    between atoms: N_15  and  C_16
REMARK    6  A    between atoms: C_16  and  C_17
REMARK    7  A    between atoms: C_27  and  C_29
REMARK                            x       y       z     vdW  Elec       q    Type
REMARK                         _______ _______ _______ _____ _____    ______ ____
ROOT
ATOM      1  C   UNL     1       0.457  -3.653  -1.462  0.00  0.00    +0.163 C 
ENDROOT
BRANCH   1   2
ATOM      2  C   UNL     1      -0.385  -4.904  -1.452  0.00  0.00    +0.234 C 
ATOM      3  O   UNL     1      -1.574  -4.836  -1.679  0.00  0.00    -0.274 OA
ATOM      4  N   UNL     1       0.185  -6.097  -1.193  0.00  0.00    -0.310 N 
ATOM      5  H   UNL     1       1.136  -6.151  -1.011  0.00  0.00    +0.149 HD
BRANCH   4   6
ATOM      6  C   UNL     1      -0.633  -7.313  -1.184  0.00  0.00    +0.147 C 
BRANCH   6   7
ATOM      7  C   UNL     1       0.251  -8.520  -0.864  0.00  0.00    +0.193 C 
ATOM      8  N   UNL     1       0.950  -8.325   0.417  0.00  0.00    -0.246 N 
ATOM      9  N   UNL     1       2.316  -8.336   0.119  0.00  0.00    -0.175 NA
ATOM     10  C   UNL     1       2.533  -8.508  -1.143  0.00  0.00    +0.117 C 
ATOM     11  N   UNL     1       1.342  -8.637  -1.847  0.00  0.00    -0.296 N 
ATOM     12  C   UNL     1       1.595  -8.839  -3.280  0.00  0.00    +0.108 C 
ATOM     13  C   UNL     1       3.054  -8.392  -3.511  0.00  0.00    +0.026 C 
ATOM     14  C   UNL     1       3.695  -8.617  -2.116  0.00  0.00    +0.075 C 
ATOM     15  H   UNL     1       0.545  -8.211   1.291  0.00  0.00    +0.170 HD
ENDBRANCH   6   7
ENDBRANCH   4   6
ENDBRANCH   1   2
BRANCH   1  16
ATOM     16  N   UNL     1      -0.238  -2.603  -2.210  0.00  0.00    -0.299 N 
ATOM     17  C   UNL     1      -1.451  -2.176  -1.805  0.00  0.00    +0.251 C 
ATOM     18  O   UNL     1      -1.969  -2.664  -0.818  0.00  0.00    -0.270 OA
ATOM     19  H   UNL     1       0.175  -2.214  -2.997  0.00  0.00    +0.150 HD
BRANCH  17  20
ATOM     20  C   UNL     1      -2.146  -1.125  -2.554  0.00  0.00    +0.074 A 
ATOM     21  C   UNL     1      -3.381  -0.547  -2.306  0.00  0.00    +0.021 A 
ATOM     22  C   UNL     1      -3.774   0.426  -3.193  0.00  0.00    +0.008 A 
ATOM     23  C   UNL     1      -2.953   0.749  -4.223  0.00  0.00    +0.046 A 
ATOM     24  S   UNL     1      -1.619  -0.252  -4.016  0.00  0.00    -0.092 S 
ENDBRANCH  17  20
ENDBRANCH   1  16
BRANCH   1  25
ATOM     25  C   UNL     1       0.691  -3.186  -0.024  0.00  0.00    +0.065 C 
BRANCH  25  32
ATOM     26  C   UNL     1      -0.016   1.348   0.009  0.00  0.00    +0.001 A 
ATOM     27  C   UNL     1       1.166   2.101   0.002  0.00  0.00    +0.002 A 
ATOM     28  C   UNL     1       2.391   1.535  -0.013  0.00  0.00    +0.026 A 
ATOM     29  C   UNL     1       2.529   0.120  -0.022  0.00  0.00    +0.043 A 
ATOM     30  N   UNL     1       3.587  -0.654  -0.037  0.00  0.00    -0.380 N 
ATOM     31  C   UNL     1       3.143  -2.053  -0.041  0.00  0.00    +0.144 C 
ATOM     32  C   UNL     1       1.631  -2.008  -0.025  0.00  0.00    -0.039 C 
ATOM     33  C   UNL     1       1.295  -0.698  -0.014  0.00  0.00    -0.001 A 
ATOM     34  C   UNL     1       0.002  -0.004   0.002  0.00  0.00    +0.010 A 
ATOM     35  H   UNL     1       4.509  -0.353  -0.045  0.00  0.00    +0.160 HD
ENDBRANCH  25  32
ENDBRANCH   1  25
TORSDOF 7
