REMARK  Name = ZINC59795037
REMARK  9 active torsions:
REMARK  status: ('A' for Active; 'I' for Inactive)
REMARK    1  A    between atoms: C_2  and  C_3
REMARK    2  A    between atoms: C_3  and  N_4
REMARK    3  A    between atoms: C_5  and  C_24
REMARK    4  A    between atoms: C_8  and  S_9
REMARK    5  A    between atoms: S_9  and  C_10
REMARK    6  A    between atoms: C_10  and  C_11
REMARK    7  A    between atoms: C_17  and  S_19
REMARK    8  A    between atoms: S_19  and  C_20
REMARK    9  A    between atoms: C_20  and  C_21
REMARK                            x       y       z     vdW  Elec       q    Type
REMARK                         _______ _______ _______ _____ _____    ______ ____
ROOT
ATOM      1  C   UNL     1      -0.192  -5.657   0.032  0.00  0.00    +0.173 C 
ENDROOT
BRANCH   1   2
ATOM      2  C   UNL     1       0.105  -6.565   1.197  0.00  0.00    +0.229 C 
ATOM      3  O   UNL     1      -0.166  -6.212   2.326  0.00  0.00    -0.275 OA
ATOM      4  N   UNL     1       0.670  -7.770   0.986  0.00  0.00    -0.263 N 
ATOM      5  C   UNL     1       0.944  -8.609   2.064  0.00  0.00    +0.189 A 
ATOM      6  N   UNL     1       0.730  -8.430   3.357  0.00  0.00    -0.125 NA
ATOM      7  N   UNL     1       1.040  -9.303   4.213  0.00  0.00    -0.133 NA
ATOM      8  C   UNL     1       1.602 -10.453   3.869  0.00  0.00    +0.160 A 
ATOM      9  S   UNL     1       1.679 -10.241   2.093  0.00  0.00    -0.024 S 
ATOM     10  H   UNL     1       0.887  -8.053   0.084  0.00  0.00    +0.157 HD
BRANCH   8  11
ATOM     11  S   UNL     1       2.119 -11.805   4.873  0.00  0.00    -0.088 S 
BRANCH  11  12
ATOM     12  C   UNL     1       1.706 -11.282   6.561  0.00  0.00    +0.171 C 
BRANCH  12  13
ATOM     13  C   UNL     1       2.102 -12.364   7.532  0.00  0.00    +0.221 C 
ATOM     14  O   UNL     1       2.612 -13.387   7.127  0.00  0.00    -0.275 OA
ATOM     15  N   UNL     1       1.889 -12.195   8.853  0.00  0.00    -0.329 N 
ATOM     16  H   UNL     1       1.482 -11.377   9.177  0.00  0.00    +0.145 HD
ATOM     17  H   UNL     1       2.144 -12.891   9.478  0.00  0.00    +0.145 HD
ENDBRANCH  12  13
ENDBRANCH  11  12
ENDBRANCH   8  11
ENDBRANCH   1   2
BRANCH   1  18
ATOM     18  S   UNL     1      -0.945  -4.122   0.637  0.00  0.00    -0.077 S 
BRANCH  18  23
ATOM     19  N   UNL     1      -1.784  -1.935  -0.892  0.00  0.00    -0.298 N 
ATOM     20  C   UNL     1      -1.796  -1.605  -2.227  0.00  0.00    +0.165 A 
ATOM     21  N   UNL     1      -1.276  -2.618  -2.880  0.00  0.00    -0.128 NA
ATOM     22  N   UNL     1      -0.945  -3.547  -2.055  0.00  0.00    -0.122 NA
ATOM     23  C   UNL     1      -1.228  -3.180  -0.825  0.00  0.00    +0.193 A 
BRANCH  20  24
ATOM     24  C   UNL     1      -2.300  -0.346  -2.817  0.00  0.00    +0.019 A 
ATOM     25  C   UNL     1      -2.914  -0.355  -4.070  0.00  0.00    +0.013 A 
ATOM     26  C   UNL     1      -3.382   0.822  -4.615  0.00  0.00    +0.021 A 
ATOM     27  C   UNL     1      -3.243   2.013  -3.921  0.00  0.00    +0.041 A 
ATOM     28  C   UNL     1      -2.635   2.028  -2.677  0.00  0.00    +0.021 A 
ATOM     29  C   UNL     1      -2.168   0.856  -2.119  0.00  0.00    +0.013 A 
ATOM     30 CL   UNL     1      -3.834   3.491  -4.613  0.00  0.00    -0.084 Cl
ENDBRANCH  20  24
BRANCH  19  31
ATOM     31  C   UNL     1      -2.263  -1.119   0.226  0.00  0.00    +0.152 C 
BRANCH  31  33
ATOM     32  C   UNL     1      -1.169   0.926   0.991  0.00  0.00    +0.005 C 
ATOM     33  C   UNL     1      -1.104  -0.374   0.837  0.00  0.00    -0.013 C 
ENDBRANCH  31  33
ENDBRANCH  19  31
ENDBRANCH  18  23
ENDBRANCH   1  18
TORSDOF 9
