REMARK  Name = ZINC65988673
REMARK  6 active torsions:
REMARK  status: ('A' for Active; 'I' for Inactive)
REMARK    1  A    between atoms: C_1  and  S_2
REMARK    2  A    between atoms: S_2  and  N_5
REMARK    3  A    between atoms: N_5  and  C_6
REMARK    4  A    between atoms: C_6  and  C_7
REMARK    5  A    between atoms: C_7  and  N_8
REMARK    6  A    between atoms: C_14  and  C_17
REMARK                            x       y       z     vdW  Elec       q    Type
REMARK                         _______ _______ _______ _____ _____    ______ ____
ROOT
ATOM      1  N   UNL     1       4.205  -0.503  -2.903  0.00  0.00    -0.298 N 
ATOM      2  C   UNL     1       4.930  -1.083  -3.880  0.00  0.00    +0.302 C 
ATOM      3  O   UNL     1       4.439  -1.961  -4.562  0.00  0.00    -0.253 OA
ATOM      4  N   UNL     1       6.200  -0.688  -4.101  0.00  0.00    -0.286 N 
ATOM      5  C   UNL     1       6.846   0.288  -3.212  0.00  0.00    +0.110 C 
ATOM      6  C   UNL     1       7.393   1.440  -4.061  0.00  0.00    +0.028 C 
ATOM      7  C   UNL     1       8.311   0.876  -5.148  0.00  0.00    +0.039 C 
ATOM      8  C   UNL     1       7.511  -0.057  -6.059  0.00  0.00    +0.028 C 
ATOM      9  C   UNL     1       6.967  -1.230  -5.230  0.00  0.00    +0.110 C 
ATOM     10  H   UNL     1       4.618   0.145  -2.312  0.00  0.00    +0.150 HD
ENDROOT
BRANCH   7  11
ATOM     11  C   UNL     1       8.879   2.009  -5.963  0.00  0.00    +0.020 A 
ATOM     12  C   UNL     1       8.228   3.144  -6.264  0.00  0.00    +0.031 A 
ATOM     13  C   UNL     1       9.141   3.962  -7.065  0.00  0.00    -0.000 A 
ATOM     14  C   UNL     1       9.046   5.221  -7.663  0.00  0.00    +0.010 A 
ATOM     15  C   UNL     1      10.106   5.720  -8.364  0.00  0.00    +0.001 A 
ATOM     16  C   UNL     1      11.279   4.987  -8.488  0.00  0.00    +0.002 A 
ATOM     17  C   UNL     1      11.394   3.744  -7.906  0.00  0.00    +0.026 A 
ATOM     18  C   UNL     1      10.327   3.215  -7.187  0.00  0.00    +0.047 A 
ATOM     19  N   UNL     1      10.136   2.036  -6.502  0.00  0.00    -0.358 N 
ATOM     20  H   UNL     1      10.795   1.329  -6.416  0.00  0.00    +0.166 HD
ENDBRANCH   7  11
BRANCH   1  21
ATOM     21  C   UNL     1       2.792  -0.852  -2.735  0.00  0.00    +0.122 C 
BRANCH  21  22
ATOM     22  C   UNL     1       2.206  -0.059  -1.565  0.00  0.00    +0.124 C 
BRANCH  22  23
ATOM     23  N   UNL     1       0.793  -0.408  -1.397  0.00  0.00    -0.193 NA
ATOM     24  H   UNL     1       0.323  -0.878  -2.103  0.00  0.00    +0.148 HD
BRANCH  23  26
ATOM     25  C   UNL     1      -0.023   1.814   0.008  0.00  0.00    +0.214 C 
ATOM     26  S   UNL     1      -0.000   0.000  -0.002  0.00  0.00    +0.027 S 
ATOM     27  O   UNL     1       0.832  -0.484   1.043  0.00  0.00    -0.158 OA
ATOM     28  O   UNL     1      -1.317  -0.505  -0.173  0.00  0.00    -0.158 OA
ENDBRANCH  23  26
ENDBRANCH  22  23
ENDBRANCH  21  22
ENDBRANCH   1  21
TORSDOF 5
