REMARK  Name = ZINC09068703
REMARK  5 active torsions:
REMARK  status: ('A' for Active; 'I' for Inactive)
REMARK    1  A    between atoms: C_4  and  N_31
REMARK    2  A    between atoms: C_5  and  C_7
REMARK    3  A    between atoms: C_9  and  C_20
REMARK    4  A    between atoms: C_20  and  C_22
REMARK    5  A    between atoms: C_25  and  N_28
REMARK                            x       y       z     vdW  Elec       q    Type
REMARK                         _______ _______ _______ _____ _____    ______ ____
ROOT
ATOM      1  C   UNL     1      -2.503   1.276   0.125  0.00  0.00    +0.154 C 
ATOM      2  C   UNL     1      -2.714   0.807  -1.296  0.00  0.00    +0.077 C 
ATOM      3  C   UNL     1      -3.806   1.461  -1.763  0.00  0.00    +0.250 C 
ATOM      4  C   UNL     1      -4.330   2.348  -0.705  0.00  0.00    +0.293 C 
ATOM      5  O   UNL     1      -5.303   3.068  -0.817  0.00  0.00    -0.266 OA
ATOM      6  N   UNL     1      -3.571   2.244   0.401  0.00  0.00    -0.232 N 
ATOM      7  C   UNL     1      -3.765   2.929   1.592  0.00  0.00    +0.168 A 
ATOM      8  N   UNL     1      -3.064   2.865   2.708  0.00  0.00    -0.233 NA
ATOM      9  C   UNL     1      -3.384   3.595   3.758  0.00  0.00    +0.120 A 
ATOM     10  C   UNL     1      -4.464   4.410   3.673  0.00  0.00    +0.068 A 
ATOM     11  S   UNL     1      -4.996   4.083   1.999  0.00  0.00    -0.060 S 
ATOM     12  O   UNL     1      -4.332   1.323  -3.002  0.00  0.00    -0.282 OA
ENDROOT
BRANCH   1  17
ATOM     13  C   UNL     1       0.184   3.924   0.277  0.00  0.00    +0.000 A 
ATOM     14  C   UNL     1       1.315   3.157   0.491  0.00  0.00    +0.002 A 
ATOM     15  C   UNL     1       1.210   1.783   0.590  0.00  0.00    +0.033 A 
ATOM     16  C   UNL     1      -0.026   1.174   0.475  0.00  0.00    +0.131 A 
ATOM     17  C   UNL     1      -1.156   1.940   0.256  0.00  0.00    +0.008 A 
ATOM     18  C   UNL     1      -1.051   3.315   0.162  0.00  0.00    +0.008 A 
BRANCH  16  19
ATOM     19  N   UNL     1      -0.139  -0.298   0.580  0.00  0.00    +0.057 N 
ATOM     20  O   UNL     1       0.865  -0.981   0.669  0.00  0.00    -0.126 OA
ATOM     21  O   UNL     1      -1.237  -0.826   0.578  0.00  0.00    -0.126 OA
ENDBRANCH  16  19
ENDBRANCH   1  17
BRANCH   2  22
ATOM     22  C   UNL     1      -1.897  -0.166  -2.026  0.00  0.00    +0.195 C 
ATOM     23  O   UNL     1      -0.815   0.163  -2.473  0.00  0.00    -0.287 OA
BRANCH  22  24
ATOM     24  C   UNL     1      -2.388  -1.547  -2.219  0.00  0.00    +0.022 A 
ATOM     25  C   UNL     1      -3.580  -1.958  -1.618  0.00  0.00    +0.014 A 
ATOM     26  C   UNL     1      -4.035  -3.246  -1.808  0.00  0.00    +0.033 A 
ATOM     27  C   UNL     1      -3.308  -4.134  -2.582  0.00  0.00    +0.126 A 
ATOM     28  C   UNL     1      -2.124  -3.734  -3.176  0.00  0.00    +0.033 A 
ATOM     29  C   UNL     1      -1.660  -2.447  -2.999  0.00  0.00    +0.014 A 
BRANCH  27  30
ATOM     30  N   UNL     1      -3.800  -5.516  -2.776  0.00  0.00    +0.056 N 
ATOM     31  O   UNL     1      -3.163  -6.300  -3.457  0.00  0.00    -0.126 OA
ATOM     32  O   UNL     1      -4.842  -5.871  -2.255  0.00  0.00    -0.126 OA
ENDBRANCH  27  30
ENDBRANCH  22  24
ENDBRANCH   2  22
TORSDOF 5
