REMARK  Name = ZINC06329473
REMARK  5 active torsions:
REMARK  status: ('A' for Active; 'I' for Inactive)
REMARK    1  A    between atoms: C_3  and  O_18
REMARK    2  A    between atoms: C_6  and  N_7
REMARK    3  A    between atoms: C_8  and  C_10
REMARK    4  A    between atoms: C_13  and  N_15
REMARK    5  A    between atoms: O_18  and  C_19
REMARK                            x       y       z     vdW  Elec       q    Type
REMARK                         _______ _______ _______ _____ _____    ______ ____
ROOT
ATOM      1  N   UNL     1      -1.239   2.068   0.019  0.00  0.00    -0.281 N 
ATOM      2  C   UNL     1      -1.357   3.228   0.696  0.00  0.00    +0.255 C 
ATOM      3  O   UNL     1      -0.379   3.728   1.222  0.00  0.00    -0.269 OA
ATOM      4  H   UNL     1      -2.002   1.705  -0.457  0.00  0.00    +0.155 HD
ENDROOT
BRANCH   1  10
ATOM      5  C   UNL     1       1.176   2.102  -0.013  0.00  0.00    +0.027 A 
ATOM      6  C   UNL     1       2.383   1.431  -0.034  0.00  0.00    +0.047 A 
ATOM      7  C   UNL     1       2.405   0.044  -0.040  0.00  0.00    +0.127 A 
ATOM      8  C   UNL     1       1.216  -0.670  -0.024  0.00  0.00    +0.047 A 
ATOM      9  C   UNL     1       0.009   0.000  -0.002  0.00  0.00    +0.027 A 
ATOM     10  C   UNL     1      -0.015   1.388   0.003  0.00  0.00    +0.034 A 
BRANCH   7  11
ATOM     11  O   UNL     1       3.594  -0.616  -0.061  0.00  0.00    -0.434 OA
BRANCH  11  12
ATOM     12  C   UNL     1       4.779   0.182  -0.077  0.00  0.00    +0.541 C 
ATOM     13  F   UNL     1       4.780   0.993  -1.217  0.00  0.00    -0.166 F 
ATOM     14  F   UNL     1       4.816   0.985   1.067  0.00  0.00    -0.166 F 
ENDBRANCH  11  12
ENDBRANCH   7  11
ENDBRANCH   1  10
BRANCH   2  15
ATOM     15  C   UNL     1      -2.661   3.888   0.797  0.00  0.00    +0.076 A 
ATOM     16  C   UNL     1      -2.995   5.071   1.438  0.00  0.00    +0.023 A 
ATOM     17  C   UNL     1      -4.308   5.466   1.378  0.00  0.00    +0.041 A 
ATOM     18  C   UNL     1      -5.202   4.695   0.706  0.00  0.00    +0.164 A 
ATOM     19  S   UNL     1      -4.233   3.382   0.122  0.00  0.00    -0.060 S 
BRANCH  18  20
ATOM     20  N   UNL     1      -6.652   4.924   0.514  0.00  0.00    +0.063 N 
ATOM     21  O   UNL     1      -7.181   5.911   0.992  0.00  0.00    -0.126 OA
ATOM     22  O   UNL     1      -7.316   4.125  -0.122  0.00  0.00    -0.126 OA
ENDBRANCH  18  20
ENDBRANCH   2  15
TORSDOF 5
