REMARK  Name = ZINC43553332
REMARK  16 active torsions:
REMARK  status: ('A' for Active; 'I' for Inactive)
REMARK    1  A    between atoms: C_1  and  C_2
REMARK    2  A    between atoms: C_2  and  N_3
REMARK    3  A    between atoms: N_3  and  C_4
REMARK    4  A    between atoms: C_4  and  C_5
REMARK    5  A    between atoms: C_6  and  C_8
REMARK    6  A    between atoms: C_8  and  C_9
REMARK    7  A    between atoms: C_17  and  C_19
REMARK    8  A    between atoms: C_19  and  C_20
REMARK    9  A    between atoms: C_20  and  C_21
REMARK   10  A    between atoms: C_20  and  C_22
REMARK   11  A    between atoms: C_20  and  C_23
REMARK   12  A    between atoms: C_27  and  C_37
REMARK   13  A    between atoms: C_30  and  O_36
REMARK   14  A    between atoms: C_32  and  C_33
REMARK   15  A    between atoms: C_32  and  C_34
REMARK   16  A    between atoms: C_34  and  O_35
REMARK                            x       y       z     vdW  Elec       q    Type
REMARK                         _______ _______ _______ _____ _____    ______ ____
ROOT
ATOM      1  C   UNL     1      -2.121  -0.699   3.568  0.00  0.00    +0.054 C 
ATOM      2  C   UNL     1      -3.231   0.327   3.676  0.00  0.00    +0.058 A 
ATOM      3  C   UNL     1      -3.888   0.443   4.856  0.00  0.00    +0.015 A 
ATOM      4  S   UNL     1      -5.064   1.724   4.508  0.00  0.00    -0.057 S 
ATOM      5  C   UNL     1      -4.623   1.997   2.904  0.00  0.00    +0.165 A 
ATOM      6  N   UNL     1      -3.641   1.142   2.713  0.00  0.00    -0.229 NA
ATOM      7  N   UNL     1      -5.164   2.905   2.002  0.00  0.00    -0.265 N 
ATOM      8  C   UNL     1      -6.178   3.708   2.381  0.00  0.00    +0.219 C 
ATOM      9  O   UNL     1      -6.617   3.640   3.509  0.00  0.00    -0.275 OA
ATOM     10  C   UNL     1      -3.658  -0.320   6.110  0.00  0.00    +0.049 C 
ATOM     11  C   UNL     1      -2.545  -1.373   5.961  0.00  0.00    +0.011 C 
ATOM     12  C   UNL     1      -1.497  -0.920   4.952  0.00  0.00    -0.019 C 
ATOM     13  C   UNL     1      -0.811   0.337   5.470  0.00  0.00    +0.010 C 
ATOM     14  C   UNL     1      -0.090   0.016   6.779  0.00  0.00    +0.032 C 
ATOM     15  C   UNL     1      -1.041  -0.519   7.835  0.00  0.00    +0.123 C 
ATOM     16  C   UNL     1      -1.972  -1.620   7.356  0.00  0.00    +0.021 C 
ATOM     17  C   UNL     1      -1.277  -2.984   7.460  0.00  0.00    +0.016 C 
ATOM     18  C   UNL     1      -0.432  -2.003   4.724  0.00  0.00    +0.012 C 
ATOM     19  H   UNL     1      -4.813   2.960   1.099  0.00  0.00    +0.157 HD
ENDROOT
BRANCH  15  20
ATOM     20  O   UNL     1      -1.799   0.560   8.394  0.00  0.00    -0.391 OA
ATOM     21  H   UNL     1      -1.259   1.241   8.819  0.00  0.00    +0.210 HD
ENDBRANCH  15  20
BRANCH   1  22
ATOM     22  C   UNL     1      -1.063  -0.244   2.568  0.00  0.00    +0.106 C 
BRANCH  22  24
ATOM     23  N   UNL     1      -0.909   0.171   0.134  0.00  0.00    -0.302 N 
ATOM     24  C   UNL     1      -1.664  -0.205   1.186  0.00  0.00    +0.216 C 
ATOM     25  O   UNL     1      -2.825  -0.512   1.020  0.00  0.00    -0.276 OA
BRANCH  23  27
ATOM     26  C   UNL     1       0.590   2.043   0.613  0.00  0.00    +0.024 C 
ATOM     27  C   UNL     1       0.494   0.541   0.334  0.00  0.00    +0.104 C 
ENDBRANCH  23  27
BRANCH  23  28
ATOM     28  C   UNL     1      -1.493   0.209  -1.209  0.00  0.00    +0.104 C 
ATOM     29  C   UNL     1      -1.304  -1.150  -1.886  0.00  0.00    +0.024 C 
ENDBRANCH  23  28
ENDBRANCH  22  24
ENDBRANCH   1  22
BRANCH   8  30
ATOM     30  C   UNL     1      -6.765   4.692   1.402  0.00  0.00    +0.102 C 
BRANCH  30  31
ATOM     31  C   UNL     1      -7.892   5.475   2.080  0.00  0.00    -0.029 C 
ATOM     32  C   UNL     1      -7.334   6.229   3.288  0.00  0.00    +0.011 C 
ATOM     33  C   UNL     1      -8.488   6.474   1.086  0.00  0.00    +0.011 C 
ATOM     34  C   UNL     1      -8.980   4.504   2.542  0.00  0.00    +0.011 C 
ENDBRANCH  30  31
ENDBRANCH   8  30
BRANCH  16  35
ATOM     35  C   UNL     1      -3.153  -1.689   8.360  0.00  0.00    +0.165 C 
BRANCH  35  36
ATOM     36  O   UNL     1      -2.646  -1.920   9.676  0.00  0.00    -0.394 OA
ATOM     37  H   UNL     1      -3.331  -1.975  10.357  0.00  0.00    +0.209 HD
ENDBRANCH  35  36
ENDBRANCH  16  35
TORSDOF 9
