REMARK  Name = ZINC40168678
REMARK  7 active torsions:
REMARK  status: ('A' for Active; 'I' for Inactive)
REMARK    1  A    between atoms: C_1  and  C_2
REMARK    2  A    between atoms: C_2  and  C_4
REMARK    3  A    between atoms: C_2  and  O_19
REMARK    4  A    between atoms: N_6  and  C_7
REMARK    5  A    between atoms: C_8  and  C_16
REMARK    6  A    between atoms: O_19  and  C_20
REMARK    7  A    between atoms: C_30  and  C_31
REMARK                            x       y       z     vdW  Elec       q    Type
REMARK                         _______ _______ _______ _____ _____    ______ ____
ROOT
ATOM      1  C   UNL     1       0.071   1.644  -0.269  0.00  0.00    +0.062 C 
ATOM      2  C   UNL     1       0.256   0.145  -0.025  0.00  0.00    +0.256 C 
ENDROOT
BRANCH   2   3
ATOM      3  C   UNL     1       0.995  -0.465  -1.188  0.00  0.00    +0.258 C 
ATOM      4  O   UNL     1       0.429  -1.243  -1.926  0.00  0.00    -0.271 OA
ATOM      5  N   UNL     1       2.286  -0.147  -1.407  0.00  0.00    -0.276 N 
ATOM      6  H   UNL     1       2.720   0.525  -0.858  0.00  0.00    +0.155 HD
BRANCH   5   7
ATOM      7  C   UNL     1       2.994  -0.779  -2.418  0.00  0.00    +0.084 A 
ATOM      8  C   UNL     1       4.318  -0.585  -2.780  0.00  0.00    +0.068 A 
ATOM      9  C   UNL     1       4.827  -1.380  -3.885  0.00  0.00    -0.023 A 
ATOM     10  C   UNL     1       3.919  -2.222  -4.424  0.00  0.00    -0.004 A 
ATOM     11  S   UNL     1       2.447  -1.960  -3.478  0.00  0.00    -0.077 S 
ATOM     12  C   UNL     1       4.135  -3.165  -5.567  0.00  0.00    +0.043 C 
ATOM     13  C   UNL     1       5.433  -2.765  -6.284  0.00  0.00    +0.005 C 
ATOM     14  C   UNL     1       6.534  -2.563  -5.239  0.00  0.00    +0.005 C 
ATOM     15  C   UNL     1       6.250  -1.303  -4.419  0.00  0.00    +0.037 C 
BRANCH   8  16
ATOM     16  C   UNL     1       5.169   0.382  -2.079  0.00  0.00    +0.244 C 
ATOM     17  O   UNL     1       5.818   0.031  -1.111  0.00  0.00    -0.270 OA
ATOM     18  N   UNL     1       5.232   1.658  -2.507  0.00  0.00    -0.325 N 
ATOM     19  H   UNL     1       4.715   1.937  -3.279  0.00  0.00    +0.145 HD
ATOM     20  H   UNL     1       5.795   2.298  -2.043  0.00  0.00    +0.145 HD
ENDBRANCH   8  16
ENDBRANCH   5   7
ENDBRANCH   2   3
BRANCH   2  21
ATOM     21  O   UNL     1      -1.024  -0.477   0.105  0.00  0.00    -0.473 OA
BRANCH  21  22
ATOM     22  C   UNL     1      -1.595  -0.464   1.340  0.00  0.00    +0.212 A 
ATOM     23  C   UNL     1      -1.000  -1.177   2.411  0.00  0.00    +0.235 A 
ATOM     24  O   UNL     1       0.029  -1.815   2.255  0.00  0.00    -0.283 OA
ATOM     25  C   UNL     1      -1.673  -1.118   3.722  0.00  0.00    +0.068 A 
ATOM     26  C   UNL     1      -1.159  -1.788   4.832  0.00  0.00    +0.015 A 
ATOM     27  C   UNL     1      -1.817  -1.708   6.040  0.00  0.00    +0.001 A 
ATOM     28  C   UNL     1      -2.984  -0.966   6.153  0.00  0.00    +0.004 A 
ATOM     29  C   UNL     1      -3.502  -0.299   5.064  0.00  0.00    +0.047 A 
ATOM     30  C   UNL     1      -2.854  -0.366   3.836  0.00  0.00    +0.140 A 
ATOM     31  O   UNL     1      -3.345   0.280   2.759  0.00  0.00    -0.451 OA
ATOM     32  C   UNL     1      -2.741   0.241   1.559  0.00  0.00    +0.181 A 
BRANCH  32  33
ATOM     33  C   UNL     1      -3.345   0.983   0.436  0.00  0.00    +0.021 A 
ATOM     34  C   UNL     1      -3.509   0.365  -0.806  0.00  0.00    +0.013 A 
ATOM     35  C   UNL     1      -4.074   1.064  -1.851  0.00  0.00    +0.021 A 
ATOM     36  C   UNL     1      -4.478   2.377  -1.673  0.00  0.00    +0.041 A 
ATOM     37  C   UNL     1      -4.316   2.997  -0.444  0.00  0.00    +0.021 A 
ATOM     38  C   UNL     1      -3.759   2.306   0.611  0.00  0.00    +0.013 A 
ATOM     39 CL   UNL     1      -5.187   3.251  -2.994  0.00  0.00    -0.084 Cl
ENDBRANCH  32  33
ENDBRANCH  21  22
ENDBRANCH   2  21
TORSDOF 6
