REMARK  Name = ZINC13945170
REMARK  9 active torsions:
REMARK  status: ('A' for Active; 'I' for Inactive)
REMARK    1  A    between atoms: C_1  and  C_2
REMARK    2  A    between atoms: C_5  and  C_8
REMARK    3  A    between atoms: C_8  and  C_10
REMARK    4  A    between atoms: C_10  and  C_12
REMARK    5  A    between atoms: C_10  and  O_13
REMARK    6  A    between atoms: O_13  and  C_14
REMARK    7  A    between atoms: C_14  and  C_16
REMARK    8  A    between atoms: C_18  and  N_23
REMARK    9  A    between atoms: C_21  and  O_22
REMARK                            x       y       z     vdW  Elec       q    Type
REMARK                         _______ _______ _______ _____ _____    ______ ____
ROOT
ATOM      1  C   UNL     1      -7.832   0.629   1.107  0.00  0.00    +0.102 A 
ATOM      2  C   UNL     1      -6.436   0.686   1.124  0.00  0.00    +0.042 A 
ATOM      3  C   UNL     1      -5.745   0.972  -0.039  0.00  0.00    +0.045 A 
ATOM      4  C   UNL     1      -6.435   1.192  -1.226  0.00  0.00    +0.027 A 
ATOM      5  C   UNL     1      -7.813   1.132  -1.252  0.00  0.00    +0.048 A 
ATOM      6  C   UNL     1      -8.521   0.852  -0.093  0.00  0.00    +0.131 A 
ENDROOT
BRANCH   3   7
ATOM      7  N   UNL     1      -4.342   1.034  -0.023  0.00  0.00    -0.210 N 
ATOM      8  C   UNL     1      -3.578   1.306  -1.132  0.00  0.00    +0.231 C 
ATOM      9  O   UNL     1      -3.953   1.776  -2.185  0.00  0.00    -0.274 OA
ATOM     10  C   UNL     1      -2.189   0.901  -0.767  0.00  0.00    +0.095 C 
ATOM     11  C   UNL     1      -0.938   1.690  -1.145  0.00  0.00    +0.025 C 
ATOM     12  C   UNL     1      -0.013   1.086   0.008  0.00  0.00    +0.016 C 
ATOM     13  C   UNL     1      -0.909   1.674   1.177  0.00  0.00    +0.025 C 
ATOM     14  C   UNL     1      -2.302   1.365   0.734  0.00  0.00    +0.095 C 
ATOM     15  C   UNL     1      -3.577   0.829   1.112  0.00  0.00    +0.231 C 
ATOM     16  O   UNL     1      -3.903   0.322   2.164  0.00  0.00    -0.274 OA
ATOM     17  C   UNL     1      -0.877   3.159   0.697  0.00  0.00    -0.027 C 
ATOM     18  C   UNL     1      -0.956   3.122  -0.631  0.00  0.00    -0.027 C 
ENDBRANCH   3   7
BRANCH   1  19
ATOM     19  C   UNL     1      -8.576   0.330   2.344  0.00  0.00    +0.343 C 
ATOM     20  O   UNL     1      -9.790   0.276   2.325  0.00  0.00    -0.245 OA
BRANCH  19  21
ATOM     21  O   UNL     1      -7.910   0.117   3.496  0.00  0.00    -0.450 OA
BRANCH  21  22
ATOM     22  C   UNL     1      -8.708  -0.172   4.675  0.00  0.00    +0.244 C 
ATOM     23  C   UNL     1      -9.055   1.136   5.389  0.00  0.00    +0.061 C 
BRANCH  22  24
ATOM     24  C   UNL     1      -7.924  -1.060   5.606  0.00  0.00    +0.203 C 
ATOM     25  O   UNL     1      -6.717  -1.125   5.510  0.00  0.00    -0.288 OA
BRANCH  24  30
ATOM     26  C   UNL     1     -10.656  -4.141   9.618  0.00  0.00    +0.044 C 
ATOM     27  C   UNL     1      -9.940  -3.334   8.566  0.00  0.00    -0.050 A 
ATOM     28  C   UNL     1      -8.562  -3.410   8.459  0.00  0.00    +0.004 A 
ATOM     29  C   UNL     1      -7.900  -2.675   7.500  0.00  0.00    +0.012 A 
ATOM     30  C   UNL     1      -8.623  -1.849   6.633  0.00  0.00    +0.021 A 
ATOM     31  C   UNL     1     -10.015  -1.773   6.751  0.00  0.00    +0.012 A 
ATOM     32  C   UNL     1     -10.664  -2.520   7.712  0.00  0.00    +0.004 A 
ENDBRANCH  24  30
ENDBRANCH  22  24
ENDBRANCH  21  22
ENDBRANCH  19  21
ENDBRANCH   1  19
BRANCH   6  33
ATOM     33  O   UNL     1      -9.876   0.793  -0.120  0.00  0.00    -0.506 OA
ATOM     34  H   UNL     1     -10.228  -0.086  -0.312  0.00  0.00    +0.292 HD
ENDBRANCH   6  33
TORSDOF 7
