REMARK  Name = ZINC05225324
REMARK  6 active torsions:
REMARK  status: ('A' for Active; 'I' for Inactive)
REMARK    1  A    between atoms: C_2  and  C_3
REMARK    2  A    between atoms: C_3  and  N_4
REMARK    3  A    between atoms: N_15  and  N_16
REMARK    4  A    between atoms: C_17  and  C_18
REMARK    5  A    between atoms: C_21  and  O_25
REMARK    6  A    between atoms: C_23  and  O_24
REMARK                            x       y       z     vdW  Elec       q    Type
REMARK                         _______ _______ _______ _____ _____    ______ ____
ROOT
ATOM      1  N   UNL     1       0.036  -2.766  -0.012  0.00  0.00    -0.275 N 
ATOM      2  C   UNL     1       1.239  -2.146  -0.021  0.00  0.00    +0.263 A 
ATOM      3  O   UNL     1       2.277  -2.782  -0.034  0.00  0.00    -0.267 OA
ATOM      4  C   UNL     1       1.245  -0.677  -0.013  0.00  0.00    +0.065 A 
ATOM      5  C   UNL     1       2.432   0.055  -0.021  0.00  0.00    +0.015 A 
ATOM      6  C   UNL     1       2.381   1.422  -0.013  0.00  0.00    +0.001 A 
ATOM      7  C   UNL     1       1.161   2.086   0.002  0.00  0.00    +0.002 A 
ATOM      8  C   UNL     1      -0.017   1.394   0.010  0.00  0.00    +0.028 A 
ATOM      9  C   UNL     1       0.002  -0.004   0.002  0.00  0.00    +0.080 A 
ATOM     10  N   UNL     1      -1.136  -0.726   0.009  0.00  0.00    -0.214 NA
ATOM     11  C   UNL     1      -1.119  -2.036   0.002  0.00  0.00    +0.219 A 
ATOM     12  N   UNL     1      -2.316  -2.706   0.010  0.00  0.00    -0.206 N 
ATOM     13  H   UNL     1      -2.329  -3.676   0.005  0.00  0.00    +0.177 HD
ENDROOT
BRANCH  12  14
ATOM     14  N   UNL     1      -3.520  -1.990   0.025  0.00  0.00    -0.187 NA
ATOM     15  C   UNL     1      -4.653  -2.624   0.032  0.00  0.00    +0.142 C 
BRANCH  15  16
ATOM     16  C   UNL     1      -5.919  -1.870   0.048  0.00  0.00    +0.036 A 
ATOM     17  C   UNL     1      -7.139  -2.550   0.056  0.00  0.00    +0.016 A 
ATOM     18  C   UNL     1      -8.321  -1.841   0.070  0.00  0.00    +0.046 A 
ATOM     19  C   UNL     1      -8.303  -0.452   0.077  0.00  0.00    +0.120 A 
ATOM     20  C   UNL     1      -7.097   0.232   0.070  0.00  0.00    +0.091 A 
ATOM     21  C   UNL     1      -5.903  -0.468   0.061  0.00  0.00    +0.129 A 
BRANCH  21  22
ATOM     22  O   UNL     1      -4.721   0.200   0.059  0.00  0.00    -0.506 OA
ATOM     23  H   UNL     1      -4.384   0.402  -0.825  0.00  0.00    +0.292 HD
ENDBRANCH  21  22
BRANCH  19  24
ATOM     24  O   UNL     1      -9.473   0.240   0.092  0.00  0.00    -0.507 OA
ATOM     25  H   UNL     1      -9.803   0.435   0.979  0.00  0.00    +0.292 HD
ENDBRANCH  19  24
ENDBRANCH  15  16
ENDBRANCH  12  14
BRANCH   1  26
ATOM     26  C   UNL     1      -0.029  -4.229  -0.019  0.00  0.00    +0.155 C 
BRANCH  26  28
ATOM     27  C   UNL     1      -0.998  -5.530   1.806  0.00  0.00    +0.005 C 
ATOM     28  C   UNL     1      -0.037  -4.738   1.399  0.00  0.00    -0.013 C 
ENDBRANCH  26  28
ENDBRANCH   1  26
TORSDOF 6
