REMARK  Name = ZINC13044947
REMARK  10 active torsions:
REMARK  status: ('A' for Active; 'I' for Inactive)
REMARK    1  A    between atoms: C_1  and  C_2
REMARK    2  A    between atoms: C_2  and  C_3
REMARK    3  A    between atoms: C_2  and  C_5
REMARK    4  A    between atoms: C_2  and  N_8
REMARK    5  A    between atoms: C_9  and  C_11
REMARK    6  A    between atoms: C_11  and  S_12
REMARK    7  A    between atoms: S_12  and  C_13
REMARK    8  A    between atoms: C_17  and  C_31
REMARK    9  A    between atoms: N_23  and  C_24
REMARK   10  A    between atoms: C_24  and  C_25
REMARK                            x       y       z     vdW  Elec       q    Type
REMARK                         _______ _______ _______ _____ _____    ______ ____
ROOT
ATOM      1  C   UNL     1       6.025   2.340  -2.281  0.00  0.00    +0.173 A 
ATOM      2  N   UNL     1       6.221   3.063  -1.206  0.00  0.00    -0.223 NA
ATOM      3  C   UNL     1       7.412   3.657  -0.959  0.00  0.00    +0.080 A 
ATOM      4  C   UNL     1       7.619   4.427   0.189  0.00  0.00    +0.043 A 
ATOM      5  C   UNL     1       8.859   5.017   0.401  0.00  0.00    +0.065 A 
ATOM      6  C   UNL     1       9.896   4.844  -0.525  0.00  0.00    +0.016 A 
ATOM      7  C   UNL     1       9.705   4.094  -1.650  0.00  0.00    +0.016 A 
ATOM      8  C   UNL     1       8.469   3.493  -1.883  0.00  0.00    +0.065 A 
ATOM      9  C   UNL     1       8.220   2.675  -3.081  0.00  0.00    +0.263 A 
ATOM     10  O   UNL     1       9.089   2.497  -3.914  0.00  0.00    -0.267 OA
ATOM     11  N   UNL     1       6.992   2.126  -3.221  0.00  0.00    -0.283 N 
ENDROOT
BRANCH   5  12
ATOM     12  C   UNL     1       9.086   5.834   1.614  0.00  0.00    +0.387 C 
ATOM     13  O   UNL     1       8.190   5.987   2.420  0.00  0.00    -0.241 OA
ATOM     14  O   UNL     1      10.286   6.408   1.824  0.00  0.00    -0.241 OA
ENDBRANCH   5  12
BRANCH   1  15
ATOM     15  S   UNL     1       4.442   1.604  -2.521  0.00  0.00    -0.078 S 
BRANCH  15  16
ATOM     16  C   UNL     1       3.595   2.188  -1.031  0.00  0.00    +0.173 C 
BRANCH  16  18
ATOM     17  N   UNL     1       1.357   1.975  -0.000  0.00  0.00    -0.297 N 
ATOM     18  C   UNL     1       2.181   1.666  -1.021  0.00  0.00    +0.224 C 
ATOM     19  O   UNL     1       1.785   0.968  -1.930  0.00  0.00    -0.275 OA
ATOM     20  H   UNL     1       1.673   2.533   0.727  0.00  0.00    +0.150 HD
BRANCH  17  22
ATOM     21  C   UNL     1      -0.758   1.975  -1.229  0.00  0.00    +0.048 C 
ATOM     22  C   UNL     1      -0.018   1.468   0.010  0.00  0.00    +0.121 C 
BRANCH  22  23
ATOM     23  C   UNL     1      -0.734   1.961   1.269  0.00  0.00    +0.026 C 
ATOM     24  C   UNL     1      -1.192   0.908   2.280  0.00  0.00    +0.007 C 
ATOM     25  C   UNL     1      -2.222   1.633   1.410  0.00  0.00    +0.007 C 
ENDBRANCH  22  23
BRANCH  22  26
ATOM     26  C   UNL     1       0.002  -0.004   0.002  0.00  0.00    +0.088 C 
ATOM     27  N   UNL     1       0.018  -1.140  -0.004  0.00  0.00    -0.194 NA
ENDBRANCH  22  26
ENDBRANCH  17  22
ENDBRANCH  16  18
ENDBRANCH  15  16
ENDBRANCH   1  15
BRANCH  11  28
ATOM     28  C   UNL     1       6.695   1.299  -4.393  0.00  0.00    +0.162 C 
BRANCH  28  29
ATOM     29  C   UNL     1       6.162   2.171  -5.501  0.00  0.00    -0.028 A 
ATOM     30  C   UNL     1       4.803   2.397  -5.610  0.00  0.00    +0.005 A 
ATOM     31  C   UNL     1       4.315   3.201  -6.624  0.00  0.00    +0.000 A 
ATOM     32  C   UNL     1       5.186   3.771  -7.534  0.00  0.00    +0.000 A 
ATOM     33  C   UNL     1       6.545   3.541  -7.428  0.00  0.00    +0.000 A 
ATOM     34  C   UNL     1       7.033   2.741  -6.411  0.00  0.00    +0.005 A 
ENDBRANCH  28  29
ENDBRANCH  11  28
TORSDOF 9
