REMARK  Name = ZINC11865181
REMARK  6 active torsions:
REMARK  status: ('A' for Active; 'I' for Inactive)
REMARK    1  A    between atoms: C_1  and  C_2
REMARK    2  A    between atoms: C_2  and  C_3
REMARK    3  A    between atoms: N_5  and  C_6
REMARK    4  A    between atoms: C_14  and  C_15
REMARK    5  A    between atoms: C_23  and  C_27
REMARK    6  A    between atoms: C_25  and  C_26
REMARK                            x       y       z     vdW  Elec       q    Type
REMARK                         _______ _______ _______ _____ _____    ______ ____
ROOT
ATOM      1  C   UNL     1      -1.201   3.546   0.178  0.00  0.00    +0.088 A 
ATOM      2  C   UNL     1      -0.105   4.474  -0.127  0.00  0.00    +0.042 A 
ATOM      3  C   UNL     1       1.218   4.311  -0.538  0.00  0.00    +0.013 A 
ATOM      4  C   UNL     1       2.004   5.411  -0.744  0.00  0.00    +0.001 A 
ATOM      5  C   UNL     1       1.493   6.686  -0.544  0.00  0.00    +0.004 A 
ATOM      6  C   UNL     1       0.189   6.867  -0.138  0.00  0.00    +0.047 A 
ATOM      7  C   UNL     1      -0.629   5.763   0.077  0.00  0.00    +0.138 A 
ATOM      8  O   UNL     1      -1.913   5.630   0.466  0.00  0.00    -0.453 OA
ATOM      9  C   UNL     1      -2.268   4.328   0.526  0.00  0.00    +0.158 A 
ENDROOT
BRANCH   9  10
ATOM     10  C   UNL     1      -3.592   3.830   0.907  0.00  0.00    +0.037 A 
ATOM     11  C   UNL     1      -3.852   2.467   0.987  0.00  0.00    +0.104 A 
ATOM     12  C   UNL     1      -5.128   2.031   1.360  0.00  0.00    +0.338 A 
ATOM     13  O   UNL     1      -5.347   0.833   1.433  0.00  0.00    -0.245 OA
ATOM     14  O   UNL     1      -6.121   2.892   1.634  0.00  0.00    -0.422 OA
ATOM     15  C   UNL     1      -5.947   4.231   1.572  0.00  0.00    +0.143 A 
ATOM     16  C   UNL     1      -4.698   4.760   1.213  0.00  0.00    +0.029 A 
ATOM     17  C   UNL     1      -4.516   6.140   1.149  0.00  0.00    +0.015 A 
ATOM     18  C   UNL     1      -5.568   6.981   1.440  0.00  0.00    -0.049 A 
ATOM     19  C   UNL     1      -6.802   6.459   1.795  0.00  0.00    +0.010 A 
ATOM     20  C   UNL     1      -6.995   5.094   1.862  0.00  0.00    -0.007 A 
ATOM     21  C   UNL     1      -8.342   4.541   2.250  0.00  0.00    +0.047 C 
ATOM     22  C   UNL     1      -5.376   8.474   1.374  0.00  0.00    +0.044 C 
ENDBRANCH   9  10
BRANCH   1  25
ATOM     23  C   UNL     1      -0.625   1.453   1.137  0.00  0.00    +0.217 C 
ATOM     24  O   UNL     1      -0.101   2.033   2.064  0.00  0.00    -0.275 OA
ATOM     25  N   UNL     1      -1.163   2.155   0.121  0.00  0.00    -0.282 N 
ATOM     26  H   UNL     1      -1.524   1.692  -0.651  0.00  0.00    +0.155 HD
BRANCH  23  28
ATOM     27  C   UNL     1       0.010  -0.599   2.376  0.00  0.00    +0.013 C 
ATOM     28  C   UNL     1      -0.670  -0.054   1.119  0.00  0.00    +0.093 C 
ENDBRANCH  23  28
ENDBRANCH   1  25
TORSDOF 3
