REMARK  Name = ZINC18353103
REMARK  10 active torsions:
REMARK  status: ('A' for Active; 'I' for Inactive)
REMARK    1  A    between atoms: C_1  and  C_2
REMARK    2  A    between atoms: C_2  and  C_3
REMARK    3  A    between atoms: C_2  and  C_4
REMARK    4  A    between atoms: C_4  and  C_6
REMARK    5  A    between atoms: C_4  and  N_26
REMARK    6  A    between atoms: C_6  and  O_8
REMARK    7  A    between atoms: O_8  and  C_9
REMARK    8  A    between atoms: C_9  and  C_10
REMARK    9  A    between atoms: N_15  and  C_16
REMARK   10  A    between atoms: C_27  and  C_29
REMARK                            x       y       z     vdW  Elec       q    Type
REMARK                         _______ _______ _______ _____ _____    ______ ____
ROOT
ATOM      1  C   UNL     1      -7.192   1.201   2.099  0.00  0.00    +0.258 C 
ATOM      2  O   UNL     1      -6.796   1.898   3.008  0.00  0.00    -0.272 OA
ATOM      3  N   UNL     1      -6.368   0.892   1.079  0.00  0.00    -0.237 N 
ATOM      4  C   UNL     1      -5.103   1.358   1.069  0.00  0.00    +0.306 C 
ATOM      5  O   UNL     1      -4.707   2.057   1.980  0.00  0.00    -0.252 OA
ATOM      6  N   UNL     1      -4.279   1.049   0.049  0.00  0.00    -0.294 N 
ATOM      7  H   UNL     1      -6.684   0.334   0.351  0.00  0.00    +0.159 HD
ATOM      8  H   UNL     1      -4.595   0.491  -0.679  0.00  0.00    +0.151 HD
ENDROOT
BRANCH   6   9
ATOM      9  C   UNL     1      -2.904   1.556   0.038  0.00  0.00    +0.037 C 
ATOM     10  C   UNL     1      -2.188   1.063  -1.221  0.00  0.00    +0.029 C 
ATOM     11  C   UNL     1      -0.753   1.593  -1.232  0.00  0.00    -0.008 C 
ATOM     12  C   UNL     1      -0.013   1.086   0.008  0.00  0.00    +0.007 C 
ATOM     13  C   UNL     1      -0.729   1.579   1.267  0.00  0.00    -0.008 C 
ATOM     14  C   UNL     1      -2.164   1.050   1.278  0.00  0.00    +0.029 C 
ATOM     15  C   UNL     1      -0.750   3.109   1.275  0.00  0.00    +0.007 C 
ATOM     16  C   UNL     1      -1.490   3.616   0.036  0.00  0.00    -0.008 C 
ATOM     17  C   UNL     1      -0.773   3.123  -1.223  0.00  0.00    +0.007 C 
ATOM     18  C   UNL     1      -2.925   3.086   0.047  0.00  0.00    +0.029 C 
ENDBRANCH   6   9
BRANCH   1  19
ATOM     19  C   UNL     1      -8.606   0.679   2.110  0.00  0.00    +0.328 C 
BRANCH  19  20
ATOM     20  O   UNL     1      -9.286   1.147   3.304  0.00  0.00    -0.454 OA
BRANCH  20  21
ATOM     21  C   UNL     1     -10.563   0.768   3.467  0.00  0.00    +0.328 C 
ATOM     22  O   UNL     1     -11.096   0.069   2.638  0.00  0.00    -0.249 OA
BRANCH  21  23
ATOM     23  C   UNL     1     -11.333   1.216   4.683  0.00  0.00    +0.185 C 
BRANCH  23  24
ATOM     24  N   UNL     1     -12.693   0.674   4.626  0.00  0.00    -0.296 N 
ATOM     25  C   UNL     1     -13.694   1.298   5.277  0.00  0.00    +0.280 C 
ATOM     26  O   UNL     1     -13.469   2.312   5.911  0.00  0.00    -0.267 OA
ATOM     27  H   UNL     1     -12.872  -0.135   4.121  0.00  0.00    +0.150 HD
BRANCH  25  28
ATOM     28  C   UNL     1     -15.056   0.755   5.221  0.00  0.00    +0.189 A 
ATOM     29  C   UNL     1     -16.157   1.285   5.830  0.00  0.00    +0.054 A 
ATOM     30  C   UNL     1     -17.237   0.449   5.510  0.00  0.00    +0.042 A 
ATOM     31  C   UNL     1     -16.755  -0.543   4.729  0.00  0.00    +0.196 A 
ATOM     32  O   UNL     1     -15.441  -0.352   4.553  0.00  0.00    -0.458 OA
ENDBRANCH  25  28
ENDBRANCH  23  24
BRANCH  23  34
ATOM     33  C   UNL     1      -9.213   1.274   6.004  0.00  0.00    +0.009 C 
ATOM     34  C   UNL     1     -10.633   0.708   5.945  0.00  0.00    +0.014 C 
ATOM     35  C   UNL     1     -11.415   1.162   7.179  0.00  0.00    +0.009 C 
ENDBRANCH  23  34
ENDBRANCH  21  23
ENDBRANCH  20  21
ENDBRANCH  19  20
ENDBRANCH   1  19
TORSDOF 8
