REMARK  Name = ZINC39217199
REMARK  13 active torsions:
REMARK  status: ('A' for Active; 'I' for Inactive)
REMARK    1  A    between atoms: C_1  and  C_2
REMARK    2  A    between atoms: C_2  and  O_3
REMARK    3  A    between atoms: O_3  and  C_4
REMARK    4  A    between atoms: C_4  and  C_6
REMARK    5  A    between atoms: C_7  and  C_23
REMARK    6  A    between atoms: C_12  and  C_14
REMARK    7  A    between atoms: C_23  and  S_24
REMARK    8  A    between atoms: S_24  and  C_25
REMARK    9  A    between atoms: C_28  and  C_35
REMARK   10  A    between atoms: C_29  and  C_31
REMARK   11  A    between atoms: C_31  and  C_32
REMARK   12  A    between atoms: C_32  and  S_33
REMARK   13  A    between atoms: S_33  and  C_34
REMARK                            x       y       z     vdW  Elec       q    Type
REMARK                         _______ _______ _______ _____ _____    ______ ____
ROOT
ATOM      1  C   UNL     1       1.567  -2.363   2.371  0.00  0.00    +0.079 C 
ATOM      2  C   UNL     1       1.513  -3.685   2.645  0.00  0.00    +0.034 C 
ATOM      3  N   UNL     1       2.067  -4.192   3.786  0.00  0.00    -0.272 N 
ATOM      4  C   UNL     1       2.692  -3.443   4.704  0.00  0.00    +0.304 C 
ATOM      5  O   UNL     1       3.153  -3.986   5.689  0.00  0.00    -0.252 OA
ATOM      6  N   UNL     1       2.826  -2.109   4.571  0.00  0.00    -0.288 N 
ATOM      7  C   UNL     1       2.268  -1.465   3.370  0.00  0.00    +0.144 C 
ATOM      8  H   UNL     1       2.003  -5.147   3.940  0.00  0.00    +0.156 HD
ATOM      9  H   UNL     1       3.282  -1.586   5.248  0.00  0.00    +0.151 HD
ENDROOT
BRANCH   7  10
ATOM     10  C   UNL     1       1.283  -0.419   3.825  0.00  0.00    -0.019 A 
ATOM     11  C   UNL     1       0.345  -0.729   4.792  0.00  0.00    +0.009 A 
ATOM     12  C   UNL     1      -0.560   0.226   5.213  0.00  0.00    +0.050 A 
ATOM     13  C   UNL     1      -0.530   1.499   4.666  0.00  0.00    +0.166 A 
ATOM     14  C   UNL     1       0.414   1.811   3.691  0.00  0.00    +0.167 A 
ATOM     15  C   UNL     1       1.322   0.850   3.278  0.00  0.00    +0.055 A 
ATOM     16  O   UNL     1       0.239   3.112   3.315  0.00  0.00    -0.453 OA
ATOM     17  C   UNL     1      -1.079   3.470   3.772  0.00  0.00    +0.466 C 
ATOM     18  O   UNL     1      -1.297   2.603   4.901  0.00  0.00    -0.453 OA
ENDBRANCH   7  10
BRANCH   1  19
ATOM     19  C   UNL     1       0.995  -1.837   1.190  0.00  0.00    +0.339 C 
ATOM     20  O   UNL     1       1.704  -1.569   0.237  0.00  0.00    -0.245 OA
BRANCH  19  21
ATOM     21  O   UNL     1      -0.337  -1.633   1.118  0.00  0.00    -0.462 OA
BRANCH  21  23
ATOM     22  C   UNL     1      -2.364  -0.938   0.001  0.00  0.00    +0.048 C 
ATOM     23  C   UNL     1      -0.846  -1.099  -0.106  0.00  0.00    +0.229 C 
ENDBRANCH  21  23
ENDBRANCH  19  21
ENDBRANCH   1  19
BRANCH   2  24
ATOM     24  C   UNL     1       0.830  -4.615   1.676  0.00  0.00    +0.124 C 
BRANCH  24  25
ATOM     25  S   UNL     1       2.081  -5.546   0.748  0.00  0.00    -0.105 S 
BRANCH  25  26
ATOM     26  C   UNL     1       1.108  -6.604  -0.359  0.00  0.00    +0.280 C 
ATOM     27  N   UNL     1       0.232  -5.783  -1.203  0.00  0.00    -0.250 NA
ATOM     28  C   UNL     1      -0.984  -6.129  -0.943  0.00  0.00    +0.057 C 
ATOM     29  C   UNL     1      -0.992  -7.189   0.078  0.00  0.00    +0.061 C 
ATOM     30  N   UNL     1       0.220  -7.473   0.424  0.00  0.00    -0.250 NA
ATOM     31  C   UNL     1      -2.211  -5.537  -1.588  0.00  0.00    +0.067 C 
BRANCH  29  32
ATOM     32  C   UNL     1      -2.229  -7.845   0.636  0.00  0.00    +0.067 C 
BRANCH  32  33
ATOM     33  C   UNL     1      -1.826  -8.896   1.672  0.00  0.00    +0.075 C 
BRANCH  33  34
ATOM     34  S   UNL     1      -3.314  -9.685   2.344  0.00  0.00    -0.164 S 
ATOM     35  C   UNL     1      -2.671 -10.888   3.540  0.00  0.00    +0.084 C 
ENDBRANCH  33  34
ENDBRANCH  32  33
ENDBRANCH  29  32
ENDBRANCH  25  26
ENDBRANCH  24  25
ENDBRANCH   2  24
TORSDOF 10
