REMARK  Name = ZINC00782383
REMARK  9 active torsions:
REMARK  status: ('A' for Active; 'I' for Inactive)
REMARK    1  A    between atoms: C_1  and  C_2
REMARK    2  A    between atoms: C_4  and  C_30
REMARK    3  A    between atoms: C_9  and  C_14
REMARK    4  A    between atoms: C_14  and  C_16
REMARK    5  A    between atoms: C_14  and  N_59
REMARK    6  A    between atoms: N_20  and  C_21
REMARK    7  A    between atoms: C_21  and  C_22
REMARK    8  A    between atoms: C_21  and  C_23
REMARK    9  A    between atoms: C_21  and  C_24
REMARK                            x       y       z     vdW  Elec       q    Type
REMARK                         _______ _______ _______ _____ _____    ______ ____
ROOT
ATOM      1  C   UNL     1      -0.099   1.052   0.044  0.00  0.00    +0.039 C 
ENDROOT
BRANCH   1  10
ATOM      2  C   UNL     1       7.352   1.100   0.351  0.00  0.00    +0.044 C 
ATOM      3  C   UNL     1       6.029   1.816   0.432  0.00  0.00    -0.050 A 
ATOM      4  C   UNL     1       5.999   3.181   0.687  0.00  0.00    +0.008 A 
ATOM      5  C   UNL     1       4.801   3.856   0.766  0.00  0.00    -0.026 A 
ATOM      6  C   UNL     1       3.606   3.165   0.589  0.00  0.00    +0.052 A 
ATOM      7  C   UNL     1       3.640   1.782   0.332  0.00  0.00    -0.001 A 
ATOM      8  C   UNL     1       4.869   1.117   0.256  0.00  0.00    +0.013 A 
ATOM      9  C   UNL     1       2.377   1.062   0.152  0.00  0.00    +0.017 A 
ATOM     10  C   UNL     1       1.218   1.760   0.230  0.00  0.00    +0.011 A 
ATOM     11  C   UNL     1       1.239   3.147   0.491  0.00  0.00    +0.251 A 
ATOM     12  O   UNL     1       0.184   3.755   0.562  0.00  0.00    -0.268 OA
ATOM     13  N   UNL     1       2.393   3.815   0.662  0.00  0.00    -0.322 N 
ATOM     14  H   UNL     1       2.371   4.798   0.846  0.00  0.00    +0.169 HD
ATOM     15  C   UNL     1       4.784   5.337   1.043  0.00  0.00    +0.046 C 
ENDBRANCH   1  10
BRANCH   1  21
ATOM     16  C   UNL     1      -0.285   0.896   2.453  0.00  0.00    -0.077 C 
ATOM     17  C   UNL     1      -1.144   1.299   3.654  0.00  0.00    -0.019 C 
ATOM     18  C   UNL     1      -2.511   0.619   3.548  0.00  0.00    -0.004 C 
ATOM     19  C   UNL     1      -3.170   1.016   2.224  0.00  0.00    -0.019 C 
ATOM     20  C   UNL     1      -2.252   0.621   1.065  0.00  0.00    -0.077 C 
ATOM     21  N   UNL     1      -0.962   1.328   1.212  0.00  0.00    +0.389 N 
ATOM     22  H   UNL     1      -1.139   2.338   1.264  0.00  0.00    -0.080 HD
ENDBRANCH   1  21
BRANCH   1  23
ATOM     23  C   UNL     1      -0.778   1.570  -1.197  0.00  0.00    +0.143 A 
ATOM     24  N   UNL     1      -1.301   2.761  -1.364  0.00  0.00    -0.115 NA
ATOM     25  N   UNL     1      -1.782   2.820  -2.557  0.00  0.00    -0.023 NA
ATOM     26  N   UNL     1      -1.587   1.696  -3.154  0.00  0.00    -0.043 NA
ATOM     27  N   UNL     1      -0.971   0.899  -2.348  0.00  0.00    -0.225 N 
BRANCH  27  28
ATOM     28  C   UNL     1      -0.558  -0.477  -2.632  0.00  0.00    +0.059 C 
ATOM     29  C   UNL     1      -1.285  -1.434  -1.685  0.00  0.00    +0.036 C 
ATOM     30  C   UNL     1      -0.910  -0.827  -4.079  0.00  0.00    +0.036 C 
ATOM     31  C   UNL     1       0.953  -0.608  -2.429  0.00  0.00    +0.036 C 
ENDBRANCH  27  28
ENDBRANCH   1  23
TORSDOF 4
