REMARK  Name = ZINC21893017
REMARK  9 active torsions:
REMARK  status: ('A' for Active; 'I' for Inactive)
REMARK    1  A    between atoms: C_4  and  C_7
REMARK    2  A    between atoms: C_7  and  N_8
REMARK    3  A    between atoms: C_9  and  N_38
REMARK    4  A    between atoms: C_10  and  N_17
REMARK    5  A    between atoms: N_17  and  C_18
REMARK    6  A    between atoms: C_18  and  C_19
REMARK    7  A    between atoms: C_19  and  C_20
REMARK    8  A    between atoms: C_26  and  C_28
REMARK    9  A    between atoms: C_28  and  N_29
REMARK                            x       y       z     vdW  Elec       q    Type
REMARK                         _______ _______ _______ _____ _____    ______ ____
ROOT
ATOM      1  N   UNL     1       4.056   2.951   2.344  0.00  0.00    -0.262 N 
ATOM      2  C   UNL     1       3.424   2.821   3.529  0.00  0.00    +0.242 C 
ATOM      3  O   UNL     1       2.234   2.587   3.559  0.00  0.00    -0.273 OA
ENDROOT
BRANCH   1   6
ATOM      4  N   UNL     1       3.001   1.439  -0.834  0.00  0.00    -0.276 N 
ATOM      5  C   UNL     1       3.697   1.645   0.334  0.00  0.00    +0.128 A 
ATOM      6  C   UNL     1       3.357   2.711   1.142  0.00  0.00    +0.140 A 
ATOM      7  C   UNL     1       2.299   3.551   0.749  0.00  0.00    +0.277 A 
ATOM      8  O   UNL     1       1.975   4.497   1.446  0.00  0.00    -0.266 OA
ATOM      9  N   UNL     1       1.646   3.302  -0.404  0.00  0.00    -0.273 N 
ATOM     10  H   UNL     1       0.817   3.954  -0.718  0.00  0.00    +0.173 HD
ATOM     11  C   UNL     1       1.994   2.261  -1.181  0.00  0.00    +0.331 A 
ATOM     12  O   UNL     1       1.388   2.060  -2.215  0.00  0.00    -0.246 OA
BRANCH   5  13
ATOM     13  N   UNL     1       4.722   0.801   0.691  0.00  0.00    -0.343 N 
ATOM     14  H   UNL     1       5.275   0.972   1.626  0.00  0.00    +0.144 HD
ATOM     15  H   UNL     1       4.990  -0.044   0.040  0.00  0.00    +0.144 HD
ENDBRANCH   5  13
BRANCH   4  16
ATOM     16  C   UNL     1       3.354   0.314  -1.704  0.00  0.00    +0.163 C 
BRANCH  16  20
ATOM     17  C   UNL     1       6.298   1.569  -4.533  0.00  0.00    +0.000 A 
ATOM     18  C   UNL     1       6.689   1.049  -3.313  0.00  0.00    +0.000 A 
ATOM     19  C   UNL     1       5.736   0.643  -2.397  0.00  0.00    +0.005 A 
ATOM     20  C   UNL     1       4.393   0.757  -2.702  0.00  0.00    -0.028 A 
ATOM     21  C   UNL     1       4.002   1.271  -3.924  0.00  0.00    +0.005 A 
ATOM     22  C   UNL     1       4.954   1.682  -4.837  0.00  0.00    +0.000 A 
ENDBRANCH  16  20
ENDBRANCH   4  16
ENDBRANCH   1   6
BRANCH   1  23
ATOM     23  C   UNL     1       5.467   3.342   2.305  0.00  0.00    +0.118 C 
BRANCH  23  24
ATOM     24  C   UNL     1       5.576   4.867   2.372  0.00  0.00    +0.050 C 
BRANCH  24  25
ATOM     25  C   UNL     1       7.028   5.269   2.332  0.00  0.00    -0.072 C 
ATOM     26  C   UNL     1       7.541   5.580   1.185  0.00  0.00    -0.028 C 
ATOM     27  C   UNL     1       8.971   5.989   0.987  0.00  0.00    +0.027 C 
ATOM     28  C   UNL     1       9.594   6.394   2.324  0.00  0.00    +0.004 C 
ATOM     29  C   UNL     1       9.294   5.294   3.351  0.00  0.00    +0.005 C 
ATOM     30  C   UNL     1       7.788   5.290   3.626  0.00  0.00    +0.030 C 
ENDBRANCH  24  25
ENDBRANCH  23  24
ENDBRANCH   1  23
BRANCH   2  31
ATOM     31  C   UNL     1       4.196   2.967   4.815  0.00  0.00    +0.242 C 
BRANCH  31  32
ATOM     32  N   UNL     1       3.290   2.784   5.952  0.00  0.00    -0.235 N 
ATOM     33  C   UNL     1       2.994   1.600   6.585  0.00  0.00    +0.090 A 
ATOM     34  C   UNL     1       3.397   0.281   6.405  0.00  0.00    +0.029 A 
ATOM     35  C   UNL     1       2.907  -0.696   7.225  0.00  0.00    +0.002 A 
ATOM     36  C   UNL     1       2.009  -0.385   8.239  0.00  0.00    +0.002 A 
ATOM     37  C   UNL     1       1.599   0.901   8.436  0.00  0.00    +0.032 A 
ATOM     38  C   UNL     1       2.087   1.922   7.609  0.00  0.00    +0.113 A 
ATOM     39  N   UNL     1       1.871   3.252   7.561  0.00  0.00    -0.129 NA
ATOM     40  N   UNL     1       2.559   3.783   6.612  0.00  0.00    -0.064 NA
ENDBRANCH  31  32
ENDBRANCH   2  31
TORSDOF 9
