REMARK  Name = ZINC24720116
REMARK  9 active torsions:
REMARK  status: ('A' for Active; 'I' for Inactive)
REMARK    1  A    between atoms: C_1  and  C_2
REMARK    2  A    between atoms: C_5  and  C_8
REMARK    3  A    between atoms: C_8  and  C_10
REMARK    4  A    between atoms: C_8  and  N_16
REMARK    5  A    between atoms: C_17  and  C_19
REMARK    6  A    between atoms: N_22  and  S_25
REMARK    7  A    between atoms: S_25  and  C_28
REMARK    8  A    between atoms: C_30  and  C_34
REMARK    9  A    between atoms: N_31  and  C_33
REMARK                            x       y       z     vdW  Elec       q    Type
REMARK                         _______ _______ _______ _____ _____    ______ ____
ROOT
ATOM      1  C   UNL     1       3.103   5.040  -2.715  0.00  0.00    +0.077 C 
ATOM      2  C   UNL     1       3.388   6.496  -2.338  0.00  0.00    +0.030 C 
ATOM      3  C   UNL     1       4.535   7.028  -3.203  0.00  0.00    +0.110 C 
ATOM      4  N   UNL     1       4.193   6.826  -4.618  0.00  0.00    -0.176 NA
ATOM      5  C   UNL     1       3.816   5.480  -5.068  0.00  0.00    +0.110 C 
ATOM      6  C   UNL     1       2.677   4.965  -4.183  0.00  0.00    +0.030 C 
ENDROOT
BRANCH   1   8
ATOM      7  N   UNL     1       2.152   4.470  -0.504  0.00  0.00    -0.304 N 
ATOM      8  C   UNL     1       1.998   4.502  -1.843  0.00  0.00    +0.217 C 
ATOM      9  O   UNL     1       0.971   4.099  -2.345  0.00  0.00    -0.275 OA
ATOM     10  H   UNL     1       3.083   4.836  -0.048  0.00  0.00    +0.150 HD
BRANCH   7  11
ATOM     11  C   UNL     1       1.077   3.947   0.344  0.00  0.00    +0.134 C 
BRANCH  11  16
ATOM     12  C   UNL     1       1.498   6.251   5.627  0.00  0.00    +0.044 C 
ATOM     13  C   UNL     1       1.389   5.650   4.249  0.00  0.00    -0.050 A 
ATOM     14  C   UNL     1       0.147   5.479   3.666  0.00  0.00    +0.004 A 
ATOM     15  C   UNL     1       0.046   4.929   2.402  0.00  0.00    +0.006 A 
ATOM     16  C   UNL     1       1.187   4.548   1.721  0.00  0.00    -0.023 A 
ATOM     17  C   UNL     1       2.429   4.713   2.307  0.00  0.00    +0.006 A 
ATOM     18  C   UNL     1       2.530   5.269   3.568  0.00  0.00    +0.004 A 
ENDBRANCH  11  16
BRANCH  11  19
ATOM     19  C   UNL     1       1.197   2.448   0.439  0.00  0.00    -0.023 A 
ATOM     20  C   UNL     1       0.061   1.661   0.406  0.00  0.00    +0.006 A 
ATOM     21  C   UNL     1       0.170   0.285   0.493  0.00  0.00    +0.000 A 
ATOM     22  C   UNL     1       1.416  -0.303   0.612  0.00  0.00    +0.000 A 
ATOM     23  C   UNL     1       2.551   0.484   0.644  0.00  0.00    +0.000 A 
ATOM     24  C   UNL     1       2.442   1.860   0.557  0.00  0.00    +0.006 A 
ENDBRANCH  11  19
ENDBRANCH   7  11
ENDBRANCH   1   8
BRANCH   4  25
ATOM     25  S   UNL     1       4.233   8.092  -5.684  0.00  0.00    +0.062 S 
ATOM     26  O   UNL     1       5.125   9.055  -5.139  0.00  0.00    -0.153 OA
ATOM     27  O   UNL     1       4.416   7.530  -6.976  0.00  0.00    -0.153 OA
BRANCH  25  28
ATOM     28  C   UNL     1       2.632   8.829  -5.678  0.00  0.00    +0.124 A 
ATOM     29  C   UNL     1       2.206   9.865  -4.842  0.00  0.00    +0.061 A 
ATOM     30  C   UNL     1       0.894  10.135  -5.168  0.00  0.00    +0.106 A 
ATOM     31  N   UNL     1       0.534   9.278  -6.183  0.00  0.00    -0.344 N 
ATOM     32  C   UNL     1       1.598   8.495  -6.487  0.00  0.00    +0.114 A 
ATOM     33  C   UNL     1      -0.779   9.224  -6.831  0.00  0.00    +0.149 C 
BRANCH  30  34
ATOM     34  C   UNL     1       0.037  11.151  -4.547  0.00  0.00    +0.258 C 
ATOM     35  O   UNL     1      -1.075  11.365  -4.993  0.00  0.00    -0.269 OA
ATOM     36  N   UNL     1       0.481  11.846  -3.481  0.00  0.00    -0.324 N 
ATOM     37  H   UNL     1      -0.162  12.608  -3.015  0.00  0.00    +0.145 HD
ATOM     38  H   UNL     1       1.486  11.652  -3.077  0.00  0.00    +0.145 HD
ENDBRANCH  30  34
ENDBRANCH  25  28
ENDBRANCH   4  25
TORSDOF 7
