REMARK  Name = ZINC05307213
REMARK  9 active torsions:
REMARK  status: ('A' for Active; 'I' for Inactive)
REMARK    1  A    between atoms: C_1  and  C_2
REMARK    2  A    between atoms: C_2  and  C_4
REMARK    3  A    between atoms: C_2  and  O_18
REMARK    4  A    between atoms: N_6  and  C_7
REMARK    5  A    between atoms: C_9  and  N_15
REMARK    6  A    between atoms: C_12  and  O_13
REMARK    7  A    between atoms: O_13  and  C_14
REMARK    8  A    between atoms: O_18  and  C_19
REMARK    9  A    between atoms: C_19  and  C_21
REMARK                            x       y       z     vdW  Elec       q    Type
REMARK                         _______ _______ _______ _____ _____    ______ ____
ROOT
ATOM      1  C   UNL     1       0.005  -0.004   0.004  0.00  0.00    +0.258 C 
ATOM      2  O   UNL     1      -0.586  -0.623   0.864  0.00  0.00    -0.271 OA
ATOM      3  N   UNL     1       0.671  -0.664  -0.964  0.00  0.00    -0.279 N 
ATOM      4  H   UNL     1       1.076  -0.172  -1.696  0.00  0.00    +0.155 HD
ENDROOT
BRANCH   3   5
ATOM      5  C   UNL     1       0.779  -2.060  -0.914  0.00  0.00    +0.078 A 
ATOM      6  C   UNL     1       0.685  -2.721   0.302  0.00  0.00    +0.059 A 
ATOM      7  C   UNL     1       0.787  -4.099   0.348  0.00  0.00    +0.128 A 
ATOM      8  C   UNL     1       0.992  -4.820  -0.814  0.00  0.00    +0.036 A 
ATOM      9  C   UNL     1       1.091  -4.167  -2.028  0.00  0.00    +0.050 A 
ATOM     10  C   UNL     1       0.986  -2.787  -2.084  0.00  0.00    +0.141 A 
BRANCH   7  11
ATOM     11  N   UNL     1       0.682  -4.803   1.646  0.00  0.00    +0.056 N 
ATOM     12  O   UNL     1       0.776  -6.017   1.689  0.00  0.00    -0.126 OA
ATOM     13  O   UNL     1       0.501  -4.170   2.670  0.00  0.00    -0.126 OA
ENDBRANCH   7  11
BRANCH  10  14
ATOM     14  O   UNL     1       1.085  -2.143  -3.278  0.00  0.00    -0.493 OA
ATOM     15  C   UNL     1       1.297  -2.954  -4.436  0.00  0.00    +0.277 C 
ENDBRANCH  10  14
ENDBRANCH   3   5
BRANCH   1  17
ATOM     16  C   UNL     1      -0.740   2.020  -1.219  0.00  0.00    +0.062 C 
ATOM     17  C   UNL     1      -0.005   1.503   0.019  0.00  0.00    +0.259 C 
BRANCH  17  18
ATOM     18  O   UNL     1      -0.683   1.971   1.215  0.00  0.00    -0.448 OA
BRANCH  18  19
ATOM     19  C   UNL     1      -0.281   3.154   1.723  0.00  0.00    +0.347 C 
ATOM     20  O   UNL     1       0.611   3.778   1.181  0.00  0.00    -0.244 OA
BRANCH  19  21
ATOM     21  C   UNL     1      -0.920   3.688   2.927  0.00  0.00    +0.097 A 
ATOM     22  C   UNL     1      -0.661   4.868   3.602  0.00  0.00    +0.026 A 
ATOM     23  C   UNL     1      -1.411   5.153   4.731  0.00  0.00    -0.036 A 
ATOM     24  C   UNL     1      -2.356   4.234   5.090  0.00  0.00    -0.006 A 
ATOM     25  S   UNL     1      -2.241   2.991   3.904  0.00  0.00    -0.086 S 
ATOM     26  C   UNL     1      -3.288   4.307   6.261  0.00  0.00    +0.043 C 
ATOM     27  C   UNL     1      -2.776   5.393   7.219  0.00  0.00    +0.005 C 
ATOM     28  C   UNL     1      -2.459   6.654   6.411  0.00  0.00    +0.005 C 
ATOM     29  C   UNL     1      -1.214   6.424   5.554  0.00  0.00    +0.036 C 
ENDBRANCH  19  21
ENDBRANCH  18  19
ENDBRANCH  17  18
ENDBRANCH   1  17
TORSDOF 7
