REMARK  Name = ZINC37004680
REMARK  5 active torsions:
REMARK  status: ('A' for Active; 'I' for Inactive)
REMARK    1  A    between atoms: C_1  and  C_2
REMARK    2  A    between atoms: C_7  and  C_23
REMARK    3  A    between atoms: C_9  and  N_10
REMARK    4  A    between atoms: N_10  and  C_11
REMARK    5  A    between atoms: C_13  and  N_18
REMARK                            x       y       z     vdW  Elec       q    Type
REMARK                         _______ _______ _______ _____ _____    ______ ____
ROOT
ATOM      1  C   UNL     1       0.658   0.911   3.276  0.00  0.00    +0.048 A 
ATOM      2  C   UNL     1       1.897   1.437   2.937  0.00  0.00    +0.052 A 
ATOM      3  C   UNL     1       2.520   2.340   3.786  0.00  0.00    +0.071 A 
ATOM      4  C   UNL     1       1.903   2.716   4.972  0.00  0.00    +0.029 A 
ATOM      5  C   UNL     1       0.670   2.192   5.308  0.00  0.00    +0.024 A 
ATOM      6  C   UNL     1       0.043   1.296   4.462  0.00  0.00    +0.062 A 
ATOM      7 CL   UNL     1      -1.510   0.645   4.883  0.00  0.00    -0.082 Cl
ENDROOT
BRANCH   3   8
ATOM      8  N   UNL     1       3.773   2.873   3.447  0.00  0.00    -0.200 N 
ATOM      9  C   UNL     1       4.510   3.752   4.160  0.00  0.00    +0.250 A 
ATOM     10  N   UNL     1       5.604   3.980   3.482  0.00  0.00    -0.116 NA
ATOM     11  N   UNL     1       5.609   3.305   2.389  0.00  0.00    -0.023 NA
ATOM     12  N   UNL     1       4.532   2.602   2.295  0.00  0.00    -0.039 NA
ENDBRANCH   3   8
BRANCH   1  13
ATOM     13  N   UNL     1       0.028   0.001   2.424  0.00  0.00    -0.339 N 
ATOM     14  H   UNL     1      -0.876  -0.296   2.614  0.00  0.00    +0.146 HD
BRANCH  13  21
ATOM     15  C   UNL     1       0.023   1.513  -0.046  0.00  0.00    +0.009 C 
ATOM     16  C   UNL     1       0.024  -0.017  -0.022  0.00  0.00    +0.006 C 
ATOM     17  C   UNL     1      -1.418  -0.528  -0.030  0.00  0.00    +0.005 C 
ATOM     18  C   UNL     1      -1.417  -2.058  -0.005  0.00  0.00    +0.001 C 
ATOM     19  C   UNL     1      -0.709  -2.547   1.260  0.00  0.00    +0.005 C 
ATOM     20  C   UNL     1       0.733  -2.036   1.268  0.00  0.00    +0.006 C 
ATOM     21  C   UNL     1       0.732  -0.506   1.243  0.00  0.00    +0.076 C 
ATOM     22  C   UNL     1       1.441  -2.525   2.533  0.00  0.00    +0.009 C 
ENDBRANCH  13  21
ENDBRANCH   1  13
TORSDOF 3
