REMARK  Name = ZINC26219018
REMARK  12 active torsions:
REMARK  status: ('A' for Active; 'I' for Inactive)
REMARK    1  A    between atoms: C_1  and  C_2
REMARK    2  A    between atoms: C_2  and  C_3
REMARK    3  A    between atoms: C_3  and  N_4
REMARK    4  A    between atoms: C_5  and  C_7
REMARK    5  A    between atoms: C_7  and  S_8
REMARK    6  A    between atoms: S_8  and  C_9
REMARK    7  A    between atoms: C_12  and  S_14
REMARK    8  A    between atoms: S_14  and  C_15
REMARK    9  A    between atoms: C_15  and  C_17
REMARK   10  A    between atoms: C_15  and  C_18
REMARK   11  A    between atoms: N_20  and  C_21
REMARK   12  A    between atoms: C_23  and  N_28
REMARK                            x       y       z     vdW  Elec       q    Type
REMARK                         _______ _______ _______ _____ _____    ______ ____
ROOT
ATOM      1  C   UNL     1      -6.191  -0.911  -0.190  0.00  0.00    +0.136 C 
ATOM      2  C   UNL     1      -6.811  -1.069   1.199  0.00  0.00    +0.029 C 
ENDROOT
BRANCH   1   3
ATOM      3  C   UNL     1      -4.894  -0.151  -0.078  0.00  0.00    +0.230 C 
ATOM      4  O   UNL     1      -3.838  -0.748  -0.087  0.00  0.00    -0.274 OA
ATOM      5  N   UNL     1      -4.908   1.192   0.031  0.00  0.00    -0.283 N 
ATOM      6  H   UNL     1      -5.864   1.726   0.130  0.00  0.00    +0.155 HD
BRANCH   5   7
ATOM      7  C   UNL     1      -3.704   1.908   0.019  0.00  0.00    +0.054 A 
ATOM      8  C   UNL     1      -2.582   1.371  -0.597  0.00  0.00    +0.057 A 
ATOM      9  C   UNL     1      -1.396   2.079  -0.608  0.00  0.00    +0.128 A 
ATOM     10  C   UNL     1      -1.324   3.320  -0.002  0.00  0.00    +0.034 A 
ATOM     11  C   UNL     1      -2.441   3.861   0.608  0.00  0.00    +0.024 A 
ATOM     12  C   UNL     1      -3.631   3.157   0.623  0.00  0.00    +0.062 A 
ATOM     13 CL   UNL     1      -5.031   3.833   1.394  0.00  0.00    -0.082 Cl
BRANCH   9  14
ATOM     14  N   UNL     1      -0.200   1.507  -1.265  0.00  0.00    +0.056 N 
ATOM     15  O   UNL     1      -0.261   0.412  -1.795  0.00  0.00    -0.126 OA
ATOM     16  O   UNL     1       0.845   2.133  -1.280  0.00  0.00    -0.126 OA
ENDBRANCH   9  14
ENDBRANCH   5   7
ENDBRANCH   1   3
BRANCH   1  17
ATOM     17  S   UNL     1      -5.872  -2.550  -0.900  0.00  0.00    -0.084 S 
BRANCH  17  21
ATOM     18  C   UNL     1      -9.713  -4.664  -1.572  0.00  0.00    +0.160 A 
ATOM     19  N   UNL     1      -9.800  -3.453  -1.056  0.00  0.00    -0.134 NA
ATOM     20  N   UNL     1      -8.655  -2.730  -0.810  0.00  0.00    -0.134 NA
ATOM     21  C   UNL     1      -7.477  -3.247  -1.102  0.00  0.00    +0.160 A 
ATOM     22  S   UNL     1      -7.944  -4.845  -1.749  0.00  0.00    -0.033 S 
BRANCH  18  23
ATOM     23  S   UNL     1     -10.997  -5.800  -1.977  0.00  0.00    -0.088 S 
BRANCH  23  24
ATOM     24  C   UNL     1     -12.518  -4.924  -1.520  0.00  0.00    +0.172 C 
BRANCH  24  26
ATOM     25  N   UNL     1     -14.954  -5.350  -1.560  0.00  0.00    -0.315 N 
ATOM     26  C   UNL     1     -13.710  -5.797  -1.819  0.00  0.00    +0.223 C 
ATOM     27  O   UNL     1     -13.549  -6.901  -2.294  0.00  0.00    -0.275 OA
ATOM     28  H   UNL     1     -15.101  -4.348  -1.129  0.00  0.00    +0.149 HD
BRANCH  25  29
ATOM     29  C   UNL     1     -16.113  -6.198  -1.851  0.00  0.00    +0.104 C 
BRANCH  29  31
ATOM     30  C   UNL     1     -18.606  -6.345  -1.769  0.00  0.00    +0.005 C 
ATOM     31  C   UNL     1     -17.396  -5.459  -1.465  0.00  0.00    +0.015 C 
ENDBRANCH  29  31
ENDBRANCH  25  29
ENDBRANCH  24  26
ENDBRANCH  23  24
ENDBRANCH  18  23
ENDBRANCH  17  21
ENDBRANCH   1  17
TORSDOF 10
