REMARK  Name = ZINC24790595
REMARK  13 active torsions:
REMARK  status: ('A' for Active; 'I' for Inactive)
REMARK    1  A    between atoms: C_1  and  C_2
REMARK    2  A    between atoms: C_2  and  N_3
REMARK    3  A    between atoms: N_3  and  C_4
REMARK    4  A    between atoms: N_3  and  S_6
REMARK    5  A    between atoms: C_4  and  C_5
REMARK    6  A    between atoms: S_6  and  C_9
REMARK    7  A    between atoms: C_15  and  S_18
REMARK    8  A    between atoms: S_18  and  C_19
REMARK    9  A    between atoms: C_19  and  C_21
REMARK   10  A    between atoms: C_19  and  C_22
REMARK   11  A    between atoms: N_24  and  C_25
REMARK   12  A    between atoms: C_30  and  O_31
REMARK   13  A    between atoms: O_31  and  C_32
REMARK                            x       y       z     vdW  Elec       q    Type
REMARK                         _______ _______ _______ _____ _____    ______ ____
ROOT
ATOM      1  C   UNL     1       7.037   0.585  -2.284  0.00  0.00    +0.122 A 
ATOM      2  C   UNL     1       7.835   1.738  -2.160  0.00  0.00    +0.033 A 
ATOM      3  C   UNL     1       7.308   2.870  -1.625  0.00  0.00    +0.050 A 
ATOM      4  C   UNL     1       5.963   2.871  -1.202  0.00  0.00    +0.162 A 
ATOM      5  N   UNL     1       5.182   3.785  -0.657  0.00  0.00    -0.129 NA
ATOM      6  N   UNL     1       4.011   3.291  -0.455  0.00  0.00    -0.122 NA
ATOM      7  C   UNL     1       3.973   2.037  -0.846  0.00  0.00    +0.197 A 
ATOM      8  N   UNL     1       5.206   1.726  -1.336  0.00  0.00    -0.276 N 
ATOM      9  C   UNL     1       5.753   0.595  -1.876  0.00  0.00    +0.123 A 
ENDROOT
BRANCH   1  10
ATOM     10  S   UNL     1       7.723  -0.883  -2.978  0.00  0.00    +0.062 S 
ATOM     11  O   UNL     1       6.633  -1.640  -3.486  0.00  0.00    -0.153 OA
ATOM     12  O   UNL     1       8.814  -0.476  -3.793  0.00  0.00    -0.153 OA
BRANCH  10  13
ATOM     13  N   UNL     1       8.367  -1.760  -1.729  0.00  0.00    -0.177 NA
BRANCH  13  15
ATOM     14  C   UNL     1       7.764  -4.128  -1.627  0.00  0.00    +0.022 C 
ATOM     15  C   UNL     1       7.542  -2.741  -1.020  0.00  0.00    +0.106 C 
ENDBRANCH  13  15
BRANCH  13  16
ATOM     16  C   UNL     1       9.763  -1.555  -1.334  0.00  0.00    +0.106 C 
ATOM     17  C   UNL     1       9.824  -0.553  -0.179  0.00  0.00    +0.022 C 
ENDBRANCH  13  16
ENDBRANCH  10  13
ENDBRANCH   1  10
BRANCH   7  18
ATOM     18  S   UNL     1       2.582   0.959  -0.759  0.00  0.00    -0.073 S 
BRANCH  18  19
ATOM     19  C   UNL     1       1.280   1.981  -0.016  0.00  0.00    +0.137 C 
ATOM     20  C   UNL     1       1.677   2.349   1.415  0.00  0.00    +0.029 C 
BRANCH  19  21
ATOM     21  C   UNL     1      -0.014   1.209   0.005  0.00  0.00    +0.230 C 
ATOM     22  O   UNL     1       0.003  -0.004   0.004  0.00  0.00    -0.274 OA
ATOM     23  N   UNL     1      -1.191   1.867   0.018  0.00  0.00    -0.282 N 
ATOM     24  H   UNL     1      -1.207   2.963   0.110  0.00  0.00    +0.155 HD
BRANCH  23  25
ATOM     25  C   UNL     1      -2.393   1.154  -0.086  0.00  0.00    +0.076 A 
ATOM     26  C   UNL     1      -2.413  -0.090  -0.698  0.00  0.00    +0.027 A 
ATOM     27  C   UNL     1      -3.599  -0.793  -0.795  0.00  0.00    +0.002 A 
ATOM     28  C   UNL     1      -4.769  -0.254  -0.293  0.00  0.00    +0.004 A 
ATOM     29  C   UNL     1      -4.758   0.988   0.314  0.00  0.00    +0.048 A 
ATOM     30  C   UNL     1      -3.572   1.697   0.420  0.00  0.00    +0.148 A 
BRANCH  30  31
ATOM     31  O   UNL     1      -3.559   2.919   1.015  0.00  0.00    -0.432 OA
BRANCH  31  32
ATOM     32  C   UNL     1      -4.806   3.412   1.511  0.00  0.00    +0.541 C 
ATOM     33  F   UNL     1      -5.718   3.518   0.455  0.00  0.00    -0.166 F 
ATOM     34  F   UNL     1      -5.307   2.529   2.474  0.00  0.00    -0.166 F 
ENDBRANCH  31  32
ENDBRANCH  30  31
ENDBRANCH  23  25
ENDBRANCH  19  21
ENDBRANCH  18  19
ENDBRANCH   7  18
TORSDOF 10
