REMARK  Name = ZINC63276990
REMARK  4 active torsions:
REMARK  status: ('A' for Active; 'I' for Inactive)
REMARK    1  A    between atoms: C_8  and  S_11
REMARK    2  A    between atoms: S_11  and  C_12
REMARK    3  A    between atoms: C_12  and  C_13
REMARK    4  A    between atoms: C_19  and  N_23
REMARK                            x       y       z     vdW  Elec       q    Type
REMARK                         _______ _______ _______ _____ _____    ______ ____
ROOT
ATOM      1  C   UNL     1       3.038  -3.196   4.144  0.00  0.00    +0.184 C 
ATOM      2  N   UNL     1       2.120  -4.334   4.277  0.00  0.00    -0.363 N 
ATOM      3  C   UNL     1       2.844  -5.411   4.376  0.00  0.00    +0.060 A 
ATOM      4  C   UNL     1       2.504  -6.832   4.529  0.00  0.00    +0.029 A 
ATOM      5  C   UNL     1       3.491  -7.747   4.607  0.00  0.00    +0.035 A 
ATOM      6  C   UNL     1       4.853  -7.401   4.547  0.00  0.00    +0.128 A 
ATOM      7  C   UNL     1       5.273  -6.127   4.407  0.00  0.00    +0.060 A 
ATOM      8  C   UNL     1       4.285  -5.044   4.313  0.00  0.00    +0.062 A 
ATOM      9  N   UNL     1       4.396  -3.753   4.178  0.00  0.00    -0.363 N 
ATOM     10  H   UNL     1       5.224  -3.251   4.111  0.00  0.00    +0.162 HD
ATOM     11  H   UNL     1       1.151  -4.291   4.291  0.00  0.00    +0.162 HD
ENDROOT
BRANCH   6  12
ATOM     12  N   UNL     1       5.865  -8.476   4.640  0.00  0.00    +0.056 N 
ATOM     13  O   UNL     1       5.514  -9.627   4.766  0.00  0.00    -0.126 OA
ATOM     14  O   UNL     1       7.042  -8.205   4.591  0.00  0.00    -0.126 OA
ENDBRANCH   6  12
BRANCH   1  15
ATOM     15  C   UNL     1       2.797  -2.481   2.813  0.00  0.00    +0.118 C 
BRANCH  15  16
ATOM     16  S   UNL     1       3.016  -3.655   1.447  0.00  0.00    -0.124 S 
BRANCH  16  24
ATOM     17  C   UNL     1      -0.017   1.371   0.010  0.00  0.00    +0.002 A 
ATOM     18  C   UNL     1       1.157   2.102   0.002  0.00  0.00    +0.001 A 
ATOM     19  C   UNL     1       2.367   1.427  -0.013  0.00  0.00    +0.016 A 
ATOM     20  C   UNL     1       2.384   0.051  -0.020  0.00  0.00    +0.031 A 
ATOM     21  C   UNL     1       1.215  -0.716  -0.013  0.00  0.00    +0.042 A 
ATOM     22  C   UNL     1       0.002  -0.004   0.002  0.00  0.00    +0.024 A 
ATOM     23  N   UNL     1       1.341  -2.104  -0.022  0.00  0.00    -0.323 N 
ATOM     24  C   UNL     1       2.700  -2.663  -0.039  0.00  0.00    +0.193 C 
ATOM     25  S   UNL     1       3.714  -1.130  -0.039  0.00  0.00    -0.090 S 
ATOM     26  H   UNL     1       0.560  -2.680  -0.018  0.00  0.00    +0.148 HD
ENDBRANCH  16  24
ENDBRANCH  15  16
ENDBRANCH   1  15
TORSDOF 4
