REMARK  Name = ZINC49424988
REMARK  5 active torsions:
REMARK  status: ('A' for Active; 'I' for Inactive)
REMARK    1  A    between atoms: C_9  and  C_11
REMARK    2  A    between atoms: C_11  and  N_12
REMARK    3  A    between atoms: C_13  and  C_15
REMARK    4  A    between atoms: N_24  and  C_25
REMARK    5  A    between atoms: C_25  and  C_26
REMARK                            x       y       z     vdW  Elec       q    Type
REMARK                         _______ _______ _______ _____ _____    ______ ____
ROOT
ATOM      1  C   UNL     1       5.209  -5.104  -3.113  0.00  0.00    +0.092 C 
ATOM      2  C   UNL     1       6.040  -6.390  -3.129  0.00  0.00    +0.016 C 
ATOM      3  C   UNL     1       6.435  -6.727  -4.568  0.00  0.00    +0.020 C 
ATOM      4  C   UNL     1       5.170  -6.958  -5.401  0.00  0.00    +0.109 C 
ATOM      5  N   UNL     1       4.299  -5.782  -5.274  0.00  0.00    -0.285 N 
ATOM      6  C   UNL     1       3.930  -5.317  -3.929  0.00  0.00    +0.122 C 
ATOM      7  C   UNL     1       3.846  -5.141  -6.370  0.00  0.00    +0.302 C 
ATOM      8  O   UNL     1       3.053  -4.227  -6.255  0.00  0.00    -0.253 OA
ATOM      9  N   UNL     1       4.272  -5.514  -7.592  0.00  0.00    -0.295 N 
ATOM     10  H   UNL     1       4.847  -6.290  -7.690  0.00  0.00    +0.151 HD
ENDROOT
BRANCH   1  12
ATOM     11  N   UNL     1       4.112  -3.657  -1.435  0.00  0.00    -0.308 N 
ATOM     12  C   UNL     1       4.847  -4.756  -1.692  0.00  0.00    +0.218 C 
ATOM     13  O   UNL     1       5.218  -5.465  -0.781  0.00  0.00    -0.275 OA
ATOM     14  H   UNL     1       3.816  -3.089  -2.163  0.00  0.00    +0.149 HD
BRANCH  11  15
ATOM     15  C   UNL     1       3.760  -3.318  -0.053  0.00  0.00    +0.178 C 
BRANCH  15  24
ATOM     16  C   UNL     1      -0.017   1.376   0.008  0.00  0.00    +0.002 A 
ATOM     17  C   UNL     1       1.169   2.096  -0.001  0.00  0.00    +0.002 A 
ATOM     18  C   UNL     1       2.375   1.453  -0.016  0.00  0.00    +0.030 A 
ATOM     19  C   UNL     1       2.419   0.057  -0.024  0.00  0.00    +0.089 A 
ATOM     20  C   UNL     1       1.218  -0.673  -0.014  0.00  0.00    +0.066 A 
ATOM     21  C   UNL     1       0.003  -0.003   0.001  0.00  0.00    +0.028 A 
ATOM     22  N   UNL     1       1.582  -2.005  -0.024  0.00  0.00    -0.341 N 
ATOM     23  H   UNL     1       0.980  -2.765  -0.022  0.00  0.00    +0.167 HD
ATOM     24  C   UNL     1       2.941  -2.053  -0.039  0.00  0.00    +0.125 A 
ATOM     25  N   UNL     1       3.432  -0.848  -0.038  0.00  0.00    -0.231 NA
ENDBRANCH  15  24
ENDBRANCH  11  15
ENDBRANCH   1  12
BRANCH   9  26
ATOM     26  C   UNL     1       3.868  -4.749  -8.774  0.00  0.00    +0.148 C 
BRANCH  26  27
ATOM     27  C   UNL     1       4.475  -5.369 -10.006  0.00  0.00    +0.007 A 
ATOM     28  C   UNL     1       3.968  -6.331 -10.816  0.00  0.00    +0.013 A 
ATOM     29  C   UNL     1       4.709  -6.751 -11.903  0.00  0.00    +0.008 A 
ATOM     30  C   UNL     1       5.922  -6.189 -12.129  0.00  0.00    +0.045 A 
ATOM     31  S   UNL     1       6.044  -5.022 -10.784  0.00  0.00    -0.100 S 
ENDBRANCH  26  27
ENDBRANCH   9  26
TORSDOF 5
