REMARK  Name = ZINC29158312
REMARK  9 active torsions:
REMARK  status: ('A' for Active; 'I' for Inactive)
REMARK    1  A    between atoms: C_1  and  C_2
REMARK    2  A    between atoms: C_2  and  C_3
REMARK    3  A    between atoms: C_3  and  C_5
REMARK    4  A    between atoms: C_3  and  C_6
REMARK    5  A    between atoms: C_6  and  C_8
REMARK    6  A    between atoms: C_6  and  N_28
REMARK    7  A    between atoms: C_17  and  C_23
REMARK    8  A    between atoms: C_23  and  O_25
REMARK    9  A    between atoms: O_25  and  C_26
REMARK                            x       y       z     vdW  Elec       q    Type
REMARK                         _______ _______ _______ _____ _____    ______ ____
ROOT
ATOM      1  C   UNL     1      -1.389   5.178   2.385  0.00  0.00    +0.237 C 
ATOM      2  O   UNL     1      -2.343   5.841   2.038  0.00  0.00    -0.274 OA
ATOM      3  N   UNL     1      -0.234   5.783   2.725  0.00  0.00    -0.295 N 
ATOM      4  C   UNL     1       0.890   5.012   3.276  0.00  0.00    +0.114 C 
ATOM      5  C   UNL     1       2.071   5.081   2.301  0.00  0.00    +0.072 C 
ATOM      6  C   UNL     1       2.252   6.510   1.847  0.00  0.00    +0.023 A 
ATOM      7  C   UNL     1       1.303   7.465   1.957  0.00  0.00    -0.002 A 
ATOM      8  C   UNL     1       1.858   8.685   1.409  0.00  0.00    +0.005 A 
ATOM      9  C   UNL     1       1.345   9.973   1.257  0.00  0.00    +0.025 A 
ATOM     10  C   UNL     1       2.192  10.918   0.669  0.00  0.00    +0.060 A 
ATOM     11  C   UNL     1       3.488  10.585   0.258  0.00  0.00    +0.017 A 
ATOM     12  C   UNL     1       4.000   9.323   0.404  0.00  0.00    +0.027 A 
ATOM     13  C   UNL     1       3.175   8.359   0.987  0.00  0.00    +0.047 A 
ATOM     14  N   UNL     1       3.376   7.042   1.269  0.00  0.00    -0.358 N 
ATOM     15  H   UNL     1       4.260   6.409   1.101  0.00  0.00    +0.166 HD
ATOM     16  C   UNL     1      -0.061   7.236   2.551  0.00  0.00    +0.145 C 
ENDROOT
BRANCH  10  17
ATOM     17  C   UNL     1       1.709  12.299   0.481  0.00  0.00    +0.339 C 
ATOM     18  O   UNL     1       0.587  12.604   0.834  0.00  0.00    -0.245 OA
BRANCH  17  19
ATOM     19  O   UNL     1       2.512  13.222  -0.083  0.00  0.00    -0.464 OA
ATOM     20  C   UNL     1       1.971  14.561  -0.238  0.00  0.00    +0.280 C 
ENDBRANCH  17  19
ENDBRANCH  10  17
BRANCH   1  21
ATOM     21  C   UNL     1      -1.495   3.675   2.434  0.00  0.00    +0.163 C 
BRANCH  21  22
ATOM     22  N   UNL     1      -2.816   3.295   2.941  0.00  0.00    -0.288 N 
ATOM     23  C   UNL     1      -3.927   3.678   2.281  0.00  0.00    +0.298 C 
ATOM     24  O   UNL     1      -3.833   4.339   1.265  0.00  0.00    -0.253 OA
ATOM     25  N   UNL     1      -5.142   3.328   2.747  0.00  0.00    -0.313 N 
ATOM     26  H   UNL     1      -2.901   2.696   3.860  0.00  0.00    +0.151 HD
ATOM     27  H   UNL     1      -6.048   3.640   2.208  0.00  0.00    +0.146 HD
ATOM     28  H   UNL     1      -5.227   2.730   3.666  0.00  0.00    +0.146 HD
ENDBRANCH  21  22
BRANCH  21  29
ATOM     29  C   UNL     1      -1.304   3.104   1.027  0.00  0.00    +0.015 C 
ATOM     30  C   UNL     1       0.088   3.473   0.511  0.00  0.00    +0.010 C 
BRANCH  29  32
ATOM     31  C   UNL     1      -1.379   1.021  -0.351  0.00  0.00    +0.004 C 
ATOM     32  C   UNL     1      -1.445   1.581   1.072  0.00  0.00    +0.002 C 
ENDBRANCH  29  32
ENDBRANCH  21  29
ENDBRANCH   1  21
TORSDOF 6
