REMARK  Name = ZINC20533740
REMARK  6 active torsions:
REMARK  status: ('A' for Active; 'I' for Inactive)
REMARK    1  A    between atoms: C_8  and  C_12
REMARK    2  A    between atoms: N_14  and  N_15
REMARK    3  A    between atoms: C_16  and  C_17
REMARK    4  A    between atoms: C_20  and  C_23
REMARK    5  A    between atoms: N_24  and  N_25
REMARK    6  A    between atoms: C_26  and  C_28
REMARK                            x       y       z     vdW  Elec       q    Type
REMARK                         _______ _______ _______ _____ _____    ______ ____
ROOT
ATOM      1  C   UNL     1      10.727  -1.279  -0.191  0.00  0.00    -0.005 A 
ATOM      2  C   UNL     1      10.598  -2.465  -0.922  0.00  0.00    +0.010 A 
ATOM      3  C   UNL     1      11.712  -3.166  -1.287  0.00  0.00    +0.010 A 
ATOM      4  C   UNL     1      12.981  -2.698  -0.932  0.00  0.00    -0.005 A 
ATOM      5  C   UNL     1      13.110  -1.511  -0.203  0.00  0.00    +0.010 A 
ATOM      6  C   UNL     1      11.996  -0.808   0.159  0.00  0.00    +0.010 A 
ENDROOT
BRANCH   1   8
ATOM      7  N   UNL     1       8.348  -0.961  -0.123  0.00  0.00    -0.188 NA
ATOM      8  C   UNL     1       9.526  -0.523   0.203  0.00  0.00    +0.138 C 
BRANCH   7  11
ATOM      9  C   UNL     1       5.982  -0.696  -0.085  0.00  0.00    +0.276 C 
ATOM     10  O   UNL     1       5.870  -1.727  -0.714  0.00  0.00    -0.270 OA
ATOM     11  N   UNL     1       7.205  -0.242   0.253  0.00  0.00    -0.204 N 
ATOM     12  H   UNL     1       7.294   0.583   0.755  0.00  0.00    +0.177 HD
BRANCH   9  20
ATOM     13  C   UNL     1      -0.017   1.378   0.010  0.00  0.00    +0.004 A 
ATOM     14  C   UNL     1       1.170   2.088   0.002  0.00  0.00    +0.049 A 
ATOM     15  C   UNL     1       2.382   1.415  -0.014  0.00  0.00    +0.162 A 
ATOM     16  C   UNL     1       2.401   0.025  -0.025  0.00  0.00    +0.163 A 
ATOM     17  C   UNL     1       1.207  -0.681  -0.015  0.00  0.00    +0.049 A 
ATOM     18  C   UNL     1       0.002  -0.004   0.002  0.00  0.00    +0.004 A 
ATOM     19  O   UNL     1       3.579  -0.656  -0.048  0.00  0.00    -0.472 OA
ATOM     20  C   UNL     1       4.753   0.077   0.318  0.00  0.00    +0.297 C 
ATOM     21  C   UNL     1       4.726   1.426  -0.414  0.00  0.00    +0.283 C 
ATOM     22  O   UNL     1       3.542   2.127  -0.018  0.00  0.00    -0.484 OA
ENDBRANCH   9  20
ENDBRANCH   7  11
ENDBRANCH   1   8
BRANCH   4  23
ATOM     23  C   UNL     1      14.182  -3.454  -1.326  0.00  0.00    +0.138 C 
ATOM     24  N   UNL     1      15.361  -3.019  -0.996  0.00  0.00    -0.188 NA
BRANCH  24  25
ATOM     25  N   UNL     1      16.503  -3.739  -1.370  0.00  0.00    -0.204 N 
ATOM     26  C   UNL     1      17.726  -3.287  -1.028  0.00  0.00    +0.276 C 
ATOM     27  O   UNL     1      17.837  -2.258  -0.396  0.00  0.00    -0.270 OA
ATOM     28  H   UNL     1      16.414  -4.562  -1.876  0.00  0.00    +0.177 HD
BRANCH  26  29
ATOM     29  C   UNL     1      18.955  -4.061  -1.431  0.00  0.00    +0.297 C 
ATOM     30  O   UNL     1      20.129  -3.337  -1.047  0.00  0.00    -0.472 OA
ATOM     31  C   UNL     1      21.305  -4.022  -1.069  0.00  0.00    +0.163 A 
ATOM     32  C   UNL     1      21.318  -5.412  -1.094  0.00  0.00    +0.162 A 
ATOM     33  C   UNL     1      22.527  -6.090  -1.112  0.00  0.00    +0.049 A 
ATOM     34  C   UNL     1      23.716  -5.385  -1.107  0.00  0.00    +0.004 A 
ATOM     35  C   UNL     1      23.703  -4.003  -1.085  0.00  0.00    +0.004 A 
ATOM     36  C   UNL     1      22.501  -3.321  -1.066  0.00  0.00    +0.049 A 
ATOM     37  O   UNL     1      20.155  -6.119  -1.106  0.00  0.00    -0.484 OA
ATOM     38  C   UNL     1      18.970  -5.418  -0.713  0.00  0.00    +0.283 C 
ENDBRANCH  26  29
ENDBRANCH  24  25
ENDBRANCH   4  23
TORSDOF 6
