REMARK  Name = ZINC24595197
REMARK  7 active torsions:
REMARK  status: ('A' for Active; 'I' for Inactive)
REMARK    1  A    between atoms: C_3  and  S_24
REMARK    2  A    between atoms: C_6  and  C_7
REMARK    3  A    between atoms: C_7  and  C_8
REMARK    4  A    between atoms: C_8  and  N_9
REMARK    5  A    between atoms: C_10  and  C_12
REMARK    6  A    between atoms: C_12  and  C_17
REMARK    7  A    between atoms: S_24  and  N_27
REMARK                            x       y       z     vdW  Elec       q    Type
REMARK                         _______ _______ _______ _____ _____    ______ ____
ROOT
ATOM      1  N   UNL     1      -2.261   1.140  -3.131  0.00  0.00    -0.314 N 
ATOM      2  C   UNL     1      -1.434   0.663  -2.179  0.00  0.00    +0.224 C 
ATOM      3  O   UNL     1      -1.215  -0.527  -2.107  0.00  0.00    -0.275 OA
ATOM      4  H   UNL     1      -2.394   2.226  -3.251  0.00  0.00    +0.149 HD
ENDROOT
BRANCH   2   5
ATOM      5  C   UNL     1      -0.782   1.610  -1.204  0.00  0.00    +0.072 C 
ATOM      6  C   UNL     1      -0.015   0.817  -0.132  0.00  0.00    +0.021 C 
ATOM      7  C   UNL     1      -0.651   1.180   1.226  0.00  0.00    +0.001 C 
ATOM      8  C   UNL     1      -2.082   1.651   0.860  0.00  0.00    +0.001 C 
ATOM      9  C   UNL     1      -1.859   2.428  -0.461  0.00  0.00    +0.021 C 
BRANCH   5  10
ATOM     10  C   UNL     1       0.158   2.534  -1.934  0.00  0.00    -0.032 A 
ATOM     11  C   UNL     1       0.422   2.333  -3.276  0.00  0.00    +0.006 A 
ATOM     12  C   UNL     1       1.281   3.184  -3.946  0.00  0.00    +0.015 A 
ATOM     13  C   UNL     1       1.884   4.230  -3.272  0.00  0.00    +0.018 A 
ATOM     14  C   UNL     1       1.624   4.428  -1.928  0.00  0.00    +0.015 A 
ATOM     15  C   UNL     1       0.761   3.580  -1.259  0.00  0.00    +0.006 A 
ATOM     16 BR   UNL     1       3.064   5.390  -4.187  0.00  0.00    -0.050 Br
ENDBRANCH   5  10
ENDBRANCH   2   5
BRANCH   1  17
ATOM     17  C   UNL     1      -2.983   0.213  -4.005  0.00  0.00    +0.109 C 
BRANCH  17  18
ATOM     18  C   UNL     1      -3.845   1.006  -4.989  0.00  0.00    +0.054 C 
BRANCH  18  24
ATOM     19  C   UNL     1      -4.021  -0.355  -7.082  0.00  0.00    +0.005 A 
ATOM     20  C   UNL     1      -4.700  -1.234  -7.905  0.00  0.00    +0.029 A 
ATOM     21  C   UNL     1      -5.950  -1.697  -7.540  0.00  0.00    +0.105 A 
ATOM     22  C   UNL     1      -6.519  -1.286  -6.349  0.00  0.00    +0.029 A 
ATOM     23  C   UNL     1      -5.838  -0.410  -5.524  0.00  0.00    +0.005 A 
ATOM     24  C   UNL     1      -4.588   0.052  -5.889  0.00  0.00    -0.046 A 
BRANCH  21  25
ATOM     25  S   UNL     1      -6.817  -2.814  -8.592  0.00  0.00    +0.056 S 
ATOM     26  O   UNL     1      -5.837  -3.470  -9.384  0.00  0.00    -0.153 OA
ATOM     27  O   UNL     1      -7.729  -3.524  -7.766  0.00  0.00    -0.153 OA
BRANCH  25  28
ATOM     28  N   UNL     1      -7.730  -1.900  -9.628  0.00  0.00    -0.204 NA
ATOM     29  H   UNL     1      -8.290  -2.563 -10.305  0.00  0.00    +0.144 HD
ATOM     30  H   UNL     1      -7.071  -1.246 -10.218  0.00  0.00    +0.144 HD
ENDBRANCH  25  28
ENDBRANCH  21  25
ENDBRANCH  18  24
ENDBRANCH  17  18
ENDBRANCH   1  17
TORSDOF 7
