REMARK  Name = ZINC39490483
REMARK  11 active torsions:
REMARK  status: ('A' for Active; 'I' for Inactive)
REMARK    1  A    between atoms: C_1  and  C_2
REMARK    2  A    between atoms: C_2  and  C_3
REMARK    3  A    between atoms: C_2  and  C_4
REMARK    4  A    between atoms: C_6  and  C_10
REMARK    5  A    between atoms: N_12  and  C_13
REMARK    6  A    between atoms: C_13  and  C_14
REMARK    7  A    between atoms: C_16  and  C_29
REMARK    8  A    between atoms: C_18  and  N_20
REMARK    9  A    between atoms: C_21  and  C_23
REMARK   10  A    between atoms: C_29  and  O_31
REMARK   11  A    between atoms: O_31  and  C_32
REMARK                            x       y       z     vdW  Elec       q    Type
REMARK                         _______ _______ _______ _____ _____    ______ ____
ROOT
ATOM      1  C   UNL     1      -1.103  -2.261   7.224  0.00  0.00    -0.028 A 
ATOM      2  C   UNL     1      -2.472  -2.089   7.206  0.00  0.00    +0.020 A 
ATOM      3  C   UNL     1      -3.288  -2.898   8.000  0.00  0.00    +0.061 A 
ATOM      4  C   UNL     1      -2.713  -3.879   8.809  0.00  0.00    +0.038 A 
ATOM      5  C   UNL     1      -1.337  -4.044   8.820  0.00  0.00    +0.034 A 
ATOM      6  C   UNL     1      -0.534  -3.237   8.022  0.00  0.00    +0.028 A 
ENDROOT
BRANCH   5   7
ATOM      7  N   UNL     1      -0.756  -5.026   9.630  0.00  0.00    -0.285 N 
ATOM      8  C   UNL     1      -1.407  -6.184   9.857  0.00  0.00    +0.220 C 
ATOM      9  O   UNL     1      -2.452  -6.415   9.284  0.00  0.00    -0.275 OA
ATOM     10  H   UNL     1       0.115  -4.874  10.027  0.00  0.00    +0.155 HD
BRANCH   8  11
ATOM     11  C   UNL     1      -0.838  -7.192  10.822  0.00  0.00    +0.075 C 
ATOM     12  C   UNL     1       0.545  -7.634  10.341  0.00  0.00    +0.013 C 
ATOM     13  C   UNL     1       1.123  -8.657  11.321  0.00  0.00    +0.001 C 
ATOM     14  C   UNL     1       0.196  -9.872  11.395  0.00  0.00    +0.000 C 
ATOM     15  C   UNL     1      -1.188  -9.430  11.876  0.00  0.00    +0.001 C 
ATOM     16  C   UNL     1      -1.765  -8.407  10.896  0.00  0.00    +0.013 C 
ENDBRANCH   8  11
ENDBRANCH   5   7
BRANCH   3  17
ATOM     17  C   UNL     1      -4.753  -2.715   7.984  0.00  0.00    +0.339 C 
ATOM     18  O   UNL     1      -5.251  -1.861   7.279  0.00  0.00    -0.245 OA
BRANCH  17  19
ATOM     19  O   UNL     1      -5.538  -3.497   8.750  0.00  0.00    -0.464 OA
ATOM     20  C   UNL     1      -6.947  -3.265   8.685  0.00  0.00    +0.280 C 
ENDBRANCH  17  19
ENDBRANCH   3  17
BRANCH   1  21
ATOM     21  C   UNL     1      -0.225  -1.387   6.367  0.00  0.00    +0.139 C 
BRANCH  21  24
ATOM     22  C   UNL     1       0.707  -1.405   4.115  0.00  0.00    +0.244 C 
ATOM     23  O   UNL     1       1.237  -0.341   4.357  0.00  0.00    -0.273 OA
ATOM     24  N   UNL     1      -0.047  -2.012   5.054  0.00  0.00    -0.309 N 
ATOM     25  H   UNL     1      -0.471  -2.862   4.860  0.00  0.00    +0.149 HD
BRANCH  22  28
ATOM     26  C   UNL     1       0.177  -1.107   0.848  0.00  0.00    +0.064 C 
ATOM     27  C   UNL     1      -0.319  -1.793   1.880  0.00  0.00    +0.036 C 
ATOM     28  C   UNL     1       0.890  -2.048   2.764  0.00  0.00    +0.238 C 
ATOM     29  N   UNL     1       1.985  -1.403   2.021  0.00  0.00    -0.170 NA
ATOM     30  N   UNL     1       1.508  -0.923   0.990  0.00  0.00    -0.158 NA
BRANCH  26  32
ATOM     31  C   UNL     1      -0.531   0.912  -0.405  0.00  0.00    +0.014 C 
ATOM     32  C   UNL     1      -0.636  -0.612  -0.320  0.00  0.00    +0.033 C 
ATOM     33  C   UNL     1      -0.104  -1.233  -1.612  0.00  0.00    +0.014 C 
ENDBRANCH  26  32
ENDBRANCH  22  28
ENDBRANCH  21  24
ENDBRANCH   1  21
TORSDOF 8
