REMARK  Name = ZINC17373770
REMARK  8 active torsions:
REMARK  status: ('A' for Active; 'I' for Inactive)
REMARK    1  A    between atoms: C_5  and  C_7
REMARK    2  A    between atoms: N_11  and  C_15
REMARK    3  A    between atoms: C_15  and  C_16
REMARK    4  A    between atoms: C_16  and  C_17
REMARK    5  A    between atoms: N_19  and  N_20
REMARK    6  A    between atoms: N_20  and  C_21
REMARK    7  A    between atoms: C_24  and  N_30
REMARK    8  A    between atoms: C_26  and  N_27
REMARK                            x       y       z     vdW  Elec       q    Type
REMARK                         _______ _______ _______ _____ _____    ______ ____
ROOT
ATOM      1  C   UNL     1       3.930  -1.481   0.044  0.00  0.00    +0.231 C 
ATOM      2  O   UNL     1       4.411  -2.593  -0.019  0.00  0.00    -0.274 OA
ATOM      3  N   UNL     1       2.593  -1.328   0.109  0.00  0.00    -0.236 N 
ATOM      4  H   UNL     1       2.208  -0.439   0.160  0.00  0.00    +0.173 HD
ENDROOT
BRANCH   3   5
ATOM      5  N   UNL     1       1.758  -2.453   0.105  0.00  0.00    -0.262 N 
ATOM      6  H   UNL     1       2.143  -3.342   0.054  0.00  0.00    +0.170 HD
BRANCH   5   7
ATOM      7  C   UNL     1       0.372  -2.294   0.167  0.00  0.00    +0.075 A 
ATOM      8  C   UNL     1      -0.177  -1.031   0.354  0.00  0.00    +0.029 A 
ATOM      9  C   UNL     1      -1.548  -0.877   0.411  0.00  0.00    +0.035 A 
ATOM     10  C   UNL     1      -2.375  -1.980   0.291  0.00  0.00    +0.128 A 
ATOM     11  C   UNL     1      -1.832  -3.238   0.109  0.00  0.00    +0.067 A 
ATOM     12  C   UNL     1      -0.462  -3.399   0.047  0.00  0.00    +0.150 A 
BRANCH  12  13
ATOM     13  N   UNL     1       0.118  -4.747  -0.148  0.00  0.00    +0.058 N 
ATOM     14  O   UNL     1      -0.605  -5.727  -0.145  0.00  0.00    -0.126 OA
ATOM     15  O   UNL     1       1.319  -4.875  -0.312  0.00  0.00    -0.126 OA
ENDBRANCH  12  13
BRANCH  10  16
ATOM     16  N   UNL     1      -3.844  -1.811   0.358  0.00  0.00    +0.056 N 
ATOM     17  O   UNL     1      -4.573  -2.781   0.253  0.00  0.00    -0.126 OA
ATOM     18  O   UNL     1      -4.323  -0.703   0.518  0.00  0.00    -0.126 OA
ENDBRANCH  10  16
ENDBRANCH   5   7
ENDBRANCH   3   5
BRANCH   1  19
ATOM     19  C   UNL     1       4.829  -0.271   0.049  0.00  0.00    +0.116 C 
BRANCH  19  20
ATOM     20  C   UNL     1       6.289  -0.719  -0.033  0.00  0.00    +0.124 C 
BRANCH  20  25
ATOM     21  C   UNL     1       9.064   2.816   2.067  0.00  0.00    +0.029 C 
ATOM     22  C   UNL     1       8.476   2.121   1.062  0.00  0.00    +0.077 C 
ATOM     23  C   UNL     1       7.598   0.933   1.126  0.00  0.00    +0.258 C 
ATOM     24  O   UNL     1       7.293   0.419   2.186  0.00  0.00    -0.269 OA
ATOM     25  N   UNL     1       7.162   0.457  -0.028  0.00  0.00    -0.255 N 
ATOM     26  C   UNL     1       7.507   1.026  -1.201  0.00  0.00    +0.121 C 
ATOM     27  S   UNL     1       7.053   0.558  -2.784  0.00  0.00    -0.027 S 
ATOM     28  S   UNL     1       8.548   2.389  -0.704  0.00  0.00    -0.061 S 
BRANCH  21  33
ATOM     29  C   UNL     1       7.095   1.981   5.146  0.00  0.00    +0.001 A 
ATOM     30  C   UNL     1       8.096   1.939   6.102  0.00  0.00    +0.001 A 
ATOM     31  C   UNL     1       9.412   2.182   5.748  0.00  0.00    +0.020 A 
ATOM     32  C   UNL     1       9.737   2.462   4.437  0.00  0.00    +0.048 A 
ATOM     33  C   UNL     1       8.729   2.512   3.466  0.00  0.00    -0.005 A 
ATOM     34  C   UNL     1       7.401   2.265   3.833  0.00  0.00    +0.009 A 
ATOM     35 CL   UNL     1      11.389   2.759   3.993  0.00  0.00    -0.083 Cl
ENDBRANCH  21  33
ENDBRANCH  20  25
ENDBRANCH  19  20
ENDBRANCH   1  19
TORSDOF 8
