REMARK  Name = ZINC05381871
REMARK  5 active torsions:
REMARK  status: ('A' for Active; 'I' for Inactive)
REMARK    1  A    between atoms: C_1  and  C_2
REMARK    2  A    between atoms: C_2  and  C_19
REMARK    3  A    between atoms: N_3  and  N_4
REMARK    4  A    between atoms: C_5  and  C_7
REMARK    5  A    between atoms: C_10  and  C_13
REMARK                            x       y       z     vdW  Elec       q    Type
REMARK                         _______ _______ _______ _____ _____    ______ ____
ROOT
ATOM      1  N   UNL     1       2.267   5.626   0.009  0.00  0.00    -0.203 N 
ATOM      2  C   UNL     1       3.426   6.314   0.002  0.00  0.00    +0.263 C 
ATOM      3  O   UNL     1       4.486   5.718  -0.011  0.00  0.00    -0.268 OA
ATOM      4  H   UNL     1       1.421   6.101   0.019  0.00  0.00    +0.178 HD
ENDROOT
BRANCH   2   5
ATOM      5  C   UNL     1       3.409   7.790   0.009  0.00  0.00    +0.038 A 
ATOM      6  C   UNL     1       2.191   8.475   0.018  0.00  0.00    +0.014 A 
ATOM      7  C   UNL     1       2.176   9.852   0.030  0.00  0.00    +0.009 A 
ATOM      8  C   UNL     1       3.376  10.563   0.022  0.00  0.00    -0.018 A 
ATOM      9  C   UNL     1       4.593   9.880   0.008  0.00  0.00    +0.009 A 
ATOM     10  C   UNL     1       4.610   8.504   0.002  0.00  0.00    +0.014 A 
BRANCH   8  11
ATOM     11  C   UNL     1       3.359  12.046   0.029  0.00  0.00    -0.018 A 
ATOM     12  C   UNL     1       4.556  12.759   0.027  0.00  0.00    +0.008 A 
ATOM     13  C   UNL     1       4.534  14.139   0.028  0.00  0.00    +0.001 A 
ATOM     14  C   UNL     1       3.327  14.814   0.042  0.00  0.00    +0.000 A 
ATOM     15  C   UNL     1       2.135  14.111   0.050  0.00  0.00    +0.001 A 
ATOM     16  C   UNL     1       2.145  12.731   0.044  0.00  0.00    +0.008 A 
ENDBRANCH   8  11
ENDBRANCH   2   5
BRANCH   1  19
ATOM     17  C   UNL     1      -0.147   4.301   0.025  0.00  0.00    +0.068 C 
ATOM     18  C   UNL     1       1.167   3.563   0.009  0.00  0.00    +0.063 C 
ATOM     19  N   UNL     1       2.283   4.225   0.002  0.00  0.00    -0.184 NA
BRANCH  18  20
ATOM     20  C   UNL     1       1.184   2.089   0.002  0.00  0.00    +0.001 A 
ATOM     21  C   UNL     1      -0.017   1.374   0.010  0.00  0.00    +0.013 A 
ATOM     22  C   UNL     1       0.002  -0.004   0.002  0.00  0.00    +0.050 A 
ATOM     23  C   UNL     1       1.210  -0.686  -0.013  0.00  0.00    +0.166 A 
ATOM     24  C   UNL     1       2.412   0.021  -0.021  0.00  0.00    +0.167 A 
ATOM     25  C   UNL     1       2.401   1.403  -0.014  0.00  0.00    +0.059 A 
ATOM     26  O   UNL     1       3.444  -0.874  -0.036  0.00  0.00    -0.453 OA
ATOM     27  C   UNL     1       2.862  -2.124  -0.450  0.00  0.00    +0.466 C 
ATOM     28  O   UNL     1       1.491  -2.022  -0.023  0.00  0.00    -0.453 OA
ENDBRANCH  18  20
ENDBRANCH   1  19
TORSDOF 4
