REMARK  Name = ZINC09963768
REMARK  12 active torsions:
REMARK  status: ('A' for Active; 'I' for Inactive)
REMARK    1  A    between atoms: C_1  and  C_2
REMARK    2  A    between atoms: C_2  and  C_3
REMARK    3  A    between atoms: C_3  and  C_28
REMARK    4  A    between atoms: N_6  and  C_10
REMARK    5  A    between atoms: C_10  and  C_11
REMARK    6  A    between atoms: N_13  and  C_14
REMARK    7  A    between atoms: C_16  and  S_22
REMARK    8  A    between atoms: C_19  and  O_20
REMARK    9  A    between atoms: O_20  and  C_21
REMARK   10  A    between atoms: S_22  and  N_25
REMARK   11  A    between atoms: N_25  and  C_26
REMARK   12  A    between atoms: N_25  and  C_27
REMARK                            x       y       z     vdW  Elec       q    Type
REMARK                         _______ _______ _______ _____ _____    ______ ____
ROOT
ATOM      1  C   UNL     1       4.274   2.690  -5.260  0.00  0.00    +0.214 C 
ENDROOT
BRANCH   1   5
ATOM      2  C   UNL     1       2.083   5.654  -5.713  0.00  0.00    +0.138 C 
ATOM      3  C   UNL     1       3.158   4.892  -4.965  0.00  0.00    +0.251 C 
ATOM      4  O   UNL     1       3.749   5.247  -3.968  0.00  0.00    -0.272 OA
ATOM      5  N   UNL     1       3.321   3.737  -5.639  0.00  0.00    -0.215 N 
ATOM      6  C   UNL     1       2.511   3.666  -6.701  0.00  0.00    +0.310 C 
ATOM      7  O   UNL     1       2.479   2.722  -7.466  0.00  0.00    -0.252 OA
ATOM      8  N   UNL     1       1.732   4.756  -6.827  0.00  0.00    -0.281 N 
ATOM      9  H   UNL     1       1.071   4.920  -7.517  0.00  0.00    +0.152 HD
BRANCH   2  10
ATOM     10  C   UNL     1       0.888   5.895  -4.826  0.00  0.00    -0.015 A 
ATOM     11  C   UNL     1       0.817   7.044  -4.061  0.00  0.00    +0.009 A 
ATOM     12  C   UNL     1      -0.280   7.269  -3.251  0.00  0.00    +0.039 A 
ATOM     13  C   UNL     1      -1.303   6.336  -3.197  0.00  0.00    +0.123 A 
ATOM     14  C   UNL     1      -1.227   5.183  -3.959  0.00  0.00    +0.039 A 
ATOM     15  C   UNL     1      -0.132   4.964  -4.773  0.00  0.00    +0.009 A 
ATOM     16  F   UNL     1      -2.373   6.551  -2.401  0.00  0.00    -0.205 F 
ENDBRANCH   2  10
BRANCH   2  18
ATOM     17  C   UNL     1       3.727   6.701  -7.276  0.00  0.00    +0.007 C 
ATOM     18  C   UNL     1       2.633   6.980  -6.243  0.00  0.00    +0.037 C 
ENDBRANCH   2  18
ENDBRANCH   1   5
BRANCH   1  19
ATOM     19  C   UNL     1       3.605   1.718  -4.322  0.00  0.00    +0.235 C 
ATOM     20  O   UNL     1       2.447   1.884  -4.002  0.00  0.00    -0.274 OA
ATOM     21  N   UNL     1       4.294   0.665  -3.839  0.00  0.00    -0.281 N 
ATOM     22  H   UNL     1       5.237   0.568  -4.043  0.00  0.00    +0.155 HD
BRANCH  21  23
ATOM     23  C   UNL     1       3.647  -0.289  -3.042  0.00  0.00    +0.077 A 
ATOM     24  C   UNL     1       2.638   0.100  -2.173  0.00  0.00    +0.055 A 
ATOM     25  C   UNL     1       2.005  -0.843  -1.384  0.00  0.00    +0.107 A 
ATOM     26  C   UNL     1       2.368  -2.174  -1.466  0.00  0.00    +0.032 A 
ATOM     27  C   UNL     1       3.370  -2.570  -2.334  0.00  0.00    +0.049 A 
ATOM     28  C   UNL     1       4.012  -1.631  -3.124  0.00  0.00    +0.141 A 
BRANCH  25  29
ATOM     29  S   UNL     1       0.728  -0.347  -0.276  0.00  0.00    +0.060 S 
ATOM     30  O   UNL     1      -0.083  -1.492  -0.052  0.00  0.00    -0.153 OA
ATOM     31  O   UNL     1       0.202   0.872  -0.783  0.00  0.00    -0.153 OA
BRANCH  29  32
ATOM     32  N   UNL     1       1.448   0.014   1.171  0.00  0.00    -0.183 NA
ATOM     33  C   UNL     1       1.911   1.378   1.439  0.00  0.00    +0.131 C 
ATOM     34  C   UNL     1       1.622  -1.031   2.183  0.00  0.00    +0.131 C 
ENDBRANCH  29  32
ENDBRANCH  25  29
BRANCH  28  35
ATOM     35  O   UNL     1       4.997  -2.018  -3.979  0.00  0.00    -0.493 OA
ATOM     36  C   UNL     1       5.318  -3.410  -4.010  0.00  0.00    +0.277 C 
ENDBRANCH  28  35
ENDBRANCH  21  23
ENDBRANCH   1  19
TORSDOF 8
