REMARK  Name = ZINC58482231
REMARK  9 active torsions:
REMARK  status: ('A' for Active; 'I' for Inactive)
REMARK    1  A    between atoms: C_1  and  C_2
REMARK    2  A    between atoms: C_5  and  N_8
REMARK    3  A    between atoms: N_8  and  C_9
REMARK    4  A    between atoms: N_8  and  C_10
REMARK    5  A    between atoms: C_13  and  C_19
REMARK    6  A    between atoms: C_15  and  N_16
REMARK    7  A    between atoms: N_21  and  C_22
REMARK    8  A    between atoms: C_22  and  C_23
REMARK    9  A    between atoms: C_22  and  C_24
REMARK                            x       y       z     vdW  Elec       q    Type
REMARK                         _______ _______ _______ _____ _____    ______ ____
ROOT
ATOM      1  C   UNL     1      -1.945  -3.038   3.292  0.00  0.00    +0.060 A 
ATOM      2  C   UNL     1      -1.252  -3.499   4.407  0.00  0.00    +0.026 A 
ATOM      3  C   UNL     1      -1.855  -4.374   5.281  0.00  0.00    +0.015 A 
ATOM      4  C   UNL     1      -3.166  -4.800   5.047  0.00  0.00    +0.039 A 
ATOM      5  C   UNL     1      -3.860  -4.335   3.926  0.00  0.00    +0.047 A 
ATOM      6  C   UNL     1      -3.252  -3.456   3.059  0.00  0.00    +0.148 A 
ENDROOT
BRANCH   4   7
ATOM      7  C   UNL     1      -3.816  -5.738   5.982  0.00  0.00    +0.244 C 
ATOM      8  O   UNL     1      -4.957  -6.108   5.777  0.00  0.00    -0.270 OA
ATOM      9  N   UNL     1      -3.146  -6.186   7.062  0.00  0.00    -0.309 N 
ATOM     10  H   UNL     1      -2.237  -5.891   7.225  0.00  0.00    +0.149 HD
BRANCH   9  11
ATOM     11  C   UNL     1      -3.792  -7.118   7.990  0.00  0.00    +0.067 C 
ATOM     12  C   UNL     1      -3.624  -8.549   7.475  0.00  0.00    +0.027 C 
ATOM     13  C   UNL     1      -3.144  -6.993   9.371  0.00  0.00    +0.027 C 
ENDBRANCH   9  11
ENDBRANCH   4   7
BRANCH   6  14
ATOM     14  N   UNL     1      -3.988  -2.958   1.875  0.00  0.00    +0.058 N 
ATOM     15  O   UNL     1      -5.076  -3.412   1.604  0.00  0.00    -0.126 OA
ATOM     16  O   UNL     1      -3.501  -2.099   1.177  0.00  0.00    -0.126 OA
ENDBRANCH   6  14
BRANCH   1  17
ATOM     17  N   UNL     1      -1.332  -2.153   2.411  0.00  0.00    -0.328 N 
ATOM     18  C   UNL     1      -1.030  -0.785   2.839  0.00  0.00    +0.129 C 
BRANCH  17  23
ATOM     19  C   UNL     1       2.134  -5.119   2.659  0.00  0.00    +0.007 C 
ATOM     20  C   UNL     1       1.212  -4.428   1.652  0.00  0.00    -0.014 C 
ATOM     21  C   UNL     1       1.386  -2.911   1.759  0.00  0.00    +0.005 C 
ATOM     22  C   UNL     1       0.464  -2.220   0.753  0.00  0.00    +0.022 C 
ATOM     23  C   UNL     1      -0.990  -2.589   1.055  0.00  0.00    +0.073 C 
ATOM     24  C   UNL     1      -1.163  -4.106   0.948  0.00  0.00    +0.022 C 
ATOM     25  C   UNL     1      -0.241  -4.797   1.954  0.00  0.00    +0.005 C 
ENDBRANCH  17  23
ENDBRANCH   1  17
TORSDOF 5
