REMARK  Name = ZINC39597835
REMARK  8 active torsions:
REMARK  status: ('A' for Active; 'I' for Inactive)
REMARK    1  A    between atoms: C_1  and  C_2
REMARK    2  A    between atoms: C_4  and  C_7
REMARK    3  A    between atoms: C_9  and  C_14
REMARK    4  A    between atoms: C_10  and  C_13
REMARK    5  A    between atoms: C_18  and  C_27
REMARK    6  A    between atoms: N_29  and  C_30
REMARK    7  A    between atoms: C_30  and  C_31
REMARK    8  A    between atoms: C_31  and  C_32
REMARK                            x       y       z     vdW  Elec       q    Type
REMARK                         _______ _______ _______ _____ _____    ______ ____
ROOT
ATOM      1  C   UNL     1       0.616  -5.949  -1.698  0.00  0.00    +0.247 C 
ATOM      2  O   UNL     1       1.049  -6.746  -2.512  0.00  0.00    -0.270 OA
ATOM      3  N   UNL     1       1.376  -5.576  -0.650  0.00  0.00    -0.296 N 
ATOM      4  C   UNL     1       0.988  -4.717   0.493  0.00  0.00    +0.121 C 
ATOM      5  C   UNL     1       1.662  -5.371   1.720  0.00  0.00    +0.100 C 
ATOM      6  C   UNL     1       2.844  -6.165   1.141  0.00  0.00    -0.004 C 
ATOM      7  C   UNL     1       2.788  -5.937  -0.377  0.00  0.00    +0.115 C 
ATOM      8  C   UNL     1       2.686  -7.651   1.451  0.00  0.00    -0.010 C 
ATOM      9  C   UNL     1       3.901  -8.412   0.915  0.00  0.00    -0.082 C 
ATOM     10  N   UNL     1       5.123  -7.889   1.539  0.00  0.00    +0.379 N 
ATOM     11  C   UNL     1       5.317  -6.484   1.160  0.00  0.00    -0.082 C 
ATOM     12  C   UNL     1       4.161  -5.641   1.706  0.00  0.00    -0.010 C 
ATOM     13  H   UNL     1       5.042  -7.957   2.543  0.00  0.00    -0.086 HD
ATOM     14  H   UNL     1       5.915  -8.432   1.231  0.00  0.00    -0.086 HD
ENDROOT
BRANCH   1  16
ATOM     15  C   UNL     1      -1.057  -4.162  -2.613  0.00  0.00    +0.237 C 
ATOM     16  C   UNL     1      -0.685  -5.417  -1.854  0.00  0.00    +0.072 C 
ATOM     17  C   UNL     1      -1.825  -5.930  -1.355  0.00  0.00    +0.047 C 
ATOM     18  N   UNL     1      -2.895  -5.163  -1.696  0.00  0.00    -0.269 N 
ATOM     19  O   UNL     1      -2.481  -4.053  -2.475  0.00  0.00    -0.260 OA
ATOM     20  C   UNL     1      -1.905  -7.188  -0.528  0.00  0.00    +0.066 C 
ATOM     21  H   UNL     1      -3.812  -5.349  -1.442  0.00  0.00    +0.194 HD
BRANCH  15  25
ATOM     22  C   UNL     1      -1.383  -4.320  -7.695  0.00  0.00    +0.089 C 
ATOM     23  C   UNL     1      -0.843  -4.363  -6.289  0.00  0.00    +0.135 A 
ATOM     24  C   UNL     1      -1.555  -4.177  -5.161  0.00  0.00    +0.073 A 
ATOM     25  C   UNL     1      -0.680  -4.298  -4.066  0.00  0.00    +0.120 A 
ATOM     26  N   UNL     1       0.512  -4.547  -4.527  0.00  0.00    -0.080 NA
ATOM     27  O   UNL     1       0.431  -4.598  -5.941  0.00  0.00    -0.360 OA
ENDBRANCH  15  25
ENDBRANCH   1  16
BRANCH   5  28
ATOM     28  C   UNL     1       0.697  -6.295   2.418  0.00  0.00    +0.218 C 
ATOM     29  O   UNL     1      -0.104  -6.936   1.771  0.00  0.00    -0.275 OA
ATOM     30  N   UNL     1       0.725  -6.409   3.761  0.00  0.00    -0.315 N 
ATOM     31  H   UNL     1       1.365  -5.896   4.278  0.00  0.00    +0.149 HD
BRANCH  30  32
ATOM     32  C   UNL     1      -0.213  -7.307   4.439  0.00  0.00    +0.109 C 
BRANCH  32  33
ATOM     33  C   UNL     1       0.028  -7.250   5.949  0.00  0.00    +0.056 C 
BRANCH  33  34
ATOM     34  C   UNL     1      -0.936  -8.174   6.647  0.00  0.00    -0.021 A 
ATOM     35  C   UNL     1      -0.760  -9.611   6.870  0.00  0.00    +0.003 A 
ATOM     36  C   UNL     1       0.246 -10.526   6.552  0.00  0.00    +0.010 A 
ATOM     37  C   UNL     1       0.107 -11.837   6.910  0.00  0.00    +0.001 A 
ATOM     38  C   UNL     1      -1.026 -12.268   7.587  0.00  0.00    +0.002 A 
ATOM     39  C   UNL     1      -2.030 -11.382   7.910  0.00  0.00    +0.026 A 
ATOM     40  C   UNL     1      -1.910 -10.042   7.556  0.00  0.00    +0.047 A 
ATOM     41  N   UNL     1      -2.716  -8.940   7.730  0.00  0.00    -0.360 N 
ATOM     42  C   UNL     1      -2.118  -7.835   7.187  0.00  0.00    +0.087 A 
ATOM     43  H   UNL     1      -3.578  -8.944   8.174  0.00  0.00    +0.165 HD
ENDBRANCH  33  34
ENDBRANCH  32  33
ENDBRANCH  30  32
ENDBRANCH   5  28
TORSDOF 6
