REMARK  Name = ZINC12362355
REMARK  9 active torsions:
REMARK  status: ('A' for Active; 'I' for Inactive)
REMARK    1  A    between atoms: C_1  and  C_2
REMARK    2  A    between atoms: C_2  and  C_19
REMARK    3  A    between atoms: N_3  and  N_4
REMARK    4  A    between atoms: C_5  and  C_7
REMARK    5  A    between atoms: C_7  and  S_8
REMARK    6  A    between atoms: S_8  and  C_9
REMARK    7  A    between atoms: C_9  and  C_10
REMARK    8  A    between atoms: C_13  and  N_16
REMARK    9  A    between atoms: C_23  and  N_25
REMARK                            x       y       z     vdW  Elec       q    Type
REMARK                         _______ _______ _______ _____ _____    ______ ____
ROOT
ATOM      1  N   UNL     1       1.258  -6.559  -3.064  0.00  0.00    -0.206 N 
ATOM      2  C   UNL     1       1.241  -5.218  -2.939  0.00  0.00    +0.242 C 
ATOM      3  O   UNL     1       1.222  -4.516  -3.928  0.00  0.00    -0.273 OA
ATOM      4  H   UNL     1       1.274  -7.120  -2.273  0.00  0.00    +0.177 HD
ENDROOT
BRANCH   1   7
ATOM      5  C   UNL     1       1.294  -9.307  -3.228  0.00  0.00    +0.068 C 
ATOM      6  C   UNL     1       1.270  -8.436  -4.458  0.00  0.00    +0.063 C 
ATOM      7  N   UNL     1       1.254  -7.144  -4.337  0.00  0.00    -0.185 NA
BRANCH   6   8
ATOM      8  C   UNL     1       1.265  -9.052  -5.798  0.00  0.00    -0.000 A 
ATOM      9  C   UNL     1       1.289 -10.442  -5.932  0.00  0.00    +0.010 A 
ATOM     10  C   UNL     1       1.278 -11.011  -7.188  0.00  0.00    +0.003 A 
ATOM     11  C   UNL     1       1.256 -10.208  -8.315  0.00  0.00    +0.033 A 
ATOM     12  C   UNL     1       1.238  -8.830  -8.190  0.00  0.00    +0.127 A 
ATOM     13  C   UNL     1       1.243  -8.247  -6.939  0.00  0.00    +0.042 A 
BRANCH  12  14
ATOM     14  N   UNL     1       1.215  -7.979  -9.401  0.00  0.00    +0.056 N 
ATOM     15  O   UNL     1       1.200  -6.766  -9.293  0.00  0.00    -0.126 OA
ATOM     16  O   UNL     1       1.211  -8.492 -10.506  0.00  0.00    -0.126 OA
ENDBRANCH  12  14
ENDBRANCH   6   8
ENDBRANCH   1   7
BRANCH   2  17
ATOM     17  C   UNL     1       1.246  -4.589  -1.569  0.00  0.00    +0.166 C 
BRANCH  17  18
ATOM     18  S   UNL     1       1.220  -2.782  -1.734  0.00  0.00    -0.147 S 
BRANCH  18  19
ATOM     19  C   UNL     1       1.229  -2.186  -0.021  0.00  0.00    +0.104 C 
BRANCH  19  20
ATOM     20  C   UNL     1       1.208  -0.679  -0.013  0.00  0.00    -0.037 A 
ATOM     21  C   UNL     1       0.002  -0.004   0.002  0.00  0.00    +0.006 A 
ATOM     22  C   UNL     1      -0.017   1.378   0.010  0.00  0.00    +0.033 A 
ATOM     23  C   UNL     1       1.171   2.086   0.002  0.00  0.00    +0.126 A 
ATOM     24  C   UNL     1       2.377   1.411  -0.015  0.00  0.00    +0.033 A 
ATOM     25  C   UNL     1       2.396   0.029  -0.021  0.00  0.00    +0.006 A 
BRANCH  23  26
ATOM     26  N   UNL     1       1.151   3.566   0.010  0.00  0.00    +0.056 N 
ATOM     27  O   UNL     1       0.088   4.160   0.023  0.00  0.00    -0.126 OA
ATOM     28  O   UNL     1       2.197   4.189   0.003  0.00  0.00    -0.126 OA
ENDBRANCH  23  26
ENDBRANCH  19  20
ENDBRANCH  18  19
ENDBRANCH  17  18
ENDBRANCH   2  17
TORSDOF 8
