REMARK  Name = ZINC55893918
REMARK  5 active torsions:
REMARK  status: ('A' for Active; 'I' for Inactive)
REMARK    1  A    between atoms: C_1  and  C_2
REMARK    2  A    between atoms: C_8  and  N_10
REMARK    3  A    between atoms: C_14  and  C_16
REMARK    4  A    between atoms: C_16  and  N_17
REMARK    5  A    between atoms: N_17  and  C_18
REMARK                            x       y       z     vdW  Elec       q    Type
REMARK                         _______ _______ _______ _____ _____    ______ ____
ROOT
ATOM      1  N   UNL     1       2.116  -0.004   1.231  0.00  0.00    -0.296 N 
ATOM      2  C   UNL     1       2.795   0.128   2.388  0.00  0.00    +0.306 C 
ATOM      3  O   UNL     1       2.267  -0.174   3.440  0.00  0.00    -0.252 OA
ATOM      4  N   UNL     1       4.059   0.594   2.379  0.00  0.00    -0.239 N 
ATOM      5  C   UNL     1       4.738   0.726   3.536  0.00  0.00    +0.237 C 
ATOM      6  O   UNL     1       4.211   0.424   4.585  0.00  0.00    -0.274 OA
ATOM      7  H   UNL     1       2.538   0.237   0.392  0.00  0.00    +0.151 HD
ATOM      8  H   UNL     1       4.481   0.835   1.539  0.00  0.00    +0.159 HD
ENDROOT
BRANCH   1  15
ATOM      9  C   UNL     1      -0.019   1.526   0.010  0.00  0.00    +0.009 C 
ATOM     10  C   UNL     1       0.002  -0.004   0.002  0.00  0.00    +0.006 C 
ATOM     11  C   UNL     1      -1.433  -0.534   0.013  0.00  0.00    +0.005 C 
ATOM     12  C   UNL     1      -1.413  -2.063   0.004  0.00  0.00    +0.000 C 
ATOM     13  C   UNL     1      -0.673  -2.570   1.244  0.00  0.00    +0.002 C 
ATOM     14  C   UNL     1       0.763  -2.041   1.233  0.00  0.00    +0.022 C 
ATOM     15  C   UNL     1       0.742  -0.511   1.242  0.00  0.00    +0.077 C 
ENDBRANCH   1  15
BRANCH   5  16
ATOM     16  C   UNL     1       6.152   1.247   3.525  0.00  0.00    +0.198 C 
BRANCH  16  17
ATOM     17  N   UNL     1       6.665   1.296   4.896  0.00  0.00    -0.332 N 
ATOM     18  H   UNL     1       6.103   1.014   5.635  0.00  0.00    +0.147 HD
BRANCH  17  19
ATOM     19  C   UNL     1       7.966   1.750   5.141  0.00  0.00    +0.073 A 
ATOM     20  C   UNL     1       8.769   2.160   4.086  0.00  0.00    +0.027 A 
ATOM     21  C   UNL     1      10.054   2.607   4.327  0.00  0.00    +0.006 A 
ATOM     22  C   UNL     1      10.544   2.648   5.619  0.00  0.00    +0.049 A 
ATOM     23  C   UNL     1       9.748   2.240   6.681  0.00  0.00    +0.164 A 
ATOM     24  C   UNL     1       8.454   1.797   6.445  0.00  0.00    +0.183 A 
ATOM     25  O   UNL     1       7.652   1.404   7.473  0.00  0.00    -0.483 OA
ATOM     26  C   UNL     1       8.298   1.112   8.717  0.00  0.00    +0.270 C 
ATOM     27  C   UNL     1       9.295   2.240   9.017  0.00  0.00    +0.270 C 
ATOM     28  O   UNL     1      10.249   2.283   7.946  0.00  0.00    -0.485 OA
ENDBRANCH  17  19
ENDBRANCH  16  17
ENDBRANCH   5  16
TORSDOF 4
