REMARK  Name = ZINC40657991
REMARK  5 active torsions:
REMARK  status: ('A' for Active; 'I' for Inactive)
REMARK    1  A    between atoms: C_6  and  C_7
REMARK    2  A    between atoms: N_9  and  N_10
REMARK    3  A    between atoms: C_12  and  N_30
REMARK    4  A    between atoms: C_13  and  N_17
REMARK    5  A    between atoms: N_20  and  C_23
REMARK                            x       y       z     vdW  Elec       q    Type
REMARK                         _______ _______ _______ _____ _____    ______ ____
ROOT
ATOM      1  N   UNL     1      -2.486  -2.845   0.063  0.00  0.00    -0.246 N 
ATOM      2  C   UNL     1      -2.449  -4.230   0.038  0.00  0.00    +0.171 A 
ATOM      3  C   UNL     1      -3.629  -4.968   0.040  0.00  0.00    +0.207 A 
ATOM      4  C   UNL     1      -3.538  -6.356   0.015  0.00  0.00    +0.157 A 
ATOM      5  N   UNL     1      -2.333  -6.925  -0.009  0.00  0.00    -0.218 NA
ATOM      6  C   UNL     1      -1.239  -6.191  -0.010  0.00  0.00    +0.225 A 
ATOM      7  N   UNL     1      -1.284  -4.874   0.007  0.00  0.00    -0.217 NA
ATOM      8  H   UNL     1      -3.339  -2.382   0.085  0.00  0.00    +0.172 HD
ENDROOT
BRANCH   4   9
ATOM      9  N   UNL     1      -4.684  -7.136   0.016  0.00  0.00    -0.310 N 
ATOM     10  C   UNL     1      -5.253  -7.630  -1.245  0.00  0.00    +0.125 C 
ATOM     11  C   UNL     1      -5.379  -9.157  -1.162  0.00  0.00    +0.124 C 
ATOM     12  N   UNL     1      -6.045  -9.505   0.101  0.00  0.00    -0.327 N 
ATOM     13  C   UNL     1      -5.475  -9.011   1.362  0.00  0.00    +0.124 C 
ATOM     14  C   UNL     1      -5.347  -7.489   1.279  0.00  0.00    +0.125 C 
BRANCH  12  15
ATOM     15  C   UNL     1      -7.201 -10.292   0.102  0.00  0.00    +0.030 A 
ATOM     16  C   UNL     1      -7.893 -10.509   1.286  0.00  0.00    +0.026 A 
ATOM     17  C   UNL     1      -9.035 -11.286   1.285  0.00  0.00    +0.040 A 
ATOM     18  C   UNL     1      -9.489 -11.849   0.104  0.00  0.00    +0.124 A 
ATOM     19  C   UNL     1      -8.801 -11.633  -1.077  0.00  0.00    +0.040 A 
ATOM     20  C   UNL     1      -7.662 -10.853  -1.082  0.00  0.00    +0.026 A 
ATOM     21  F   UNL     1     -10.606 -12.609   0.105  0.00  0.00    -0.205 F 
ENDBRANCH  12  15
ENDBRANCH   4   9
BRANCH   1  24
ATOM     22  C   UNL     1      -1.328  -0.764   0.079  0.00  0.00    +0.260 C 
ATOM     23  O   UNL     1      -2.397  -0.185   0.107  0.00  0.00    -0.269 OA
ATOM     24  N   UNL     1      -1.292  -2.111   0.055  0.00  0.00    -0.231 N 
ATOM     25  H   UNL     1      -0.439  -2.573   0.032  0.00  0.00    +0.173 HD
BRANCH  22  31
ATOM     26  C   UNL     1      -0.104   1.404   0.095  0.00  0.00    +0.016 A 
ATOM     27  C   UNL     1       1.074   2.121   0.087  0.00  0.00    +0.039 A 
ATOM     28  C   UNL     1       2.291   1.458   0.055  0.00  0.00    +0.123 A 
ATOM     29  C   UNL     1       2.331   0.072   0.030  0.00  0.00    +0.039 A 
ATOM     30  C   UNL     1       1.160  -0.654   0.037  0.00  0.00    +0.016 A 
ATOM     31  C   UNL     1      -0.069   0.009   0.070  0.00  0.00    +0.038 A 
ATOM     32  F   UNL     1       3.442   2.165   0.047  0.00  0.00    -0.205 F 
ENDBRANCH  22  31
ENDBRANCH   1  24
BRANCH   3  33
ATOM     33  N   UNL     1      -4.946  -4.294   0.069  0.00  0.00    +0.063 N 
ATOM     34  O   UNL     1      -5.456  -3.920  -0.962  0.00  0.00    -0.126 OA
ATOM     35  O   UNL     1      -5.512  -4.117   1.122  0.00  0.00    -0.126 OA
ENDBRANCH   3  33
TORSDOF 5
