REMARK  Name = ZINC35099337
REMARK  6 active torsions:
REMARK  status: ('A' for Active; 'I' for Inactive)
REMARK    1  A    between atoms: C_1  and  C_2
REMARK    2  A    between atoms: C_5  and  C_8
REMARK    3  A    between atoms: C_8  and  O_32
REMARK    4  A    between atoms: C_9  and  C_26
REMARK    5  A    between atoms: C_11  and  C_17
REMARK    6  A    between atoms: C_26  and  C_28
REMARK                            x       y       z     vdW  Elec       q    Type
REMARK                         _______ _______ _______ _____ _____    ______ ____
ROOT
ATOM      1  C   UNL     1      -0.035  -4.420   0.199  0.00  0.00    +0.172 C 
ATOM      2  C   UNL     1       1.449  -4.769   0.353  0.00  0.00    +0.144 C 
ATOM      3  C   UNL     1       1.636  -6.256   0.032  0.00  0.00    +0.120 C 
ATOM      4  N   UNL     1       1.101  -6.530  -1.302  0.00  0.00    -0.292 N 
ATOM      5  C   UNL     1       0.092  -5.808  -1.812  0.00  0.00    +0.302 C 
ATOM      6  O   UNL     1      -0.322  -6.084  -2.921  0.00  0.00    -0.253 OA
ATOM      7  N   UNL     1      -0.479  -4.794  -1.145  0.00  0.00    -0.267 N 
ATOM      8  H   UNL     1       1.484  -7.249  -1.830  0.00  0.00    +0.151 HD
ATOM      9  H   UNL     1      -1.201  -4.298  -1.562  0.00  0.00    +0.153 HD
ENDROOT
BRANCH   3  10
ATOM     10  C   UNL     1       3.103  -6.598   0.069  0.00  0.00    -0.023 A 
ATOM     11  C   UNL     1       3.885  -6.404  -1.055  0.00  0.00    +0.009 A 
ATOM     12  C   UNL     1       5.231  -6.716  -1.027  0.00  0.00    +0.050 A 
ATOM     13  C   UNL     1       5.801  -7.225   0.129  0.00  0.00    +0.166 A 
ATOM     14  C   UNL     1       5.013  -7.421   1.261  0.00  0.00    +0.167 A 
ATOM     15  C   UNL     1       3.666  -7.101   1.227  0.00  0.00    +0.055 A 
ATOM     16  O   UNL     1       5.798  -7.926   2.257  0.00  0.00    -0.453 OA
ATOM     17  C   UNL     1       6.981  -8.419   1.601  0.00  0.00    +0.466 C 
ATOM     18  O   UNL     1       7.079  -7.607   0.416  0.00  0.00    -0.453 OA
ENDBRANCH   3  10
BRANCH   1  23
ATOM     19  C   UNL     1      -0.775   1.260   0.966  0.00  0.00    +0.044 C 
ATOM     20  C   UNL     1      -0.582  -0.222   0.766  0.00  0.00    -0.050 A 
ATOM     21  C   UNL     1      -0.425  -0.732  -0.509  0.00  0.00    +0.004 A 
ATOM     22  C   UNL     1      -0.248  -2.091  -0.693  0.00  0.00    +0.008 A 
ATOM     23  C   UNL     1      -0.228  -2.939   0.399  0.00  0.00    +0.003 A 
ATOM     24  C   UNL     1      -0.384  -2.428   1.674  0.00  0.00    +0.008 A 
ATOM     25  C   UNL     1      -0.557  -1.069   1.857  0.00  0.00    +0.004 A 
ENDBRANCH   1  23
BRANCH   2  26
ATOM     26  C   UNL     1       2.267  -3.935  -0.599  0.00  0.00    +0.245 C 
ATOM     27  O   UNL     1       2.066  -4.005  -1.787  0.00  0.00    -0.287 OA
BRANCH  26  28
ATOM     28  C   UNL     1       3.335  -3.015  -0.067  0.00  0.00    +0.451 C 
ATOM     29  F   UNL     1       3.878  -2.273  -1.121  0.00  0.00    -0.163 F 
ATOM     30  F   UNL     1       2.775  -2.146   0.876  0.00  0.00    -0.163 F 
ATOM     31  F   UNL     1       4.344  -3.772   0.538  0.00  0.00    -0.163 F 
ENDBRANCH  26  28
ENDBRANCH   2  26
BRANCH   1  32
ATOM     32  O   UNL     1      -0.800  -5.136   1.171  0.00  0.00    -0.367 OA
ATOM     33  H   UNL     1      -1.750  -4.964   1.128  0.00  0.00    +0.212 HD
ENDBRANCH   1  32
TORSDOF 5
