REMARK  Name = ZINC66249413
REMARK  6 active torsions:
REMARK  status: ('A' for Active; 'I' for Inactive)
REMARK    1  A    between atoms: C_1  and  C_2
REMARK    2  A    between atoms: N_5  and  C_8
REMARK    3  A    between atoms: C_8  and  C_9
REMARK    4  A    between atoms: N_14  and  S_15
REMARK    5  A    between atoms: S_15  and  C_18
REMARK    6  A    between atoms: N_20  and  C_23
REMARK                            x       y       z     vdW  Elec       q    Type
REMARK                         _______ _______ _______ _____ _____    ______ ____
ROOT
ATOM      1  C   UNL     1      -0.034  -4.388   2.671  0.00  0.00    +0.008 A 
ATOM      2  C   UNL     1      -0.690  -5.075   3.606  0.00  0.00    +0.068 A 
ATOM      3  S   UNL     1       0.576  -5.334   4.838  0.00  0.00    -0.057 S 
ATOM      4  C   UNL     1       1.909  -4.491   4.000  0.00  0.00    +0.192 A 
ATOM      5  N   UNL     1       1.284  -4.082   2.841  0.00  0.00    -0.338 N 
ATOM      6  N   UNL     1       3.150  -4.314   4.381  0.00  0.00    -0.102 NA
ATOM      7  H   UNL     1       1.770  -3.586   2.164  0.00  0.00    +0.167 HD
ENDROOT
BRANCH   6   8
ATOM      8  S   UNL     1       3.664  -4.918   5.835  0.00  0.00    +0.118 S 
ATOM      9  O   UNL     1       2.962  -4.202   6.843  0.00  0.00    -0.145 OA
ATOM     10  O   UNL     1       3.610  -6.334   5.729  0.00  0.00    -0.145 OA
BRANCH   8  11
ATOM     11  C   UNL     1       5.365  -4.490   6.005  0.00  0.00    +0.197 A 
ATOM     12  C   UNL     1       6.412  -5.228   5.590  0.00  0.00    +0.134 A 
ATOM     13  N   UNL     1       7.543  -4.529   5.917  0.00  0.00    -0.340 N 
ATOM     14  C   UNL     1       7.147  -3.389   6.522  0.00  0.00    +0.175 A 
ATOM     15  N   UNL     1       5.843  -3.369   6.567  0.00  0.00    -0.330 N 
ATOM     16  C   UNL     1       8.924  -4.943   5.659  0.00  0.00    +0.150 C 
ATOM     17  H   UNL     1       5.305  -2.658   6.948  0.00  0.00    +0.168 HD
ENDBRANCH   8  11
ENDBRANCH   6   8
BRANCH   1  18
ATOM     18  C   UNL     1      -0.750  -3.952   1.419  0.00  0.00    -0.024 C 
BRANCH  18  23
ATOM     19  C   UNL     1      -2.194   1.558   1.146  0.00  0.00    +0.007 C 
ATOM     20  C   UNL     1      -2.248   0.029   1.167  0.00  0.00    -0.018 C 
ATOM     21  C   UNL     1      -1.696  -0.484   2.499  0.00  0.00    -0.016 C 
ATOM     22  C   UNL     1      -1.678  -2.014   2.482  0.00  0.00    -0.078 C 
ATOM     23  N   UNL     1      -0.826  -2.485   1.383  0.00  0.00    +0.383 N 
ATOM     24  C   UNL     1      -1.389  -2.057   0.097  0.00  0.00    -0.078 C 
ATOM     25  C   UNL     1      -1.396  -0.528   0.023  0.00  0.00    -0.016 C 
ATOM     26  H   UNL     1       0.100  -2.100   1.489  0.00  0.00    -0.081 HD
ENDBRANCH  18  23
ENDBRANCH   1  18
TORSDOF 4
