REMARK  Name = ZINC34831550
REMARK  11 active torsions:
REMARK  status: ('A' for Active; 'I' for Inactive)
REMARK    1  A    between atoms: C_1  and  N_2
REMARK    2  A    between atoms: N_2  and  C_3
REMARK    3  A    between atoms: N_2  and  C_4
REMARK    4  A    between atoms: C_4  and  C_5
REMARK    5  A    between atoms: C_5  and  N_6
REMARK    6  A    between atoms: N_6  and  C_7
REMARK    7  A    between atoms: C_7  and  C_8
REMARK    8  A    between atoms: C_14  and  C_16
REMARK    9  A    between atoms: C_16  and  N_17
REMARK   10  A    between atoms: C_23  and  C_25
REMARK   11  A    between atoms: N_30  and  C_31
REMARK                            x       y       z     vdW  Elec       q    Type
REMARK                         _______ _______ _______ _____ _____    ______ ____
ROOT
ATOM      1  N   UNL     1      -3.441  -2.687   3.463  0.00  0.00    -0.291 NA
ATOM      2  C   UNL     1      -4.785  -2.124   3.651  0.00  0.00    +0.104 C 
ATOM      3  C   UNL     1      -5.547  -2.963   4.682  0.00  0.00    +0.123 C 
ATOM      4  N   UNL     1      -4.734  -3.054   5.904  0.00  0.00    -0.294 N 
ATOM      5  C   UNL     1      -3.332  -3.480   5.778  0.00  0.00    +0.123 C 
ATOM      6  C   UNL     1      -2.657  -2.620   4.704  0.00  0.00    +0.104 C 
ATOM      7  C   UNL     1      -5.260  -2.754   7.109  0.00  0.00    +0.266 C 
ATOM      8  O   UNL     1      -6.361  -2.241   7.181  0.00  0.00    -0.268 OA
ENDROOT
BRANCH   7   9
ATOM      9  C   UNL     1      -4.502  -3.046   8.336  0.00  0.00    +0.135 A 
ATOM     10  C   UNL     1      -4.948  -2.596   9.553  0.00  0.00    +0.081 A 
ATOM     11  S   UNL     1      -3.671  -3.230  10.632  0.00  0.00    -0.060 S 
ATOM     12  C   UNL     1      -2.682  -4.023   9.372  0.00  0.00    +0.163 A 
ATOM     13  N   UNL     1      -3.374  -3.758   8.282  0.00  0.00    -0.220 NA
ATOM     14  N   UNL     1      -1.501  -4.734   9.506  0.00  0.00    -0.291 N 
ATOM     15  H   UNL     1      -1.003  -5.001   8.717  0.00  0.00    +0.154 HD
BRANCH  14  16
ATOM     16  C   UNL     1      -1.026  -5.068  10.779  0.00  0.00    +0.068 A 
ATOM     17  C   UNL     1      -1.908  -5.170  11.846  0.00  0.00    +0.026 A 
ATOM     18  C   UNL     1      -1.436  -5.501  13.101  0.00  0.00    +0.002 A 
ATOM     19  C   UNL     1      -0.087  -5.729  13.297  0.00  0.00    +0.003 A 
ATOM     20  C   UNL     1       0.796  -5.628  12.238  0.00  0.00    +0.040 A 
ATOM     21  C   UNL     1       0.331  -5.304  10.977  0.00  0.00    +0.144 A 
ATOM     22  F   UNL     1       1.192  -5.210   9.941  0.00  0.00    -0.204 F 
ENDBRANCH  14  16
ENDBRANCH   7   9
BRANCH   1  23
ATOM     23  C   UNL     1      -2.739  -2.018   2.360  0.00  0.00    +0.180 C 
BRANCH  23  25
ATOM     24  N   UNL     1      -2.976  -1.802  -0.093  0.00  0.00    -0.298 N 
ATOM     25  C   UNL     1      -3.445  -2.314   1.062  0.00  0.00    +0.230 C 
ATOM     26  O   UNL     1      -4.435  -3.015   1.056  0.00  0.00    -0.274 OA
BRANCH  24  27
ATOM     27  C   UNL     1      -1.779  -0.956  -0.086  0.00  0.00    +0.089 C 
BRANCH  27  28
ATOM     28  C   UNL     1      -2.190   0.506   0.099  0.00  0.00    -0.060 C 
BRANCH  28  30
ATOM     29  C   UNL     1      -1.390   2.767   0.163  0.00  0.00    -0.097 C 
ATOM     30  N   UNL     1      -0.991   1.355   0.106  0.00  0.00    +0.377 N 
ATOM     31  C   UNL     1      -0.168   1.030   1.279  0.00  0.00    -0.097 C 
ATOM     32  H   UNL     1      -0.457   1.190  -0.735  0.00  0.00    -0.083 HD
ENDBRANCH  28  30
ENDBRANCH  27  28
ENDBRANCH  24  27
BRANCH  24  33
ATOM     33  C   UNL     1      -3.662  -2.090  -1.355  0.00  0.00    +0.142 C 
BRANCH  33  34
ATOM     34  C   UNL     1      -3.082  -3.339  -1.967  0.00  0.00    -0.030 A 
ATOM     35  C   UNL     1      -2.008  -3.251  -2.833  0.00  0.00    +0.005 A 
ATOM     36  C   UNL     1      -1.477  -4.396  -3.394  0.00  0.00    +0.000 A 
ATOM     37  C   UNL     1      -2.020  -5.631  -3.091  0.00  0.00    +0.000 A 
ATOM     38  C   UNL     1      -3.093  -5.720  -2.224  0.00  0.00    +0.000 A 
ATOM     39  C   UNL     1      -3.622  -4.574  -1.659  0.00  0.00    +0.005 A 
ENDBRANCH  33  34
ENDBRANCH  24  33
ENDBRANCH  23  25
ENDBRANCH   1  23
TORSDOF 9
