REMARK  Name = ZINC40973956
REMARK  6 active torsions:
REMARK  status: ('A' for Active; 'I' for Inactive)
REMARK    1  A    between atoms: C_1  and  N_2
REMARK    2  A    between atoms: N_2  and  C_3
REMARK    3  A    between atoms: C_8  and  N_11
REMARK    4  A    between atoms: C_13  and  C_22
REMARK    5  A    between atoms: C_14  and  C_16
REMARK    6  A    between atoms: N_31  and  O_32
REMARK                            x       y       z     vdW  Elec       q    Type
REMARK                         _______ _______ _______ _____ _____    ______ ____
ROOT
ATOM      1  N   UNL     1       1.662  -3.954  -2.364  0.00  0.00    -0.267 N 
ATOM      2  C   UNL     1       0.728  -4.839  -2.765  0.00  0.00    +0.117 A 
ATOM      3  C   UNL     1       1.224  -6.092  -2.557  0.00  0.00    +0.027 A 
ATOM      4  C   UNL     1       2.522  -5.950  -2.004  0.00  0.00    +0.100 A 
ATOM      5  N   UNL     1       2.775  -4.664  -1.898  0.00  0.00    -0.170 NA
ENDROOT
BRANCH   3   6
ATOM      6  C   UNL     1       0.533  -7.369  -2.855  0.00  0.00    -0.014 A 
ATOM      7  C   UNL     1       1.188  -8.365  -3.580  0.00  0.00    +0.009 A 
ATOM      8  C   UNL     1       0.546  -9.549  -3.856  0.00  0.00    +0.010 A 
ATOM      9  C   UNL     1      -0.767  -9.762  -3.411  0.00  0.00    +0.003 A 
ATOM     10  C   UNL     1      -1.419  -8.765  -2.687  0.00  0.00    -0.037 A 
ATOM     11  C   UNL     1      -0.770  -7.579  -2.407  0.00  0.00    +0.013 A 
ATOM     12  C   UNL     1      -2.809  -9.228  -2.323  0.00  0.00    +0.042 C 
ATOM     13  C   UNL     1      -2.961 -10.640  -2.905  0.00  0.00    +0.064 C 
ATOM     14  C   UNL     1      -1.646 -10.936  -3.583  0.00  0.00    +0.088 C 
ATOM     15  N   UNL     1      -1.341 -12.028  -4.207  0.00  0.00    -0.092 NA
BRANCH  15  16
ATOM     16  O   UNL     1      -2.286 -13.079  -4.297  0.00  0.00    -0.409 OA
ATOM     17  H   UNL     1      -1.968 -13.853  -4.781  0.00  0.00    +0.328 HD
ENDBRANCH  15  16
ENDBRANCH   3   6
BRANCH   1  22
ATOM     18  C   UNL     1       0.690  -0.478  -1.207  0.00  0.00    -0.070 C 
ATOM     19  C   UNL     1      -0.118  -0.077  -2.443  0.00  0.00    -0.016 C 
ATOM     20  C   UNL     1       0.598  -0.571  -3.702  0.00  0.00    +0.000 C 
ATOM     21  C   UNL     1       0.729  -2.094  -3.650  0.00  0.00    +0.027 C 
ATOM     22  C   UNL     1       1.537  -2.495  -2.414  0.00  0.00    +0.106 C 
ATOM     23  C   UNL     1       0.821  -2.001  -1.155  0.00  0.00    +0.011 C 
BRANCH  18  25
ATOM     24  C   UNL     1      -0.018   1.465   0.010  0.00  0.00    -0.100 C 
ATOM     25  N   UNL     1       0.002  -0.004   0.002  0.00  0.00    +0.379 N 
ATOM     26  H   UNL     1       0.490  -0.338   0.820  0.00  0.00    -0.086 HD
ATOM     27  H   UNL     1      -0.945  -0.353   0.009  0.00  0.00    -0.086 HD
ENDBRANCH  18  25
ENDBRANCH   1  22
BRANCH   4  28
ATOM     28  C   UNL     1       3.433  -7.054  -1.618  0.00  0.00    +0.006 A 
ATOM     29  C   UNL     1       2.931  -8.248  -1.092  0.00  0.00    +0.030 A 
ATOM     30  C   UNL     1       3.814  -9.251  -0.746  0.00  0.00    +0.111 A 
ATOM     31  N   UNL     1       5.114  -9.092  -0.907  0.00  0.00    -0.263 NA
ATOM     32  C   UNL     1       5.628  -7.982  -1.400  0.00  0.00    +0.111 A 
ATOM     33  C   UNL     1       4.817  -6.932  -1.776  0.00  0.00    +0.030 A 
ENDBRANCH   4  28
TORSDOF 5
