REMARK  Name = ZINC65315540
REMARK  5 active torsions:
REMARK  status: ('A' for Active; 'I' for Inactive)
REMARK    1  A    between atoms: C_1  and  N_2
REMARK    2  A    between atoms: C_3  and  C_5
REMARK    3  A    between atoms: N_14  and  C_15
REMARK    4  A    between atoms: C_18  and  N_21
REMARK    5  A    between atoms: N_24  and  C_25
REMARK                            x       y       z     vdW  Elec       q    Type
REMARK                         _______ _______ _______ _____ _____    ______ ____
ROOT
ATOM      1  C   UNL     1       1.909  -6.853   1.348  0.00  0.00    +0.035 A 
ATOM      2  C   UNL     1       3.188  -6.319   1.442  0.00  0.00    +0.025 A 
ATOM      3  C   UNL     1       4.256  -7.136   1.752  0.00  0.00    +0.025 A 
ATOM      4  C   UNL     1       4.053  -8.493   1.968  0.00  0.00    +0.035 A 
ATOM      5  C   UNL     1       2.774  -9.027   1.874  0.00  0.00    +0.025 A 
ATOM      6  C   UNL     1       1.705  -8.208   1.571  0.00  0.00    +0.025 A 
ENDROOT
BRANCH   1  15
ATOM      7  C   UNL     1      -0.901  -2.885  -1.925  0.00  0.00    +0.092 C 
ATOM      8  C   UNL     1      -2.276  -2.959  -1.257  0.00  0.00    +0.016 C 
ATOM      9  C   UNL     1      -2.400  -4.275  -0.486  0.00  0.00    +0.020 C 
ATOM     10  C   UNL     1      -1.328  -4.327   0.606  0.00  0.00    +0.109 C 
ATOM     11  N   UNL     1      -0.012  -4.111  -0.012  0.00  0.00    -0.285 N 
ATOM     12  C   UNL     1       0.189  -2.921  -0.849  0.00  0.00    +0.122 C 
ATOM     13  C   UNL     1       0.991  -4.989   0.186  0.00  0.00    +0.306 C 
ATOM     14  O   UNL     1       2.047  -4.847  -0.401  0.00  0.00    -0.252 OA
ATOM     15  N   UNL     1       0.825  -6.023   1.034  0.00  0.00    -0.269 N 
ATOM     16  H   UNL     1      -0.046  -6.193   1.427  0.00  0.00    +0.156 HD
BRANCH   7  19
ATOM     17  C   UNL     1       0.447  -0.074  -4.148  0.00  0.00    +0.128 C 
ATOM     18  N   UNL     1       0.340  -1.321  -3.385  0.00  0.00    -0.318 N 
ATOM     19  C   UNL     1      -0.792  -1.603  -2.710  0.00  0.00    +0.217 C 
ATOM     20  O   UNL     1      -1.722  -0.825  -2.733  0.00  0.00    -0.275 OA
ATOM     21  H   UNL     1       1.084  -1.943  -3.366  0.00  0.00    +0.148 HD
ENDBRANCH   7  19
ENDBRANCH   1  15
BRANCH   4  22
ATOM     22  N   UNL     1       5.137  -9.323   2.281  0.00  0.00    -0.269 N 
ATOM     23  C   UNL     1       5.162 -10.595   1.839  0.00  0.00    +0.308 C 
ATOM     24  O   UNL     1       4.301 -10.991   1.076  0.00  0.00    -0.252 OA
ATOM     25  N   UNL     1       6.141 -11.430   2.241  0.00  0.00    -0.267 N 
ATOM     26  H   UNL     1       5.870  -8.982   2.817  0.00  0.00    +0.156 HD
ATOM     27  H   UNL     1       6.780 -11.141   2.910  0.00  0.00    +0.156 HD
BRANCH  25  28
ATOM     28  C   UNL     1       6.234 -12.716   1.692  0.00  0.00    +0.070 A 
ATOM     29  C   UNL     1       5.766 -12.960   0.408  0.00  0.00    +0.026 A 
ATOM     30  C   UNL     1       5.860 -14.229  -0.130  0.00  0.00    +0.002 A 
ATOM     31  C   UNL     1       6.418 -15.256   0.609  0.00  0.00    +0.003 A 
ATOM     32  C   UNL     1       6.884 -15.018   1.888  0.00  0.00    +0.040 A 
ATOM     33  C   UNL     1       6.800 -13.749   2.431  0.00  0.00    +0.145 A 
ATOM     34  F   UNL     1       7.261 -13.514   3.679  0.00  0.00    -0.204 F 
ENDBRANCH  25  28
ENDBRANCH   4  22
TORSDOF 4
