REMARK  Name = ZINC54042694
REMARK  10 active torsions:
REMARK  status: ('A' for Active; 'I' for Inactive)
REMARK    1  A    between atoms: C_1  and  N_2
REMARK    2  A    between atoms: C_4  and  C_11
REMARK    3  A    between atoms: N_13  and  N_14
REMARK    4  A    between atoms: N_17  and  C_18
REMARK    5  A    between atoms: C_18  and  C_19
REMARK    6  A    between atoms: C_19  and  C_21
REMARK    7  A    between atoms: C_19  and  N_28
REMARK    8  A    between atoms: C_21  and  C_22
REMARK    9  A    between atoms: N_28  and  C_29
REMARK   10  A    between atoms: N_28  and  C_30
REMARK                            x       y       z     vdW  Elec       q    Type
REMARK                         _______ _______ _______ _____ _____    ______ ____
ROOT
ATOM      1  N   UNL     1       1.736  -5.395  -6.140  0.00  0.00    -0.218 N 
ATOM      2  C   UNL     1       1.286  -4.606  -7.136  0.00  0.00    +0.316 C 
ATOM      3  O   UNL     1       1.034  -5.085  -8.224  0.00  0.00    -0.251 OA
ATOM      4  N   UNL     1       1.117  -3.286  -6.925  0.00  0.00    -0.300 N 
ATOM      5  H   UNL     1       1.857  -6.345  -6.291  0.00  0.00    +0.174 HD
ATOM      6  H   UNL     1       1.318  -2.903  -6.057  0.00  0.00    +0.150 HD
ENDROOT
BRANCH   1   9
ATOM      7  C   UNL     1       2.476  -5.632  -3.889  0.00  0.00    +0.262 C 
ATOM      8  O   UNL     1       2.629  -6.824  -4.080  0.00  0.00    -0.269 OA
ATOM      9  N   UNL     1       2.026  -4.843  -4.885  0.00  0.00    -0.229 N 
ATOM     10  H   UNL     1       1.905  -3.892  -4.734  0.00  0.00    +0.173 HD
BRANCH   7  14
ATOM     11  C   UNL     1       3.034  -2.318  -0.193  0.00  0.00    +0.149 C 
ATOM     12  N   UNL     1       3.035  -3.591  -0.918  0.00  0.00    -0.349 N 
ATOM     13  C   UNL     1       2.660  -3.744  -2.211  0.00  0.00    +0.099 A 
ATOM     14  C   UNL     1       2.781  -5.053  -2.574  0.00  0.00    +0.063 A 
ATOM     15  C   UNL     1       3.278  -5.772  -1.387  0.00  0.00    +0.012 A 
ATOM     16  C   UNL     1       3.423  -4.801  -0.382  0.00  0.00    +0.050 A 
ATOM     17  C   UNL     1       3.887  -5.182   0.872  0.00  0.00    +0.026 A 
ATOM     18  C   UNL     1       4.203  -6.501   1.117  0.00  0.00    +0.002 A 
ATOM     19  C   UNL     1       4.063  -7.458   0.122  0.00  0.00    +0.001 A 
ATOM     20  C   UNL     1       3.597  -7.101  -1.125  0.00  0.00    +0.011 A 
ENDBRANCH   7  14
ENDBRANCH   1   9
BRANCH   4  21
ATOM     21  C   UNL     1       0.628  -2.428  -8.008  0.00  0.00    +0.091 C 
BRANCH  21  22
ATOM     22  C   UNL     1       0.347  -1.027  -7.461  0.00  0.00    -0.048 C 
BRANCH  22  23
ATOM     23  N   UNL     1      -0.804  -1.079  -6.549  0.00  0.00    +0.379 N 
ATOM     24  C   UNL     1      -1.946  -1.695  -7.237  0.00  0.00    -0.096 C 
ATOM     25  C   UNL     1      -0.456  -1.877  -5.366  0.00  0.00    -0.096 C 
ATOM     26  H   UNL     1      -1.049  -0.143  -6.263  0.00  0.00    -0.082 HD
ENDBRANCH  22  23
BRANCH  22  27
ATOM     27  C   UNL     1       0.036  -0.080  -8.621  0.00  0.00    +0.021 C 
BRANCH  27  28
ATOM     28  C   UNL     1      -0.175   1.314  -8.089  0.00  0.00    -0.049 A 
ATOM     29  C   UNL     1      -1.441   1.729  -7.720  0.00  0.00    +0.003 A 
ATOM     30  C   UNL     1      -1.635   3.007  -7.231  0.00  0.00    +0.000 A 
ATOM     31  C   UNL     1      -0.563   3.872  -7.112  0.00  0.00    +0.000 A 
ATOM     32  C   UNL     1       0.703   3.457  -7.481  0.00  0.00    +0.000 A 
ATOM     33  C   UNL     1       0.898   2.177  -7.965  0.00  0.00    +0.003 A 
ENDBRANCH  27  28
ENDBRANCH  22  27
ENDBRANCH  21  22
ENDBRANCH   4  21
TORSDOF 7
