REMARK  Name = ZINC36545431
REMARK  11 active torsions:
REMARK  status: ('A' for Active; 'I' for Inactive)
REMARK    1  A    between atoms: C_1  and  C_2
REMARK    2  A    between atoms: C_2  and  C_3
REMARK    3  A    between atoms: C_2  and  C_4
REMARK    4  A    between atoms: C_2  and  N_5
REMARK    5  A    between atoms: C_6  and  C_8
REMARK    6  A    between atoms: C_8  and  C_10
REMARK    7  A    between atoms: C_8  and  N_15
REMARK    8  A    between atoms: N_15  and  C_16
REMARK    9  A    between atoms: C_23  and  C_25
REMARK   10  A    between atoms: C_29  and  O_32
REMARK   11  A    between atoms: C_30  and  O_31
REMARK                            x       y       z     vdW  Elec       q    Type
REMARK                         _______ _______ _______ _____ _____    ______ ____
ROOT
ATOM      1  N   UNL     1       3.894  -0.136  -2.420  0.00  0.00    -0.247 N 
ATOM      2  C   UNL     1       5.017  -0.842  -2.659  0.00  0.00    +0.256 C 
ATOM      3  O   UNL     1       4.942  -2.013  -2.980  0.00  0.00    -0.269 OA
ENDROOT
BRANCH   1   4
ATOM      4  C   UNL     1       3.973   1.236  -2.159  0.00  0.00    +0.056 A 
ATOM      5  C   UNL     1       4.048   1.692  -0.849  0.00  0.00    +0.025 A 
ATOM      6  C   UNL     1       4.126   3.047  -0.595  0.00  0.00    +0.002 A 
ATOM      7  C   UNL     1       4.129   3.951  -1.642  0.00  0.00    +0.002 A 
ATOM      8  C   UNL     1       4.054   3.501  -2.947  0.00  0.00    +0.022 A 
ATOM      9  C   UNL     1       3.981   2.146  -3.209  0.00  0.00    +0.062 A 
ATOM     10 CL   UNL     1       3.894   1.581  -4.849  0.00  0.00    -0.082 Cl
ENDBRANCH   1   4
BRANCH   2  11
ATOM     11  C   UNL     1       6.336  -0.195  -2.531  0.00  0.00    +0.082 A 
ATOM     12  C   UNL     1       6.672   0.490  -1.359  0.00  0.00    +0.017 A 
ATOM     13  C   UNL     1       7.905   1.093  -1.243  0.00  0.00    +0.005 A 
ATOM     14  C   UNL     1       8.818   1.026  -2.283  0.00  0.00    +0.049 A 
ATOM     15  C   UNL     1       8.500   0.351  -3.450  0.00  0.00    +0.159 A 
ATOM     16  C   UNL     1       7.261  -0.268  -3.579  0.00  0.00    +0.171 A 
BRANCH  16  17
ATOM     17  O   UNL     1       6.947  -0.935  -4.720  0.00  0.00    -0.503 OA
ATOM     18  H   UNL     1       6.526  -0.385  -5.394  0.00  0.00    +0.292 HD
ENDBRANCH  16  17
BRANCH  15  19
ATOM     19  O   UNL     1       9.401   0.290  -4.467  0.00  0.00    -0.503 OA
ATOM     20  H   UNL     1       9.994  -0.472  -4.421  0.00  0.00    +0.292 HD
ENDBRANCH  15  19
ENDBRANCH   2  11
BRANCH   1  21
ATOM     21  C   UNL     1       2.591  -0.805  -2.434  0.00  0.00    +0.233 C 
BRANCH  21  22
ATOM     22  C   UNL     1       1.718  -0.182  -3.493  0.00  0.00    +0.135 A 
ATOM     23  C   UNL     1       0.882  -0.845  -4.313  0.00  0.00    +0.047 A 
ATOM     24  C   UNL     1       0.267   0.123  -5.140  0.00  0.00    +0.041 A 
ATOM     25  C   UNL     1       0.763   1.319  -4.775  0.00  0.00    +0.195 A 
ATOM     26  O   UNL     1       1.637   1.129  -3.773  0.00  0.00    -0.465 OA
ENDBRANCH  21  22
BRANCH  21  28
ATOM     27  N   UNL     1       0.718  -1.192  -0.865  0.00  0.00    -0.309 N 
ATOM     28  C   UNL     1       1.933  -0.653  -1.087  0.00  0.00    +0.242 C 
ATOM     29  O   UNL     1       2.498  -0.045  -0.202  0.00  0.00    -0.273 OA
ATOM     30  H   UNL     1       0.267  -1.678  -1.573  0.00  0.00    +0.149 HD
BRANCH  27  32
ATOM     31  C   UNL     1      -0.115   0.442   0.753  0.00  0.00    +0.031 C 
ATOM     32  C   UNL     1       0.079  -1.044   0.445  0.00  0.00    +0.026 C 
ATOM     33  C   UNL     1       0.965  -1.677   1.519  0.00  0.00    +0.031 C 
ATOM     34  C   UNL     1      -1.282  -1.743   0.430  0.00  0.00    +0.031 C 
ENDBRANCH  27  32
ENDBRANCH  21  28
ENDBRANCH   1  21
TORSDOF 8
