REMARK  Name = ZINC39597604
REMARK  5 active torsions:
REMARK  status: ('A' for Active; 'I' for Inactive)
REMARK    1  A    between atoms: C_6  and  C_11
REMARK    2  A    between atoms: C_15  and  C_24
REMARK    3  A    between atoms: N_26  and  C_27
REMARK    4  A    between atoms: C_27  and  C_28
REMARK    5  A    between atoms: C_28  and  C_29
REMARK                            x       y       z     vdW  Elec       q    Type
REMARK                         _______ _______ _______ _____ _____    ______ ____
ROOT
ATOM      1  C   UNL     1       4.984  -2.714  -0.061  0.00  0.00    +0.247 C 
ATOM      2  O   UNL     1       6.023  -2.094  -0.177  0.00  0.00    -0.270 OA
ATOM      3  N   UNL     1       5.007  -4.058   0.034  0.00  0.00    -0.296 N 
ATOM      4  C   UNL     1       3.853  -4.987   0.053  0.00  0.00    +0.121 C 
ATOM      5  C   UNL     1       4.312  -6.196  -0.794  0.00  0.00    +0.100 C 
ATOM      6  C   UNL     1       5.848  -6.160  -0.728  0.00  0.00    -0.004 C 
ATOM      7  C   UNL     1       6.194  -4.941   0.138  0.00  0.00    +0.115 C 
ATOM      8  C   UNL     1       6.379  -7.436  -0.082  0.00  0.00    -0.010 C 
ATOM      9  C   UNL     1       7.910  -7.404  -0.081  0.00  0.00    -0.082 C 
ATOM     10  N   UNL     1       8.400  -7.289  -1.460  0.00  0.00    +0.379 N 
ATOM     11  C   UNL     1       7.962  -6.015  -2.043  0.00  0.00    -0.082 C 
ATOM     12  C   UNL     1       6.433  -5.989  -2.127  0.00  0.00    -0.010 C 
ATOM     13  H   UNL     1       9.409  -7.329  -1.461  0.00  0.00    -0.086 HD
ATOM     14  H   UNL     1       8.035  -8.052  -2.010  0.00  0.00    -0.086 HD
ENDROOT
BRANCH   1  20
ATOM     15  C   UNL     1      -1.017  -0.486   0.667  0.00  0.00    +0.001 A 
ATOM     16  C   UNL     1      -0.924  -1.743   1.262  0.00  0.00    +0.001 A 
ATOM     17  C   UNL     1       0.246  -2.438   1.250  0.00  0.00    +0.008 A 
ATOM     18  C   UNL     1       1.379  -1.882   0.628  0.00  0.00    -0.017 A 
ATOM     19  C   UNL     1       2.600  -2.572   0.597  0.00  0.00    +0.021 A 
ATOM     20  C   UNL     1       3.694  -1.993  -0.025  0.00  0.00    +0.037 A 
ATOM     21  C   UNL     1       3.587  -0.724  -0.621  0.00  0.00    +0.013 A 
ATOM     22  C   UNL     1       2.413  -0.042  -0.600  0.00  0.00    +0.009 A 
ATOM     23  C   UNL     1       1.284  -0.603   0.023  0.00  0.00    -0.018 A 
ATOM     24  C   UNL     1       0.059   0.083   0.057  0.00  0.00    +0.008 A 
ENDBRANCH   1  20
BRANCH   5  25
ATOM     25  C   UNL     1       3.842  -6.047  -2.218  0.00  0.00    +0.218 C 
ATOM     26  O   UNL     1       3.788  -4.948  -2.728  0.00  0.00    -0.275 OA
ATOM     27  N   UNL     1       3.481  -7.136  -2.926  0.00  0.00    -0.315 N 
ATOM     28  H   UNL     1       3.524  -8.015  -2.519  0.00  0.00    +0.149 HD
BRANCH  27  29
ATOM     29  C   UNL     1       3.024  -6.991  -4.310  0.00  0.00    +0.109 C 
BRANCH  29  30
ATOM     30  C   UNL     1       2.679  -8.369  -4.880  0.00  0.00    +0.056 C 
BRANCH  30  31
ATOM     31  C   UNL     1       2.209  -8.220  -6.304  0.00  0.00    -0.021 A 
ATOM     32  C   UNL     1       3.055  -8.153  -7.498  0.00  0.00    +0.003 A 
ATOM     33  C   UNL     1       4.433  -8.199  -7.715  0.00  0.00    +0.010 A 
ATOM     34  C   UNL     1       4.923  -8.109  -8.988  0.00  0.00    +0.001 A 
ATOM     35  C   UNL     1       4.061  -7.972 -10.067  0.00  0.00    +0.002 A 
ATOM     36  C   UNL     1       2.697  -7.925  -9.876  0.00  0.00    +0.026 A 
ATOM     37  C   UNL     1       2.177  -8.015  -8.589  0.00  0.00    +0.047 A 
ATOM     38  N   UNL     1       0.897  -8.001  -8.081  0.00  0.00    -0.360 N 
ATOM     39  C   UNL     1       0.936  -8.130  -6.719  0.00  0.00    +0.087 A 
ATOM     40  H   UNL     1       0.088  -7.916  -8.610  0.00  0.00    +0.165 HD
ENDBRANCH  30  31
ENDBRANCH  29  30
ENDBRANCH  27  29
ENDBRANCH   5  25
TORSDOF 5
