REMARK  Name = ZINC16651112
REMARK  11 active torsions:
REMARK  status: ('A' for Active; 'I' for Inactive)
REMARK    1  A    between atoms: C_1  and  C_2
REMARK    2  A    between atoms: C_5  and  C_7
REMARK    3  A    between atoms: C_7  and  N_8
REMARK    4  A    between atoms: N_8  and  C_9
REMARK    5  A    between atoms: C_9  and  C_10
REMARK    6  A    between atoms: C_19  and  C_21
REMARK    7  A    between atoms: C_21  and  N_22
REMARK    8  A    between atoms: N_22  and  C_23
REMARK    9  A    between atoms: C_23  and  C_24
REMARK   10  A    between atoms: N_32  and  C_33
REMARK   11  A    between atoms: C_33  and  C_34
REMARK                            x       y       z     vdW  Elec       q    Type
REMARK                         _______ _______ _______ _____ _____    ______ ____
ROOT
ATOM      1  N   UNL     1      -2.991   1.226   1.403  0.00  0.00    -0.289 N 
ATOM      2  C   UNL     1      -2.832   0.044   2.032  0.00  0.00    +0.234 C 
ATOM      3  O   UNL     1      -3.211  -0.089   3.176  0.00  0.00    -0.274 OA
ENDROOT
BRANCH   1   4
ATOM      4  C   UNL     1      -2.533   1.387   0.021  0.00  0.00    +0.182 C 
BRANCH   4   9
ATOM      5  C   UNL     1       1.476   4.447   0.010  0.00  0.00    +0.086 C 
ATOM      6  C   UNL     1       0.640   3.193   0.012  0.00  0.00    +0.102 A 
ATOM      7  C   UNL     1       1.111   1.934   0.002  0.00  0.00    +0.045 A 
ATOM      8  C   UNL     1      -0.013   1.076   0.008  0.00  0.00    +0.046 A 
ATOM      9  C   UNL     1      -1.103   1.863   0.017  0.00  0.00    +0.122 A 
ATOM     10  O   UNL     1      -0.702   3.144   0.024  0.00  0.00    -0.463 OA
ENDBRANCH   4   9
ENDBRANCH   1   4
BRANCH   1  11
ATOM     11  C   UNL     1      -3.620   2.349   2.102  0.00  0.00    +0.143 C 
BRANCH  11  12
ATOM     12  C   UNL     1      -5.109   2.313   1.872  0.00  0.00    -0.026 A 
ATOM     13  C   UNL     1      -5.656   2.984   0.794  0.00  0.00    +0.009 A 
ATOM     14  C   UNL     1      -7.021   2.951   0.576  0.00  0.00    +0.050 A 
ATOM     15  C   UNL     1      -7.845   2.253   1.444  0.00  0.00    +0.166 A 
ATOM     16  C   UNL     1      -7.294   1.581   2.532  0.00  0.00    +0.167 A 
ATOM     17  C   UNL     1      -5.925   1.615   2.742  0.00  0.00    +0.054 A 
ATOM     18  O   UNL     1      -8.301   0.977   3.228  0.00  0.00    -0.453 OA
ATOM     19  C   UNL     1      -9.425   0.945   2.327  0.00  0.00    +0.466 C 
ATOM     20  O   UNL     1      -9.197   2.070   1.457  0.00  0.00    -0.453 OA
ENDBRANCH  11  12
ENDBRANCH   1  11
BRANCH   2  21
ATOM     21  C   UNL     1      -2.185  -1.111   1.313  0.00  0.00    +0.205 C 
BRANCH  21  22
ATOM     22  N   UNL     1      -2.131  -2.272   2.205  0.00  0.00    -0.274 N 
ATOM     23  C   UNL     1      -1.060  -2.461   3.001  0.00  0.00    +0.303 C 
ATOM     24  O   UNL     1      -0.139  -1.667   2.979  0.00  0.00    -0.253 OA
ATOM     25  N   UNL     1      -1.009  -3.529   3.821  0.00  0.00    -0.295 N 
ATOM     26  H   UNL     1      -1.744  -4.162   3.838  0.00  0.00    +0.151 HD
BRANCH  22  27
ATOM     27  C   UNL     1      -3.240  -3.229   2.231  0.00  0.00    +0.141 C 
BRANCH  27  28
ATOM     28  C   UNL     1      -2.988  -4.330   1.199  0.00  0.00    +0.136 C 
ATOM     29  C   UNL     1      -4.150  -5.342   1.219  0.00  0.00    +0.035 C 
ATOM     30  C   UNL     1      -4.701  -5.316  -0.228  0.00  0.00    +0.031 C 
ATOM     31  C   UNL     1      -3.500  -4.740  -1.022  0.00  0.00    +0.160 C 
ATOM     32  O   UNL     1      -2.938  -3.763  -0.120  0.00  0.00    -0.375 OA
ENDBRANCH  27  28
ENDBRANCH  22  27
BRANCH  25  33
ATOM     33  C   UNL     1       0.155  -3.734   4.687  0.00  0.00    +0.141 C 
BRANCH  33  34
ATOM     34  C   UNL     1      -0.037  -4.990   5.497  0.00  0.00    -0.030 A 
ATOM     35  C   UNL     1      -0.649  -4.927   6.735  0.00  0.00    +0.005 A 
ATOM     36  C   UNL     1      -0.829  -6.080   7.476  0.00  0.00    +0.000 A 
ATOM     37  C   UNL     1      -0.388  -7.294   6.984  0.00  0.00    +0.000 A 
ATOM     38  C   UNL     1       0.229  -7.356   5.749  0.00  0.00    +0.000 A 
ATOM     39  C   UNL     1       0.405  -6.204   5.006  0.00  0.00    +0.005 A 
ENDBRANCH  33  34
ENDBRANCH  25  33
ENDBRANCH  21  22
ENDBRANCH   2  21
TORSDOF 10
