REMARK  Name = ZINC63452197
REMARK  9 active torsions:
REMARK  status: ('A' for Active; 'I' for Inactive)
REMARK    1  A    between atoms: C_1  and  C_2
REMARK    2  A    between atoms: C_2  and  C_3
REMARK    3  A    between atoms: C_3  and  C_4
REMARK    4  A    between atoms: C_4  and  N_5
REMARK    5  A    between atoms: C_6  and  N_24
REMARK    6  A    between atoms: C_7  and  N_14
REMARK    7  A    between atoms: N_14  and  C_15
REMARK    8  A    between atoms: C_15  and  C_16
REMARK    9  A    between atoms: C_17  and  C_19
REMARK                            x       y       z     vdW  Elec       q    Type
REMARK                         _______ _______ _______ _____ _____    ______ ____
ROOT
ATOM      1  N   UNL     1       1.984  -2.179   2.284  0.00  0.00    -0.280 N 
ATOM      2  C   UNL     1       3.272  -2.659   2.344  0.00  0.00    +0.127 A 
ATOM      3  C   UNL     1       3.746  -3.167   3.536  0.00  0.00    +0.140 A 
ATOM      4  C   UNL     1       2.895  -3.178   4.657  0.00  0.00    +0.277 A 
ATOM      5  O   UNL     1       3.288  -3.621   5.722  0.00  0.00    -0.266 OA
ATOM      6  N   UNL     1       1.642  -2.695   4.544  0.00  0.00    -0.273 N 
ATOM      7  H   UNL     1       1.054  -2.702   5.316  0.00  0.00    +0.173 HD
ATOM      8  C   UNL     1       1.198  -2.199   3.375  0.00  0.00    +0.331 A 
ATOM      9  O   UNL     1       0.064  -1.766   3.303  0.00  0.00    -0.246 OA
ENDROOT
BRANCH   3  10
ATOM     10  N   UNL     1       5.062  -3.668   3.629  0.00  0.00    -0.259 N 
ATOM     11  C   UNL     1       5.269  -4.978   3.869  0.00  0.00    +0.270 C 
ATOM     12  O   UNL     1       4.324  -5.716   4.073  0.00  0.00    -0.268 OA
BRANCH  11  13
ATOM     13  C   UNL     1       6.640  -5.515   3.885  0.00  0.00    +0.133 A 
ATOM     14  C   UNL     1       6.891  -6.857   3.995  0.00  0.00    +0.079 A 
ATOM     15  S   UNL     1       8.570  -6.915   3.962  0.00  0.00    -0.083 S 
ATOM     16  C   UNL     1       8.895  -5.274   3.814  0.00  0.00    +0.156 A 
ATOM     17  N   UNL     1       7.712  -4.723   3.787  0.00  0.00    -0.243 NA
ENDBRANCH  11  13
BRANCH  10  18
ATOM     18  C   UNL     1       6.203  -2.763   3.466  0.00  0.00    +0.111 C 
ATOM     19  C   UNL     1       6.707  -2.324   4.842  0.00  0.00    +0.025 C 
ENDBRANCH  10  18
ENDBRANCH   3  10
BRANCH   2  20
ATOM     20  N   UNL     1       4.076  -2.634   1.230  0.00  0.00    -0.343 N 
ATOM     21  H   UNL     1       3.716  -2.342   0.378  0.00  0.00    +0.144 HD
ATOM     22  H   UNL     1       5.004  -2.908   1.295  0.00  0.00    +0.144 HD
ENDBRANCH   2  20
BRANCH   1  23
ATOM     23  C   UNL     1       1.468  -1.636   1.025  0.00  0.00    +0.128 C 
BRANCH  23  24
ATOM     24  C   UNL     1       1.766  -0.137   0.955  0.00  0.00    +0.021 C 
BRANCH  24  26
ATOM     25  C   UNL     1       1.524   1.929  -0.429  0.00  0.00    +0.004 C 
ATOM     26  C   UNL     1       1.226   0.430  -0.360  0.00  0.00    -0.002 C 
ENDBRANCH  24  26
ENDBRANCH  23  24
ENDBRANCH   1  23
TORSDOF 7
