REMARK  Name = ZINC16267799
REMARK  10 active torsions:
REMARK  status: ('A' for Active; 'I' for Inactive)
REMARK    1  A    between atoms: C_1  and  C_2
REMARK    2  A    between atoms: C_4  and  C_27
REMARK    3  A    between atoms: C_5  and  C_25
REMARK    4  A    between atoms: C_6  and  N_8
REMARK    5  A    between atoms: N_8  and  N_9
REMARK    6  A    between atoms: C_10  and  C_11
REMARK    7  A    between atoms: C_14  and  C_16
REMARK    8  A    between atoms: C_20  and  C_22
REMARK    9  A    between atoms: C_27  and  O_28
REMARK   10  A    between atoms: O_28  and  C_29
REMARK                            x       y       z     vdW  Elec       q    Type
REMARK                         _______ _______ _______ _____ _____    ______ ____
ROOT
ATOM      1  N   UNL     1       1.138  -0.640  -0.012  0.00  0.00    -0.186 NA
ATOM      2  C   UNL     1       0.002  -0.004   0.002  0.00  0.00    +0.176 C 
ENDROOT
BRANCH   2   3
ATOM      3  C   UNL     1      -0.018   1.460   0.010  0.00  0.00    +0.148 A 
ATOM      4  C   UNL     1      -1.144   2.253   0.019  0.00  0.00    +0.051 A 
ATOM      5  C   UNL     1      -0.701   3.583   0.028  0.00  0.00    +0.050 A 
ATOM      6  C   UNL     1       0.661   3.552   0.015  0.00  0.00    +0.136 A 
ATOM      7  O   UNL     1       1.063   2.267   0.004  0.00  0.00    -0.454 OA
BRANCH   6   8
ATOM      8  C   UNL     1       1.550   4.731   0.013  0.00  0.00    +0.018 A 
ATOM      9  C   UNL     1       1.004   6.019   0.026  0.00  0.00    +0.013 A 
ATOM     10  C   UNL     1       1.832   7.123   0.025  0.00  0.00    +0.021 A 
ATOM     11  C   UNL     1       3.206   6.965   0.011  0.00  0.00    +0.055 A 
ATOM     12  C   UNL     1       3.764   5.683  -0.002  0.00  0.00    +0.082 A 
ATOM     13  C   UNL     1       2.933   4.564   0.005  0.00  0.00    +0.028 A 
ATOM     14 CL   UNL     1       4.239   8.360   0.009  0.00  0.00    -0.083 Cl
BRANCH  12  15
ATOM     15  C   UNL     1       5.232   5.515  -0.017  0.00  0.00    +0.388 C 
ATOM     16  O   UNL     1       5.955   6.491  -0.017  0.00  0.00    -0.241 OA
ATOM     17  O   UNL     1       5.768   4.279  -0.029  0.00  0.00    -0.241 OA
ENDBRANCH  12  15
ENDBRANCH   6   8
ENDBRANCH   2   3
BRANCH   1  18
ATOM     18  N   UNL     1       1.157  -2.041  -0.019  0.00  0.00    -0.220 N 
ATOM     19  H   UNL     1       0.324  -2.537  -0.015  0.00  0.00    +0.176 HD
BRANCH  18  25
ATOM     20  C   UNL     1       5.931  -1.810  -0.064  0.00  0.00    +0.065 C 
ATOM     21  C   UNL     1       4.672  -2.639  -0.056  0.00  0.00    +0.041 A 
ATOM     22  C   UNL     1       4.767  -4.019  -0.064  0.00  0.00    +0.030 A 
ATOM     23  C   UNL     1       3.613  -4.782  -0.057  0.00  0.00    +0.000 A 
ATOM     24  C   UNL     1       2.379  -4.122  -0.042  0.00  0.00    +0.098 A 
ATOM     25  C   UNL     1       2.364  -2.716  -0.034  0.00  0.00    +0.156 A 
ATOM     26  N   UNL     1       3.500  -2.034  -0.046  0.00  0.00    -0.234 NA
BRANCH  24  27
ATOM     27  C   UNL     1       1.155  -4.864  -0.035  0.00  0.00    +0.103 C 
ATOM     28  N   UNL     1       0.183  -5.453  -0.029  0.00  0.00    -0.191 NA
ENDBRANCH  24  27
BRANCH  23  29
ATOM     29  C   UNL     1       3.683  -6.288  -0.065  0.00  0.00    +0.196 C 
BRANCH  29  30
ATOM     30  O   UNL     1       5.051  -6.701  -0.081  0.00  0.00    -0.378 OA
ATOM     31  C   UNL     1       5.229  -8.119  -0.089  0.00  0.00    +0.194 C 
ENDBRANCH  29  30
ENDBRANCH  23  29
ENDBRANCH  18  25
ENDBRANCH   1  18
TORSDOF 8
