REMARK  Name = ZINC01291748
REMARK  8 active torsions:
REMARK  status: ('A' for Active; 'I' for Inactive)
REMARK    1  A    between atoms: C_1  and  C_2
REMARK    2  A    between atoms: C_2  and  O_3
REMARK    3  A    between atoms: O_3  and  C_4
REMARK    4  A    between atoms: C_9  and  C_10
REMARK    5  A    between atoms: C_12  and  C_21
REMARK    6  A    between atoms: C_13  and  C_20
REMARK    7  A    between atoms: C_21  and  O_23
REMARK    8  A    between atoms: O_23  and  C_24
REMARK                            x       y       z     vdW  Elec       q    Type
REMARK                         _______ _______ _______ _____ _____    ______ ____
ROOT
ATOM      1  C   UNL     1       1.997  -1.493  -3.439  0.00  0.00    +0.182 C 
ATOM      2  C   UNL     1       3.459  -1.839  -3.542  0.00  0.00    +0.082 C 
ATOM      3  C   UNL     1       4.013  -2.354  -4.650  0.00  0.00    +0.020 C 
ATOM      4  N   UNL     1       3.285  -2.597  -5.787  0.00  0.00    -0.287 N 
ATOM      5  C   UNL     1       2.010  -2.053  -5.858  0.00  0.00    +0.218 A 
ATOM      6  N   UNL     1       1.395  -1.528  -4.769  0.00  0.00    -0.221 N 
ATOM      7  N   UNL     1       0.150  -1.071  -5.198  0.00  0.00    -0.156 NA
ATOM      8  C   UNL     1       0.071  -1.337  -6.478  0.00  0.00    +0.247 A 
ATOM      9  N   UNL     1       1.200  -1.934  -6.874  0.00  0.00    -0.201 NA
ATOM     10  C   UNL     1       5.485  -2.677  -4.645  0.00  0.00    +0.061 C 
ATOM     11  H   UNL     1       3.647  -3.128  -6.514  0.00  0.00    +0.155 HD
ENDROOT
BRANCH   1  17
ATOM     12  C   UNL     1       0.666  -2.066  -1.393  0.00  0.00    +0.126 A 
ATOM     13  C   UNL     1       0.025  -2.987  -0.577  0.00  0.00    +0.047 A 
ATOM     14  C   UNL     1       0.029  -4.327  -0.914  0.00  0.00    +0.019 A 
ATOM     15  C   UNL     1       0.673  -4.750  -2.063  0.00  0.00    +0.018 A 
ATOM     16  C   UNL     1       1.313  -3.834  -2.877  0.00  0.00    +0.025 A 
ATOM     17  C   UNL     1       1.306  -2.492  -2.548  0.00  0.00    +0.024 A 
ATOM     18 BR   UNL     1       0.678  -6.585  -2.521  0.00  0.00    -0.050 Br
BRANCH  12  19
ATOM     19  O   UNL     1       0.663  -0.747  -1.064  0.00  0.00    -0.492 OA
BRANCH  19  21
ATOM     20  C   UNL     1       0.087   1.132   0.342  0.00  0.00    +0.048 C 
ATOM     21  C   UNL     1      -0.015  -0.381   0.139  0.00  0.00    +0.225 C 
ENDBRANCH  19  21
ENDBRANCH  12  19
ENDBRANCH   1  17
BRANCH   2  22
ATOM     22  C   UNL     1       4.285  -1.610  -2.419  0.00  0.00    +0.339 C 
ATOM     23  O   UNL     1       4.622  -0.476  -2.132  0.00  0.00    -0.245 OA
BRANCH  22  24
ATOM     24  O   UNL     1       4.702  -2.649  -1.665  0.00  0.00    -0.458 OA
BRANCH  24  25
ATOM     25  C   UNL     1       5.535  -2.344  -0.545  0.00  0.00    +0.177 C 
ATOM     26  C   UNL     1       7.003  -2.371  -0.979  0.00  0.00    +0.044 C 
ATOM     27  C   UNL     1       7.895  -2.045   0.220  0.00  0.00    +0.004 C 
ATOM     28  C   UNL     1       7.669  -3.083   1.321  0.00  0.00    +0.000 C 
ATOM     29  C   UNL     1       6.202  -3.056   1.755  0.00  0.00    +0.004 C 
ATOM     30  C   UNL     1       5.310  -3.382   0.556  0.00  0.00    +0.044 C 
ENDBRANCH  24  25
ENDBRANCH  22  24
ENDBRANCH   2  22
TORSDOF 6
