REMARK  Name = ZINC21737534
REMARK  8 active torsions:
REMARK  status: ('A' for Active; 'I' for Inactive)
REMARK    1  A    between atoms: C_1  and  C_2
REMARK    2  A    between atoms: C_3  and  N_9
REMARK    3  A    between atoms: C_13  and  S_15
REMARK    4  A    between atoms: S_15  and  C_16
REMARK    5  A    between atoms: C_16  and  C_17
REMARK    6  A    between atoms: C_17  and  C_19
REMARK    7  A    between atoms: C_20  and  N_31
REMARK    8  A    between atoms: N_21  and  C_28
REMARK                            x       y       z     vdW  Elec       q    Type
REMARK                         _______ _______ _______ _____ _____    ______ ____
ROOT
ATOM      1  C   UNL     1       4.319   2.976   8.285  0.00  0.00    +0.156 C 
ENDROOT
BRANCH   1   2
ATOM      2  C   UNL     1       5.439   3.285   9.246  0.00  0.00    +0.182 C 
ATOM      3  O   UNL     1       6.582   2.994   8.959  0.00  0.00    -0.291 OA
BRANCH   2   4
ATOM      4  C   UNL     1       5.158   3.912  10.479  0.00  0.00    +0.120 A 
ATOM      5  C   UNL     1       6.193   4.314  11.340  0.00  0.00    +0.116 A 
ATOM      6  N   UNL     1       5.871   4.922  12.520  0.00  0.00    -0.278 N 
ATOM      7  C   UNL     1       4.593   5.129  12.873  0.00  0.00    +0.331 A 
ATOM      8  O   UNL     1       4.359   5.670  13.936  0.00  0.00    -0.246 OA
ATOM      9  N   UNL     1       3.562   4.761  12.094  0.00  0.00    -0.274 N 
ATOM     10  H   UNL     1       2.530   4.951  12.422  0.00  0.00    +0.173 HD
ATOM     11  C   UNL     1       3.774   4.159  10.905  0.00  0.00    +0.266 A 
ATOM     12  O   UNL     1       2.838   3.827  10.202  0.00  0.00    -0.267 OA
BRANCH   6  13
ATOM     13  C   UNL     1       6.943   5.351  13.422  0.00  0.00    +0.094 C 
ATOM     14  C   UNL     1       6.848   6.760  14.012  0.00  0.00    +0.027 C 
ATOM     15  C   UNL     1       7.884   6.451  12.928  0.00  0.00    +0.027 C 
ENDBRANCH   6  13
BRANCH   5  16
ATOM     16  N   UNL     1       7.494   4.107  11.002  0.00  0.00    -0.344 N 
ATOM     17  H   UNL     1       8.297   4.426  11.683  0.00  0.00    +0.144 HD
ATOM     18  H   UNL     1       7.743   3.621  10.047  0.00  0.00    +0.144 HD
ENDBRANCH   5  16
ENDBRANCH   2   4
ENDBRANCH   1   2
BRANCH   1  19
ATOM     19  S   UNL     1       4.997   2.178   6.804  0.00  0.00    -0.089 S 
BRANCH  19  24
ATOM     20  N   UNL     1       0.925   0.856   2.894  0.00  0.00    -0.292 N 
ATOM     21  C   UNL     1       1.715   1.261   3.964  0.00  0.00    +0.187 A 
ATOM     22  N   UNL     1       1.361   1.852   5.088  0.00  0.00    -0.125 NA
ATOM     23  N   UNL     1       2.316   2.166   6.027  0.00  0.00    -0.133 NA
ATOM     24  C   UNL     1       3.583   1.884   5.794  0.00  0.00    +0.160 A 
ATOM     25  S   UNL     1       3.484   1.126   4.179  0.00  0.00    -0.024 S 
ATOM     26  H   UNL     1       1.375   0.302   2.057  0.00  0.00    +0.154 HD
BRANCH  20  29
ATOM     27  C   UNL     1      -0.555   0.275   0.534  0.00  0.00    +0.047 C 
ATOM     28  C   UNL     1      -1.201   0.885   1.751  0.00  0.00    -0.011 A 
ATOM     29  C   UNL     1      -0.440   1.152   2.883  0.00  0.00    +0.037 A 
ATOM     30  C   UNL     1      -1.040   1.714   4.002  0.00  0.00    +0.023 A 
ATOM     31  C   UNL     1      -2.390   2.007   3.988  0.00  0.00    +0.003 A 
ATOM     32  C   UNL     1      -3.145   1.740   2.861  0.00  0.00    +0.020 A 
ATOM     33  C   UNL     1      -2.550   1.185   1.741  0.00  0.00    +0.046 A 
ATOM     34 CL   UNL     1      -3.501   0.858   0.326  0.00  0.00    -0.083 Cl
ENDBRANCH  20  29
ENDBRANCH  19  24
ENDBRANCH   1  19
TORSDOF 7
