REMARK  Name = ZINC12108672
REMARK  11 active torsions:
REMARK  status: ('A' for Active; 'I' for Inactive)
REMARK    1  A    between atoms: C_1  and  C_2
REMARK    2  A    between atoms: C_2  and  O_3
REMARK    3  A    between atoms: O_3  and  C_4
REMARK    4  A    between atoms: C_4  and  C_6
REMARK    5  A    between atoms: C_7  and  C_34
REMARK    6  A    between atoms: C_9  and  N_11
REMARK    7  A    between atoms: C_12  and  C_14
REMARK    8  A    between atoms: C_14  and  S_15
REMARK    9  A    between atoms: S_15  and  C_16
REMARK   10  A    between atoms: N_20  and  C_21
REMARK   11  A    between atoms: C_21  and  C_22
REMARK                            x       y       z     vdW  Elec       q    Type
REMARK                         _______ _______ _______ _____ _____    ______ ____
ROOT
ATOM      1  S   UNL     1      -4.080   2.256  -0.089  0.00  0.00    -0.077 S 
ENDROOT
BRANCH   1   2
ATOM      2  C   UNL     1      -5.378   1.068  -0.016  0.00  0.00    +0.193 A 
ATOM      3  N   UNL     1      -5.252  -0.224  -0.200  0.00  0.00    -0.121 NA
ATOM      4  N   UNL     1      -6.518  -0.807  -0.055  0.00  0.00    -0.112 NA
ATOM      5  C   UNL     1      -7.375   0.146   0.213  0.00  0.00    +0.220 A 
ATOM      6  N   UNL     1      -6.694   1.329   0.250  0.00  0.00    -0.288 N 
ATOM      7  N   UNL     1      -8.738  -0.018   0.428  0.00  0.00    -0.300 N 
ATOM      8  C   UNL     1      -8.990  -0.727   1.689  0.00  0.00    +0.108 C 
ATOM      9  C   UNL     1     -10.495  -0.761   1.964  0.00  0.00    +0.019 C 
ATOM     10  C   UNL     1     -11.205  -1.470   0.807  0.00  0.00    +0.003 C 
ATOM     11  C   UNL     1     -10.886  -0.740  -0.501  0.00  0.00    +0.019 C 
ATOM     12  C   UNL     1      -9.370  -0.707  -0.705  0.00  0.00    +0.108 C 
BRANCH   6  13
ATOM     13  C   UNL     1      -7.271   2.648   0.522  0.00  0.00    +0.158 C 
BRANCH  13  14
ATOM     14  C   UNL     1      -7.601   3.343  -0.801  0.00  0.00    +0.138 C 
ATOM     15  C   UNL     1      -8.102   4.777  -0.528  0.00  0.00    +0.035 C 
ATOM     16  C   UNL     1      -9.241   4.933  -1.573  0.00  0.00    +0.031 C 
ATOM     17  C   UNL     1      -9.800   3.488  -1.616  0.00  0.00    +0.160 C 
ATOM     18  O   UNL     1      -8.651   2.638  -1.472  0.00  0.00    -0.375 OA
ENDBRANCH  13  14
ENDBRANCH   6  13
ENDBRANCH   1   2
BRANCH   1  19
ATOM     19  C   UNL     1      -2.604   1.271  -0.468  0.00  0.00    +0.173 C 
BRANCH  19  21
ATOM     20  N   UNL     1      -0.190   1.664  -0.834  0.00  0.00    -0.279 N 
ATOM     21  C   UNL     1      -1.405   2.179  -0.560  0.00  0.00    +0.228 C 
ATOM     22  O   UNL     1      -1.533   3.373  -0.388  0.00  0.00    -0.275 OA
ATOM     23  H   UNL     1      -0.087   0.709  -0.972  0.00  0.00    +0.155 HD
BRANCH  20  27
ATOM     24  C   UNL     1       2.729   4.457  -1.002  0.00  0.00    +0.101 A 
ATOM     25  C   UNL     1       3.163   3.160  -1.241  0.00  0.00    -0.028 A 
ATOM     26  C   UNL     1       2.224   2.166  -1.199  0.00  0.00    +0.035 A 
ATOM     27  C   UNL     1       0.915   2.501  -0.925  0.00  0.00    +0.073 A 
ATOM     28  S   UNL     1       0.982   4.222  -0.729  0.00  0.00    -0.067 S 
ATOM     29  C   UNL     1       4.611   2.860  -1.535  0.00  0.00    +0.045 C 
BRANCH  24  30
ATOM     30  C   UNL     1       3.479   5.659  -0.984  0.00  0.00    +0.346 C 
ATOM     31  O   UNL     1       4.676   5.632  -1.200  0.00  0.00    -0.244 OA
BRANCH  30  32
ATOM     32  O   UNL     1       2.866   6.834  -0.729  0.00  0.00    -0.461 OA
BRANCH  32  34
ATOM     33  C   UNL     1       2.819   9.230  -0.420  0.00  0.00    +0.048 C 
ATOM     34  C   UNL     1       3.684   8.005  -0.727  0.00  0.00    +0.229 C 
ENDBRANCH  32  34
ENDBRANCH  30  32
ENDBRANCH  24  30
ENDBRANCH  20  27
ENDBRANCH  19  21
ENDBRANCH   1  19
TORSDOF 9
