REMARK  Name = ZINC12101586
REMARK  9 active torsions:
REMARK  status: ('A' for Active; 'I' for Inactive)
REMARK    1  A    between atoms: C_1  and  N_2
REMARK    2  A    between atoms: N_2  and  C_3
REMARK    3  A    between atoms: C_6  and  N_9
REMARK    4  A    between atoms: C_12  and  C_14
REMARK    5  A    between atoms: C_14  and  S_15
REMARK    6  A    between atoms: S_15  and  C_16
REMARK    7  A    between atoms: C_18  and  C_21
REMARK    8  A    between atoms: C_24  and  O_27
REMARK    9  A    between atoms: O_27  and  C_28
REMARK                            x       y       z     vdW  Elec       q    Type
REMARK                         _______ _______ _______ _____ _____    ______ ____
ROOT
ATOM      1  S   UNL     1       1.674   3.439   0.118  0.00  0.00    -0.077 S 
ENDROOT
BRANCH   1   2
ATOM      2  C   UNL     1       1.197   1.743   0.110  0.00  0.00    +0.185 A 
ATOM      3  N   UNL     1       2.037   0.665   0.134  0.00  0.00    -0.201 NA
ATOM      4  C   UNL     1       1.220  -0.442   0.116  0.00  0.00    +0.182 A 
ATOM      5  N   UNL     1      -0.018  -0.007   0.084  0.00  0.00    -0.152 NA
ATOM      6  N   UNL     1      -0.031   1.278   0.080  0.00  0.00    -0.253 N 
ATOM      7  H   UNL     1      -0.989   1.818   0.054  0.00  0.00    +0.191 HD
BRANCH   4   8
ATOM      8  C   UNL     1       1.655  -1.855   0.131  0.00  0.00    +0.021 A 
ATOM      9  C   UNL     1       3.015  -2.168   0.159  0.00  0.00    +0.015 A 
ATOM     10  C   UNL     1       3.416  -3.487   0.178  0.00  0.00    +0.046 A 
ATOM     11  C   UNL     1       2.470  -4.503   0.157  0.00  0.00    +0.120 A 
ATOM     12  C   UNL     1       1.116  -4.195   0.123  0.00  0.00    +0.046 A 
ATOM     13  C   UNL     1       0.707  -2.879   0.110  0.00  0.00    +0.015 A 
BRANCH  11  14
ATOM     14  O   UNL     1       2.869  -5.801   0.170  0.00  0.00    -0.495 OA
ATOM     15  C   UNL     1       4.277  -6.047   0.205  0.00  0.00    +0.277 C 
ENDBRANCH  11  14
ENDBRANCH   4   8
ENDBRANCH   1   2
BRANCH   1  16
ATOM     16  C   UNL     1       0.043   4.223   0.075  0.00  0.00    +0.173 C 
BRANCH  16  19
ATOM     17  C   UNL     1      -2.215   5.931  -0.102  0.00  0.00    +0.138 C 
ATOM     18  N   UNL     1      -0.881   6.518   0.047  0.00  0.00    -0.274 N 
ATOM     19  C   UNL     1       0.206   5.722   0.076  0.00  0.00    +0.230 C 
ATOM     20  O   UNL     1       1.316   6.211   0.102  0.00  0.00    -0.274 OA
BRANCH  18  21
ATOM     21  C   UNL     1      -0.735   7.905   0.159  0.00  0.00    +0.036 A 
ATOM     22  C   UNL     1      -1.218   8.567   1.280  0.00  0.00    +0.026 A 
ATOM     23  C   UNL     1      -1.067   9.936   1.390  0.00  0.00    +0.034 A 
ATOM     24  C   UNL     1      -0.447  10.648   0.380  0.00  0.00    +0.126 A 
ATOM     25  C   UNL     1       0.029   9.992  -0.741  0.00  0.00    +0.034 A 
ATOM     26  C   UNL     1      -0.113   8.623  -0.854  0.00  0.00    +0.026 A 
BRANCH  24  27
ATOM     27  N   UNL     1      -0.293  12.115   0.498  0.00  0.00    +0.056 N 
ATOM     28  O   UNL     1       0.253  12.744  -0.391  0.00  0.00    -0.126 OA
ATOM     29  O   UNL     1      -0.712  12.694   1.484  0.00  0.00    -0.126 OA
ENDBRANCH  24  27
ENDBRANCH  18  21
ENDBRANCH  16  19
ENDBRANCH   1  16
TORSDOF 7
