REMARK  Name = ZINC15857505
REMARK  8 active torsions:
REMARK  status: ('A' for Active; 'I' for Inactive)
REMARK    1  A    between atoms: C_4  and  C_7
REMARK    2  A    between atoms: C_7  and  O_9
REMARK    3  A    between atoms: O_9  and  C_10
REMARK    4  A    between atoms: C_13  and  C_16
REMARK    5  A    between atoms: N_17  and  N_18
REMARK    6  A    between atoms: C_23  and  C_26
REMARK    7  A    between atoms: C_26  and  C_27
REMARK    8  A    between atoms: N_29  and  C_30
REMARK                            x       y       z     vdW  Elec       q    Type
REMARK                         _______ _______ _______ _____ _____    ______ ____
ROOT
ATOM      1  N   UNL     1       9.606  -6.921  -0.472  0.00  0.00    -0.127 NA
ATOM      2  C   UNL     1       9.563  -8.236  -0.524  0.00  0.00    +0.183 C 
ATOM      3  N   UNL     1       8.451  -9.051  -0.540  0.00  0.00    -0.263 N 
ATOM      4  C   UNL     1       8.538 -10.369  -0.595  0.00  0.00    +0.233 C 
ATOM      5  O   UNL     1       7.556 -11.080  -0.610  0.00  0.00    -0.274 OA
ATOM      6  C   UNL     1       9.948 -10.938  -0.639  0.00  0.00    +0.149 C 
ATOM      7  S   UNL     1      10.931  -9.383  -0.598  0.00  0.00    -0.075 S 
ATOM      8  H   UNL     1       7.572  -8.643  -0.511  0.00  0.00    +0.157 HD
ENDROOT
BRANCH   1  10
ATOM      9  C   UNL     1       8.554  -4.938  -0.370  0.00  0.00    +0.143 C 
ATOM     10  N   UNL     1       8.511  -6.241  -0.422  0.00  0.00    -0.155 NA
BRANCH   9  14
ATOM     11  C   UNL     1       4.952  -2.701  -0.208  0.00  0.00    +0.132 A 
ATOM     12  C   UNL     1       6.176  -2.044  -0.205  0.00  0.00    +0.047 A 
ATOM     13  C   UNL     1       7.348  -2.765  -0.258  0.00  0.00    +0.013 A 
ATOM     14  C   UNL     1       7.305  -4.162  -0.313  0.00  0.00    -0.005 A 
ATOM     15  C   UNL     1       6.070  -4.819  -0.316  0.00  0.00    +0.013 A 
ATOM     16  C   UNL     1       4.904  -4.089  -0.258  0.00  0.00    +0.047 A 
BRANCH  11  17
ATOM     17  O   UNL     1       3.798  -1.985  -0.157  0.00  0.00    -0.422 OA
BRANCH  17  18
ATOM     18  C   UNL     1       3.398  -1.351  -1.275  0.00  0.00    +0.344 C 
ATOM     19  O   UNL     1       4.106  -1.353  -2.262  0.00  0.00    -0.245 OA
BRANCH  18  23
ATOM     20  C   UNL     1      -0.343   0.658  -1.352  0.00  0.00    +0.000 A 
ATOM     21  C   UNL     1       0.462   0.658  -2.478  0.00  0.00    +0.001 A 
ATOM     22  C   UNL     1       1.678   0.007  -2.460  0.00  0.00    +0.015 A 
ATOM     23  C   UNL     1       2.097  -0.651  -1.302  0.00  0.00    +0.059 A 
ATOM     24  C   UNL     1       1.280  -0.647  -0.170  0.00  0.00    +0.015 A 
ATOM     25  C   UNL     1       0.066   0.008  -0.202  0.00  0.00    +0.001 A 
ENDBRANCH  18  23
ENDBRANCH  17  18
ENDBRANCH  11  17
ENDBRANCH   9  14
ENDBRANCH   1  10
BRANCH   6  26
ATOM     26  C   UNL     1      10.231 -11.813   0.584  0.00  0.00    +0.120 C 
BRANCH  26  27
ATOM     27  C   UNL     1      11.588 -12.453   0.440  0.00  0.00    +0.219 C 
ATOM     28  O   UNL     1      12.262 -12.231  -0.544  0.00  0.00    -0.275 OA
ATOM     29  N   UNL     1      12.052 -13.272   1.405  0.00  0.00    -0.285 N 
ATOM     30  H   UNL     1      11.481 -13.516   2.149  0.00  0.00    +0.155 HD
BRANCH  29  31
ATOM     31  C   UNL     1      13.358 -13.769   1.331  0.00  0.00    +0.033 A 
ATOM     32  C   UNL     1      13.680 -14.972   1.945  0.00  0.00    +0.023 A 
ATOM     33  C   UNL     1      14.970 -15.460   1.871  0.00  0.00    +0.002 A 
ATOM     34  C   UNL     1      15.941 -14.752   1.186  0.00  0.00    +0.000 A 
ATOM     35  C   UNL     1      15.623 -13.553   0.574  0.00  0.00    +0.002 A 
ATOM     36  C   UNL     1      14.334 -13.063   0.640  0.00  0.00    +0.023 A 
ENDBRANCH  29  31
ENDBRANCH  26  27
ENDBRANCH   6  26
TORSDOF 8
