REMARK  Name = ZINC03325582
REMARK  9 active torsions:
REMARK  status: ('A' for Active; 'I' for Inactive)
REMARK    1  A    between atoms: C_1  and  C_2
REMARK    2  A    between atoms: C_5  and  C_8
REMARK    3  A    between atoms: C_8  and  C_38
REMARK    4  A    between atoms: N_11  and  C_15
REMARK    5  A    between atoms: C_15  and  C_16
REMARK    6  A    between atoms: C_19  and  C_30
REMARK    7  A    between atoms: C_22  and  C_24
REMARK    8  A    between atoms: C_33  and  O_36
REMARK    9  A    between atoms: O_36  and  C_37
REMARK                            x       y       z     vdW  Elec       q    Type
REMARK                         _______ _______ _______ _____ _____    ______ ____
ROOT
ATOM      1  C   UNL     1       2.495  -7.598   1.643  0.00  0.00    +0.250 C 
ATOM      2  O   UNL     1       1.421  -7.994   1.242  0.00  0.00    -0.272 OA
ATOM      3  N   UNL     1       3.299  -8.424   2.342  0.00  0.00    -0.210 N 
ATOM      4  C   UNL     1       3.033  -9.827   2.699  0.00  0.00    +0.152 C 
ATOM      5  C   UNL     1       4.255 -10.265   3.474  0.00  0.00    +0.027 C 
ATOM      6  C   UNL     1       5.084  -9.227   3.531  0.00  0.00    +0.050 C 
ATOM      7  N   UNL     1       4.562  -8.123   2.871  0.00  0.00    -0.261 N 
ATOM      8  H   UNL     1       5.006  -7.264   2.790  0.00  0.00    +0.170 HD
ENDROOT
BRANCH   6   9
ATOM      9  C   UNL     1       6.401  -9.247   4.208  0.00  0.00    -0.003 A 
ATOM     10  C   UNL     1       6.847 -10.409   4.837  0.00  0.00    +0.010 A 
ATOM     11  C   UNL     1       8.075 -10.423   5.466  0.00  0.00    +0.001 A 
ATOM     12  C   UNL     1       8.863  -9.286   5.474  0.00  0.00    +0.000 A 
ATOM     13  C   UNL     1       8.426  -8.130   4.852  0.00  0.00    +0.001 A 
ATOM     14  C   UNL     1       7.203  -8.106   4.215  0.00  0.00    +0.010 A 
ENDBRANCH   6   9
BRANCH   4  15
ATOM     15  C   UNL     1       1.799  -9.924   3.559  0.00  0.00    -0.021 A 
ATOM     16  C   UNL     1       1.565  -8.976   4.538  0.00  0.00    +0.009 A 
ATOM     17  C   UNL     1       0.435  -9.063   5.329  0.00  0.00    +0.046 A 
ATOM     18  C   UNL     1      -0.464 -10.103   5.140  0.00  0.00    +0.120 A 
ATOM     19  C   UNL     1      -0.226 -11.052   4.157  0.00  0.00    +0.046 A 
ATOM     20  C   UNL     1       0.902 -10.958   3.365  0.00  0.00    +0.009 A 
BRANCH  18  21
ATOM     21  O   UNL     1      -1.576 -10.191   5.917  0.00  0.00    -0.495 OA
ATOM     22  C   UNL     1      -2.457 -11.287   5.666  0.00  0.00    +0.277 C 
ENDBRANCH  18  21
ENDBRANCH   4  15
BRANCH   1  23
ATOM     23  C   UNL     1       2.931  -6.184   1.360  0.00  0.00    +0.215 C 
BRANCH  23  27
ATOM     24  C   UNL     1       0.059  -4.275  -0.021  0.00  0.00    +0.135 C 
ATOM     25  C   UNL     1       0.874  -4.805   1.142  0.00  0.00    +0.251 C 
ATOM     26  O   UNL     1       0.656  -4.640   2.324  0.00  0.00    -0.272 OA
ATOM     27  N   UNL     1       1.890  -5.497   0.591  0.00  0.00    -0.215 N 
ATOM     28  C   UNL     1       1.832  -5.479  -0.746  0.00  0.00    +0.310 C 
ATOM     29  O   UNL     1       2.639  -6.033  -1.465  0.00  0.00    -0.252 OA
ATOM     30  N   UNL     1       0.779  -4.778  -1.205  0.00  0.00    -0.281 N 
ATOM     31  C   UNL     1      -1.366  -4.831   0.018  0.00  0.00    +0.047 C 
ATOM     32  H   UNL     1       0.540  -4.632  -2.133  0.00  0.00    +0.152 HD
BRANCH  24  37
ATOM     33  C   UNL     1      -0.018   1.503   0.010  0.00  0.00    +0.044 C 
ATOM     34  C   UNL     1       0.002  -0.004   0.002  0.00  0.00    -0.050 A 
ATOM     35  C   UNL     1       0.006  -0.689  -1.199  0.00  0.00    +0.004 A 
ATOM     36  C   UNL     1       0.025  -2.071  -1.206  0.00  0.00    +0.006 A 
ATOM     37  C   UNL     1       0.040  -2.768  -0.013  0.00  0.00    -0.015 A 
ATOM     38  C   UNL     1       0.037  -2.084   1.188  0.00  0.00    +0.006 A 
ATOM     39  C   UNL     1       0.023  -0.702   1.195  0.00  0.00    +0.004 A 
ENDBRANCH  24  37
ENDBRANCH  23  27
ENDBRANCH   1  23
TORSDOF 6
