REMARK  Name = ZINC22068856
REMARK  12 active torsions:
REMARK  status: ('A' for Active; 'I' for Inactive)
REMARK    1  A    between atoms: C_1  and  C_2
REMARK    2  A    between atoms: C_6  and  N_8
REMARK    3  A    between atoms: C_14  and  C_16
REMARK    4  A    between atoms: C_16  and  S_17
REMARK    5  A    between atoms: S_17  and  C_18
REMARK    6  A    between atoms: C_21  and  C_24
REMARK    7  A    between atoms: N_22  and  N_23
REMARK    8  A    between atoms: C_24  and  O_25
REMARK    9  A    between atoms: O_25  and  C_26
REMARK   10  A    between atoms: C_29  and  C_32
REMARK   11  A    between atoms: C_32  and  C_33
REMARK   12  A    between atoms: C_32  and  C_34
REMARK                            x       y       z     vdW  Elec       q    Type
REMARK                         _______ _______ _______ _____ _____    ______ ____
ROOT
ATOM      1  C   UNL     1      -0.694  11.273  -4.609  0.00  0.00    +0.209 A 
ATOM      2  N   UNL     1      -1.878  10.713  -4.704  0.00  0.00    -0.121 NA
ATOM      3  N   UNL     1      -2.565  11.298  -5.620  0.00  0.00    -0.128 NA
ATOM      4  C   UNL     1      -1.864  12.252  -6.164  0.00  0.00    +0.189 A 
ATOM      5  N   UNL     1      -0.647  12.270  -5.540  0.00  0.00    -0.225 N 
ENDROOT
BRANCH   5   6
ATOM      6  N   UNL     1       0.399  13.111  -5.795  0.00  0.00    -0.295 N 
ATOM      7  H   UNL     1       0.309  13.879  -6.578  0.00  0.00    +0.163 HD
ATOM      8  H   UNL     1       1.331  13.021  -5.218  0.00  0.00    +0.163 HD
ENDBRANCH   5   6
BRANCH   1   9
ATOM      9  S   UNL     1       0.593  10.817  -3.495  0.00  0.00    -0.075 S 
BRANCH   9  10
ATOM     10  C   UNL     1      -0.217   9.457  -2.618  0.00  0.00    +0.173 C 
BRANCH  10  17
ATOM     11  N   UNL     1      -0.069   5.239   0.030  0.00  0.00    -0.327 N 
ATOM     12  C   UNL     1      -0.860   5.761  -1.092  0.00  0.00    +0.124 C 
ATOM     13  C   UNL     1      -1.007   7.279  -0.947  0.00  0.00    +0.126 C 
ATOM     14  N   UNL     1       0.333   7.867  -0.804  0.00  0.00    -0.298 N 
ATOM     15  C   UNL     1       1.236   7.303   0.211  0.00  0.00    +0.126 C 
ATOM     16  C   UNL     1       1.295   5.784   0.020  0.00  0.00    +0.124 C 
ATOM     17  C   UNL     1       0.724   8.895  -1.584  0.00  0.00    +0.226 C 
ATOM     18  O   UNL     1       1.833   9.367  -1.453  0.00  0.00    -0.275 OA
BRANCH  11  24
ATOM     19  C   UNL     1      -2.514   0.976   0.019  0.00  0.00    +0.044 C 
ATOM     20  C   UNL     1      -1.220   1.749   0.017  0.00  0.00    -0.049 A 
ATOM     21  C   UNL     1      -0.013   1.076   0.008  0.00  0.00    +0.003 A 
ATOM     22  C   UNL     1       1.176   1.782   0.000  0.00  0.00    +0.002 A 
ATOM     23  C   UNL     1       1.161   3.163   0.008  0.00  0.00    +0.023 A 
ATOM     24  C   UNL     1      -0.050   3.842   0.023  0.00  0.00    +0.030 A 
ATOM     25  C   UNL     1      -1.243   3.130   0.031  0.00  0.00    +0.026 A 
ENDBRANCH  11  24
ENDBRANCH  10  17
ENDBRANCH   9  10
ENDBRANCH   1   9
BRANCH   4  26
ATOM     26  C   UNL     1      -2.311  13.166  -7.276  0.00  0.00    +0.306 C 
BRANCH  26  27
ATOM     27  O   UNL     1      -1.973  12.584  -8.536  0.00  0.00    -0.484 OA
BRANCH  27  28
ATOM     28  C   UNL     1      -2.309  13.286  -9.650  0.00  0.00    +0.121 A 
ATOM     29  C   UNL     1      -2.956  14.507  -9.533  0.00  0.00    +0.046 A 
ATOM     30  C   UNL     1      -3.291  15.222 -10.667  0.00  0.00    +0.007 A 
ATOM     31  C   UNL     1      -2.993  14.715 -11.918  0.00  0.00    -0.045 A 
ATOM     32  C   UNL     1      -2.354  13.495 -12.038  0.00  0.00    +0.007 A 
ATOM     33  C   UNL     1      -2.011  12.779 -10.907  0.00  0.00    +0.046 A 
BRANCH  31  34
ATOM     34  C   UNL     1      -3.366  15.493 -13.153  0.00  0.00    +0.013 C 
ATOM     35  C   UNL     1      -4.882  15.699 -13.189  0.00  0.00    +0.012 C 
ATOM     36  C   UNL     1      -2.668  16.854 -13.129  0.00  0.00    +0.012 C 
ENDBRANCH  31  34
ENDBRANCH  27  28
ENDBRANCH  26  27
ENDBRANCH   4  26
TORSDOF 9
