REMARK  Name = ZINC20478434
REMARK  5 active torsions:
REMARK  status: ('A' for Active; 'I' for Inactive)
REMARK    1  A    between atoms: C_6  and  N_7
REMARK    2  A    between atoms: C_8  and  C_10
REMARK    3  A    between atoms: C_10  and  S_11
REMARK    4  A    between atoms: S_11  and  C_12
REMARK    5  A    between atoms: N_17  and  N_18
REMARK                            x       y       z     vdW  Elec       q    Type
REMARK                         _______ _______ _______ _____ _____    ______ ____
ROOT
ATOM      1  C   UNL     1       3.338   2.165  -0.032  0.00  0.00    +0.211 A 
ATOM      2  N   UNL     1       2.437   1.138  -0.028  0.00  0.00    -0.186 NA
ATOM      3  C   UNL     1       1.181   1.677  -0.023  0.00  0.00    +0.232 A 
ATOM      4  N   UNL     1       1.301   2.982  -0.029  0.00  0.00    -0.245 N 
ATOM      5  N   UNL     1       2.667   3.292  -0.029  0.00  0.00    -0.144 NA
ATOM      6  N   UNL     1      -0.012   0.967  -0.019  0.00  0.00    -0.205 N 
ATOM      7  H   UNL     1       0.003  -0.133  -0.015  0.00  0.00    +0.177 HD
ATOM      8  H   UNL     1       0.402   3.617  -0.032  0.00  0.00    +0.192 HD
ENDROOT
BRANCH   6   9
ATOM      9  N   UNL     1      -1.234   1.651  -0.020  0.00  0.00    -0.189 NA
ATOM     10  C   UNL     1      -2.334   0.996  -0.021  0.00  0.00    +0.037 C 
ATOM     11  C   UNL     1      -2.481  -0.511  -0.029  0.00  0.00    +0.052 C 
ATOM     12  C   UNL     1      -3.994  -0.813  -0.034  0.00  0.00    +0.006 C 
ATOM     13  C   UNL     1      -4.622   0.473  -0.629  0.00  0.00    +0.006 C 
ATOM     14  C   UNL     1      -3.733   1.586  -0.022  0.00  0.00    +0.052 C 
ENDBRANCH   6   9
BRANCH   1  15
ATOM     15  S   UNL     1       5.093   2.005  -0.038  0.00  0.00    -0.075 S 
BRANCH  15  16
ATOM     16  C   UNL     1       5.690   3.717  -0.040  0.00  0.00    +0.173 C 
BRANCH  16  18
ATOM     17  N   UNL     1       7.866   4.894  -0.048  0.00  0.00    -0.285 N 
ATOM     18  C   UNL     1       7.197   3.724  -0.046  0.00  0.00    +0.227 C 
ATOM     19  O   UNL     1       7.808   2.676  -0.048  0.00  0.00    -0.275 OA
ATOM     20  H   UNL     1       7.314   5.843  -0.123  0.00  0.00    +0.155 HD
BRANCH  17  26
ATOM     21  C   UNL     1       9.908   5.919   0.735  0.00  0.00    +0.024 A 
ATOM     22  C   UNL     1      11.286   5.920   0.830  0.00  0.00    +0.017 A 
ATOM     23  C   UNL     1      12.024   4.917   0.228  0.00  0.00    +0.018 A 
ATOM     24  C   UNL     1      11.383   3.905  -0.466  0.00  0.00    +0.017 A 
ATOM     25  C   UNL     1      10.005   3.895  -0.559  0.00  0.00    +0.024 A 
ATOM     26  C   UNL     1       9.262   4.902   0.044  0.00  0.00    +0.033 A 
ATOM     27 BR   UNL     1      13.910   4.927   0.353  0.00  0.00    -0.050 Br
ENDBRANCH  17  26
ENDBRANCH  16  18
ENDBRANCH  15  16
ENDBRANCH   1  15
TORSDOF 5
