REMARK  Name = ZINC59461852
REMARK  7 active torsions:
REMARK  status: ('A' for Active; 'I' for Inactive)
REMARK    1  A    between atoms: C_1  and  C_2
REMARK    2  A    between atoms: C_3  and  C_20
REMARK    3  A    between atoms: C_9  and  C_12
REMARK    4  A    between atoms: C_20  and  C_22
REMARK    5  A    between atoms: C_20  and  C_29
REMARK    6  A    between atoms: C_29  and  C_31
REMARK    7  A    between atoms: C_29  and  C_33
REMARK                            x       y       z     vdW  Elec       q    Type
REMARK                         _______ _______ _______ _____ _____    ______ ____
ROOT
ATOM      1  C   UNL     1       0.012   1.444   0.857  0.00  0.00    +0.065 C 
ATOM      2  C   UNL     1      -0.759   1.560  -0.433  0.00  0.00    +0.039 A 
ATOM      3  C   UNL     1      -0.975   2.699  -1.122  0.00  0.00    +0.048 A 
ATOM      4  C   UNL     1      -1.738   2.379  -2.269  0.00  0.00    +0.277 A 
ATOM      5  N   UNL     1      -1.968   1.050  -2.250  0.00  0.00    -0.194 N 
ATOM      6  N   UNL     1      -1.352   0.529  -1.104  0.00  0.00    -0.292 N 
ATOM      7  C   UNL     1      -2.681   0.329  -3.197  0.00  0.00    +0.196 A 
ATOM      8  N   UNL     1      -2.947  -0.964  -3.236  0.00  0.00    -0.221 NA
ATOM      9  C   UNL     1      -3.650  -1.492  -4.227  0.00  0.00    +0.080 A 
ATOM     10  C   UNL     1      -4.110  -0.683  -5.228  0.00  0.00    +0.077 A 
ATOM     11  S   UNL     1      -3.490   0.904  -4.684  0.00  0.00    -0.056 S 
ATOM     12  O   UNL     1      -2.118   3.163  -3.121  0.00  0.00    -0.265 OA
ATOM     13  H   UNL     1      -1.349  -0.403  -0.834  0.00  0.00    +0.187 HD
ENDROOT
BRANCH   9  14
ATOM     14  C   UNL     1      -3.936  -2.947  -4.250  0.00  0.00    +0.001 A 
ATOM     15  C   UNL     1      -4.671  -3.499  -5.298  0.00  0.00    +0.011 A 
ATOM     16  C   UNL     1      -4.934  -4.853  -5.314  0.00  0.00    +0.020 A 
ATOM     17  C   UNL     1      -4.469  -5.664  -4.293  0.00  0.00    +0.041 A 
ATOM     18  C   UNL     1      -3.738  -5.121  -3.250  0.00  0.00    +0.020 A 
ATOM     19  C   UNL     1      -3.465  -3.768  -3.227  0.00  0.00    +0.011 A 
ATOM     20 CL   UNL     1      -4.803  -7.367  -4.320  0.00  0.00    -0.084 Cl
ENDBRANCH   9  14
BRANCH   3  21
ATOM     21  C   UNL     1      -0.489   4.072  -0.737  0.00  0.00    +0.082 C 
BRANCH  21  22
ATOM     22  C   UNL     1      -1.671   4.956  -0.432  0.00  0.00    -0.038 A 
ATOM     23  C   UNL     1      -2.472   5.418  -1.459  0.00  0.00    +0.006 A 
ATOM     24  C   UNL     1      -3.556   6.228  -1.180  0.00  0.00    +0.020 A 
ATOM     25  C   UNL     1      -3.840   6.577   0.129  0.00  0.00    +0.041 A 
ATOM     26  C   UNL     1      -3.038   6.115   1.157  0.00  0.00    +0.020 A 
ATOM     27  C   UNL     1      -1.957   5.300   0.876  0.00  0.00    +0.006 A 
ATOM     28 CL   UNL     1      -5.201   7.596   0.480  0.00  0.00    -0.084 Cl
ENDBRANCH  21  22
BRANCH  21  29
ATOM     29  C   UNL     1       0.312   4.673  -1.894  0.00  0.00    +0.189 C 
BRANCH  29  30
ATOM     30  C   UNL     1       1.494   3.789  -2.199  0.00  0.00    +0.228 C 
ATOM     31  O   UNL     1       2.620   4.232  -2.113  0.00  0.00    -0.275 OA
ATOM     32  N   UNL     1       1.299   2.508  -2.569  0.00  0.00    -0.328 N 
ATOM     33  H   UNL     1       0.399   2.154  -2.638  0.00  0.00    +0.145 HD
ATOM     34  H   UNL     1       2.060   1.939  -2.765  0.00  0.00    +0.145 HD
ENDBRANCH  29  30
BRANCH  29  35
ATOM     35  C   UNL     1       0.786   6.015  -1.518  0.00  0.00    +0.076 C 
ATOM     36  N   UNL     1       1.153   7.050  -1.227  0.00  0.00    -0.196 NA
ENDBRANCH  29  35
ENDBRANCH  21  29
ENDBRANCH   3  21
TORSDOF 6
