REMARK  Name = ZINC12603297
REMARK  7 active torsions:
REMARK  status: ('A' for Active; 'I' for Inactive)
REMARK    1  A    between atoms: C_1  and  C_2
REMARK    2  A    between atoms: C_2  and  C_3
REMARK    3  A    between atoms: C_6  and  N_29
REMARK    4  A    between atoms: C_12  and  C_25
REMARK    5  A    between atoms: C_25  and  O_27
REMARK    6  A    between atoms: O_27  and  C_28
REMARK    7  A    between atoms: C_32  and  O_35
REMARK                            x       y       z     vdW  Elec       q    Type
REMARK                         _______ _______ _______ _____ _____    ______ ____
ROOT
ATOM      1  C   UNL     1      -1.668  -0.554  -0.169  0.00  0.00    +0.056 C 
ATOM      2  C   UNL     1      -1.860  -2.071  -0.107  0.00  0.00    +0.004 C 
ATOM      3  C   UNL     1      -3.339  -2.408  -0.311  0.00  0.00    -0.065 C 
ATOM      4  C   UNL     1      -3.812  -1.827  -1.648  0.00  0.00    +0.010 C 
ATOM      5  C   UNL     1      -3.568  -0.317  -1.649  0.00  0.00    +0.103 C 
ATOM      6  N   UNL     1      -2.132  -0.058  -1.470  0.00  0.00    -0.278 NA
ATOM      7  C   UNL     1      -1.808   1.360  -1.660  0.00  0.00    +0.171 C 
ATOM      8  C   UNL     1      -1.948   1.723  -3.145  0.00  0.00    +0.068 C 
ATOM      9  C   UNL     1      -3.272   1.194  -3.636  0.00  0.00    -0.016 A 
ATOM     10  C   UNL     1      -4.013   0.275  -2.963  0.00  0.00    +0.038 A 
ATOM     11  N   UNL     1      -5.160  -0.003  -3.654  0.00  0.00    -0.356 N 
ATOM     12  H   UNL     1      -5.842  -0.634  -3.373  0.00  0.00    +0.166 HD
ATOM     13  C   UNL     1      -5.202   0.741  -4.799  0.00  0.00    +0.047 A 
ATOM     14  C   UNL     1      -4.002   1.527  -4.839  0.00  0.00    +0.003 A 
ATOM     15  C   UNL     1      -3.742   2.405  -5.896  0.00  0.00    +0.010 A 
ATOM     16  C   UNL     1      -4.681   2.467  -6.896  0.00  0.00    +0.001 A 
ATOM     17  C   UNL     1      -5.835   1.701  -6.872  0.00  0.00    +0.002 A 
ATOM     18  C   UNL     1      -6.143   0.826  -5.822  0.00  0.00    +0.026 A 
ENDROOT
BRANCH   3  19
ATOM     19  N   UNL     1      -4.129  -1.828   0.783  0.00  0.00    +0.383 N 
ATOM     20  C   UNL     1      -5.556  -2.219   0.647  0.00  0.00    -0.076 C 
ATOM     21  C   UNL     1      -6.110  -2.042   2.083  0.00  0.00    +0.011 C 
ATOM     22  C   UNL     1      -4.934  -2.515   2.968  0.00  0.00    +0.096 C 
ATOM     23  C   UNL     1      -3.683  -2.378   2.081  0.00  0.00    -0.047 C 
ATOM     24  H   UNL     1      -4.041  -0.823   0.781  0.00  0.00    -0.081 HD
BRANCH  22  25
ATOM     25  O   UNL     1      -5.122  -3.878   3.356  0.00  0.00    -0.394 OA
ATOM     26  H   UNL     1      -5.919  -4.031   3.881  0.00  0.00    +0.210 HD
ENDBRANCH  22  25
ENDBRANCH   3  19
BRANCH   1  28
ATOM     27  C   UNL     1       0.611  -0.807  -1.159  0.00  0.00    +0.005 C 
ATOM     28  C   UNL     1      -0.186  -0.218   0.006  0.00  0.00    +0.015 C 
ENDBRANCH   1  28
BRANCH   7  29
ATOM     29  C   UNL     1      -2.753   2.205  -0.845  0.00  0.00    +0.325 C 
ATOM     30  O   UNL     1      -3.472   1.686  -0.024  0.00  0.00    -0.249 OA
BRANCH  29  31
ATOM     31  O   UNL     1      -2.797   3.533  -1.032  0.00  0.00    -0.467 OA
ATOM     32  C   UNL     1      -3.717   4.272  -0.225  0.00  0.00    +0.280 C 
ENDBRANCH  29  31
ENDBRANCH   7  29
TORSDOF 5
