REMARK  Name = ZINC63957739
REMARK  11 active torsions:
REMARK  status: ('A' for Active; 'I' for Inactive)
REMARK    1  A    between atoms: C_1  and  C_2
REMARK    2  A    between atoms: C_3  and  C_14
REMARK    3  A    between atoms: N_6  and  C_7
REMARK    4  A    between atoms: N_16  and  C_17
REMARK    5  A    between atoms: C_17  and  C_18
REMARK    6  A    between atoms: C_17  and  C_19
REMARK    7  A    between atoms: C_17  and  C_20
REMARK    8  A    between atoms: C_22  and  C_25
REMARK    9  A    between atoms: C_25  and  C_26
REMARK   10  A    between atoms: C_25  and  C_27
REMARK   11  A    between atoms: C_25  and  C_28
REMARK                            x       y       z     vdW  Elec       q    Type
REMARK                         _______ _______ _______ _____ _____    ______ ____
ROOT
ATOM      1  C   UNL     1      -0.004  -0.358  -2.503  0.00  0.00    +0.267 C 
ATOM      2  O   UNL     1      -0.021   0.831  -2.757  0.00  0.00    -0.268 OA
ATOM      3  N   UNL     1       0.005  -1.261  -3.503  0.00  0.00    -0.298 N 
ATOM      4  H   UNL     1       0.019  -2.210  -3.301  0.00  0.00    +0.150 HD
ENDROOT
BRANCH   1   7
ATOM      5  C   UNL     1      -0.018   1.503   0.010  0.00  0.00    +0.068 C 
ATOM      6  C   UNL     1       0.002  -0.004   0.002  0.00  0.00    +0.074 A 
ATOM      7  C   UNL     1       0.009  -0.813  -1.099  0.00  0.00    +0.170 A 
ATOM      8  N   UNL     1       0.028  -2.092  -0.688  0.00  0.00    -0.124 NA
ATOM      9  N   UNL     1       0.033  -2.131   0.599  0.00  0.00    -0.060 NA
ATOM     10  N   UNL     1       0.023  -0.815   1.082  0.00  0.00    -0.216 N 
BRANCH  10  11
ATOM     11  C   UNL     1       0.031  -0.417   2.427  0.00  0.00    +0.067 A 
ATOM     12  C   UNL     1       0.705   0.736   2.807  0.00  0.00    +0.030 A 
ATOM     13  C   UNL     1       0.711   1.126   4.131  0.00  0.00    +0.040 A 
ATOM     14  C   UNL     1       0.048   0.367   5.081  0.00  0.00    +0.124 A 
ATOM     15  C   UNL     1      -0.625  -0.783   4.704  0.00  0.00    +0.040 A 
ATOM     16  C   UNL     1      -0.639  -1.173   3.379  0.00  0.00    +0.030 A 
ATOM     17  F   UNL     1       0.056   0.750   6.377  0.00  0.00    -0.205 F 
ENDBRANCH  10  11
ENDBRANCH   1   7
BRANCH   3  18
ATOM     18  C   UNL     1      -0.007  -0.810  -4.897  0.00  0.00    +0.092 C 
ATOM     19  C   UNL     1      -1.270   0.016  -5.155  0.00  0.00    +0.040 C 
ATOM     20  C   UNL     1       1.229   0.051  -5.165  0.00  0.00    +0.040 C 
BRANCH  18  21
ATOM     21  C   UNL     1       0.005  -2.007  -5.813  0.00  0.00    +0.194 A 
ATOM     22  N   UNL     1       0.004  -1.963  -7.150  0.00  0.00    -0.193 NA
ATOM     23  C   UNL     1       0.017  -3.173  -7.637  0.00  0.00    +0.233 A 
ATOM     24  O   UNL     1       0.027  -4.037  -6.614  0.00  0.00    -0.337 OA
ATOM     25  N   UNL     1       0.025  -3.252  -5.431  0.00  0.00    -0.059 NA
BRANCH  23  26
ATOM     26  C   UNL     1       0.021  -3.536  -9.100  0.00  0.00    +0.041 C 
ATOM     27  C   UNL     1       1.263  -2.945  -9.769  0.00  0.00    +0.020 C 
ATOM     28  C   UNL     1       0.037  -5.058  -9.247  0.00  0.00    +0.020 C 
ATOM     29  C   UNL     1      -1.235  -2.972  -9.768  0.00  0.00    +0.020 C 
ENDBRANCH  23  26
ENDBRANCH  18  21
ENDBRANCH   3  18
TORSDOF 5
