REMARK  Name = ZINC67232478
REMARK  10 active torsions:
REMARK  status: ('A' for Active; 'I' for Inactive)
REMARK    1  A    between atoms: C_1  and  C_2
REMARK    2  A    between atoms: N_7  and  C_9
REMARK    3  A    between atoms: C_9  and  C_10
REMARK    4  A    between atoms: C_10  and  C_12
REMARK    5  A    between atoms: C_10  and  N_13
REMARK    6  A    between atoms: C_14  and  C_16
REMARK    7  A    between atoms: C_16  and  C_17
REMARK    8  A    between atoms: C_17  and  C_18
REMARK    9  A    between atoms: C_18  and  C_19
REMARK   10  A    between atoms: C_19  and  C_20
REMARK                            x       y       z     vdW  Elec       q    Type
REMARK                         _______ _______ _______ _____ _____    ______ ____
ROOT
ATOM      1  N   UNL     1      -0.082  -4.397   2.396  0.00  0.00    -0.315 N 
ATOM      2  C   UNL     1      -0.388  -5.622   1.923  0.00  0.00    +0.213 C 
ATOM      3  O   UNL     1       0.497  -6.386   1.600  0.00  0.00    -0.276 OA
ATOM      4  H   UNL     1      -0.789  -3.786   2.655  0.00  0.00    +0.149 HD
ENDROOT
BRANCH   1   5
ATOM      5  C   UNL     1       1.320  -3.989   2.519  0.00  0.00    +0.053 C 
ATOM      6  C   UNL     1       1.879  -4.484   3.854  0.00  0.00    +0.026 C 
BRANCH   5   7
ATOM      7  C   UNL     1       1.413  -2.463   2.461  0.00  0.00    -0.057 C 
BRANCH   7  13
ATOM      8  C   UNL     1      -0.019   1.526   0.010  0.00  0.00    +0.005 C 
ATOM      9  C   UNL     1       0.002  -0.004   0.002  0.00  0.00    -0.031 C 
ATOM     10  C   UNL     1       0.721  -0.499  -1.257  0.00  0.00    -0.001 C 
ATOM     11  C   UNL     1       0.805  -2.027  -1.217  0.00  0.00    -0.018 C 
ATOM     12  C   UNL     1       1.518  -2.460   0.066  0.00  0.00    -0.079 C 
ATOM     13  N   UNL     1       0.768  -1.979   1.233  0.00  0.00    +0.381 N 
ATOM     14  C   UNL     1       0.744  -0.512   1.240  0.00  0.00    -0.076 C 
ATOM     15  H   UNL     1      -0.177  -2.330   1.192  0.00  0.00    -0.082 HD
ENDBRANCH   7  13
ENDBRANCH   5   7
ENDBRANCH   1   5
BRANCH   2  16
ATOM     16  C   UNL     1      -1.830  -6.042   1.797  0.00  0.00    +0.096 C 
BRANCH  16  17
ATOM     17  C   UNL     1      -1.899  -7.465   1.240  0.00  0.00    +0.009 C 
BRANCH  17  18
ATOM     18  C   UNL     1      -3.363  -7.891   1.111  0.00  0.00    +0.002 C 
BRANCH  18  19
ATOM     19  C   UNL     1      -3.433  -9.314   0.554  0.00  0.00    +0.016 C 
BRANCH  19  20
ATOM     20  C   UNL     1      -4.897  -9.741   0.425  0.00  0.00    +0.069 C 
ATOM     21  C   UNL     1      -5.010 -11.152  -0.091  0.00  0.00    +0.108 C 
ATOM     22  C   UNL     1      -6.379 -11.306  -0.822  0.00  0.00    +0.105 C 
ATOM     23  C   UNL     1      -6.361 -10.266  -1.940  0.00  0.00    +0.093 C 
ATOM     24  S   UNL     1      -5.748  -8.810  -0.933  0.00  0.00    -0.154 S 
ATOM     25  N   UNL     1      -6.333 -12.722  -1.108  0.00  0.00    -0.294 N 
ATOM     26  C   UNL     1      -5.646 -13.282  -0.067  0.00  0.00    +0.300 C 
ATOM     27  O   UNL     1      -5.625 -14.476   0.161  0.00  0.00    -0.253 OA
ATOM     28  N   UNL     1      -5.005 -12.353   0.692  0.00  0.00    -0.294 N 
ATOM     29  H   UNL     1      -6.710 -13.179  -1.877  0.00  0.00    +0.151 HD
ATOM     30  H   UNL     1      -4.622 -12.481   1.574  0.00  0.00    +0.151 HD
ENDBRANCH  19  20
ENDBRANCH  18  19
ENDBRANCH  17  18
ENDBRANCH  16  17
ENDBRANCH   2  16
TORSDOF 8
