REMARK  Name = ZINC59315508
REMARK  10 active torsions:
REMARK  status: ('A' for Active; 'I' for Inactive)
REMARK    1  A    between atoms: C_1  and  C_2
REMARK    2  A    between atoms: C_10  and  C_11
REMARK    3  A    between atoms: C_11  and  C_13
REMARK    4  A    between atoms: C_11  and  N_14
REMARK    5  A    between atoms: C_15  and  C_17
REMARK    6  A    between atoms: C_17  and  N_18
REMARK    7  A    between atoms: C_21  and  C_25
REMARK    8  A    between atoms: C_21  and  C_26
REMARK    9  A    between atoms: C_29  and  O_32
REMARK   10  A    between atoms: O_32  and  C_33
REMARK                            x       y       z     vdW  Elec       q    Type
REMARK                         _______ _______ _______ _____ _____    ______ ____
ROOT
ATOM      1  C   UNL     1      -2.459  -1.452   5.195  0.00  0.00    +0.213 C 
ENDROOT
BRANCH   1   2
ATOM      2  N   UNL     1      -2.902  -0.682   6.360  0.00  0.00    -0.215 N 
ATOM      3  C   UNL     1      -2.291  -0.707   7.561  0.00  0.00    +0.251 C 
ATOM      4  O   UNL     1      -1.308  -1.347   7.869  0.00  0.00    -0.272 OA
ATOM      5  C   UNL     1      -3.087   0.231   8.446  0.00  0.00    +0.135 C 
ATOM      6  N   UNL     1      -4.155   0.722   7.558  0.00  0.00    -0.281 N 
ATOM      7  C   UNL     1      -3.960   0.137   6.362  0.00  0.00    +0.310 C 
ATOM      8  O   UNL     1      -4.668   0.328   5.393  0.00  0.00    -0.252 OA
ATOM      9  C   UNL     1      -2.212   1.390   8.927  0.00  0.00    +0.047 C 
ATOM     10  H   UNL     1      -4.859   1.347   7.789  0.00  0.00    +0.152 HD
BRANCH   5  11
ATOM     11  C   UNL     1      -3.673  -0.515   9.618  0.00  0.00    -0.015 A 
ATOM     12  C   UNL     1      -3.014  -1.615  10.134  0.00  0.00    +0.010 A 
ATOM     13  C   UNL     1      -3.549  -2.301  11.207  0.00  0.00    +0.046 A 
ATOM     14  C   UNL     1      -4.748  -1.883  11.768  0.00  0.00    +0.120 A 
ATOM     15  C   UNL     1      -5.406  -0.778  11.248  0.00  0.00    +0.046 A 
ATOM     16  C   UNL     1      -4.864  -0.093  10.178  0.00  0.00    +0.010 A 
BRANCH  14  17
ATOM     17  O   UNL     1      -5.276  -2.556  12.824  0.00  0.00    -0.495 OA
ATOM     18  C   UNL     1      -6.513  -2.070  13.350  0.00  0.00    +0.277 C 
ENDBRANCH  14  17
ENDBRANCH   5  11
ENDBRANCH   1   2
BRANCH   1  20
ATOM     19  N   UNL     1      -0.928  -1.145   3.277  0.00  0.00    -0.304 N 
ATOM     20  C   UNL     1      -1.473  -0.636   4.399  0.00  0.00    +0.232 C 
ATOM     21  O   UNL     1      -1.170   0.478   4.769  0.00  0.00    -0.274 OA
ATOM     22  H   UNL     1      -1.171  -2.037   2.981  0.00  0.00    +0.149 HD
BRANCH  19  23
ATOM     23  C   UNL     1       0.030  -0.352   2.503  0.00  0.00    +0.136 C 
ATOM     24  C   UNL     1       1.432  -0.532   3.090  0.00  0.00    +0.036 C 
BRANCH  23  34
ATOM     25  C   UNL     1      -0.018   1.503   0.010  0.00  0.00    +0.048 C 
ATOM     26  C   UNL     1       0.002  -0.004   0.002  0.00  0.00    +0.000 A 
ATOM     27  C   UNL     1       0.009  -0.879  -1.177  0.00  0.00    +0.023 A 
ATOM     28  C   UNL     1       0.000  -0.660  -2.553  0.00  0.00    +0.012 A 
ATOM     29  C   UNL     1       0.011  -1.726  -3.409  0.00  0.00    +0.001 A 
ATOM     30  C   UNL     1       0.031  -3.023  -2.916  0.00  0.00    +0.004 A 
ATOM     31  C   UNL     1       0.040  -3.259  -1.558  0.00  0.00    +0.047 A 
ATOM     32  C   UNL     1       0.029  -2.190  -0.671  0.00  0.00    +0.136 A 
ATOM     33  O   UNL     1       0.033  -2.100   0.674  0.00  0.00    -0.458 OA
ATOM     34  C   UNL     1       0.023  -0.814   1.069  0.00  0.00    +0.129 A 
ENDBRANCH  23  34
ENDBRANCH  19  23
ENDBRANCH   1  20
TORSDOF 6
