REMARK  Name = ZINC14131025
REMARK  11 active torsions:
REMARK  status: ('A' for Active; 'I' for Inactive)
REMARK    1  A    between atoms: C_1  and  C_2
REMARK    2  A    between atoms: C_2  and  C_3
REMARK    3  A    between atoms: C_3  and  N_4
REMARK    4  A    between atoms: C_17  and  S_18
REMARK    5  A    between atoms: S_18  and  C_19
REMARK    6  A    between atoms: C_19  and  C_21
REMARK    7  A    between atoms: C_19  and  C_22
REMARK    8  A    between atoms: N_27  and  C_28
REMARK    9  A    between atoms: C_28  and  C_29
REMARK   10  A    between atoms: C_29  and  C_30
REMARK   11  A    between atoms: C_29  and  C_31
REMARK                            x       y       z     vdW  Elec       q    Type
REMARK                         _______ _______ _______ _____ _____    ______ ____
ROOT
ATOM      1  N   UNL     1      -1.542  -3.185   0.000  0.00  0.00    -0.277 N 
ATOM      2  C   UNL     1      -2.875  -2.980   0.015  0.00  0.00    +0.263 A 
ATOM      3  O   UNL     1      -3.646  -3.921   0.018  0.00  0.00    -0.267 OA
ATOM      4  C   UNL     1      -3.381  -1.595   0.027  0.00  0.00    +0.064 A 
ATOM      5  C   UNL     1      -4.749  -1.325   0.043  0.00  0.00    +0.015 A 
ATOM      6  C   UNL     1      -5.184  -0.017   0.054  0.00  0.00    +0.001 A 
ATOM      7  C   UNL     1      -4.271   1.026   0.051  0.00  0.00    +0.002 A 
ATOM      8  C   UNL     1      -2.914   0.771   0.035  0.00  0.00    +0.027 A 
ATOM      9  C   UNL     1      -2.458  -0.539   0.022  0.00  0.00    +0.064 A 
ATOM     10  N   UNL     1      -1.094  -0.824   0.008  0.00  0.00    -0.256 N 
ATOM     11  C   UNL     1      -0.655  -2.119  -0.003  0.00  0.00    +0.240 A 
ATOM     12  N   UNL     1       0.659  -2.098  -0.015  0.00  0.00    -0.109 NA
ATOM     13  N   UNL     1       1.073  -0.760  -0.018  0.00  0.00    -0.120 NA
ATOM     14  C   UNL     1       0.002  -0.004   0.002  0.00  0.00    +0.198 A 
ENDROOT
BRANCH   1  15
ATOM     15  C   UNL     1      -1.024  -4.555  -0.012  0.00  0.00    +0.128 C 
BRANCH  15  17
ATOM     16  C   UNL     1      -0.287  -6.470   1.413  0.00  0.00    +0.005 C 
ATOM     17  C   UNL     1      -0.829  -5.040   1.426  0.00  0.00    +0.018 C 
ENDBRANCH  15  17
ENDBRANCH   1  15
BRANCH  14  18
ATOM     18  S   UNL     1      -0.022   1.758   0.012  0.00  0.00    -0.073 S 
BRANCH  18  19
ATOM     19  C   UNL     1       1.732   2.220  -0.003  0.00  0.00    +0.137 C 
ATOM     20  C   UNL     1       2.393   1.754   1.296  0.00  0.00    +0.029 C 
BRANCH  19  21
ATOM     21  C   UNL     1       1.856   3.718  -0.119  0.00  0.00    +0.233 C 
ATOM     22  O   UNL     1       0.951   4.432   0.258  0.00  0.00    -0.274 OA
ATOM     23  N   UNL     1       2.971   4.263  -0.643  0.00  0.00    -0.239 N 
ATOM     24  C   UNL     1       3.082   5.602  -0.748  0.00  0.00    +0.306 C 
ATOM     25  O   UNL     1       2.175   6.318  -0.370  0.00  0.00    -0.252 OA
ATOM     26  N   UNL     1       4.197   6.147  -1.272  0.00  0.00    -0.299 N 
ATOM     27  H   UNL     1       3.695   3.692  -0.945  0.00  0.00    +0.159 HD
ATOM     28  H   UNL     1       4.921   5.576  -1.573  0.00  0.00    +0.150 HD
BRANCH  26  29
ATOM     29  C   UNL     1       4.318   7.603  -1.385  0.00  0.00    +0.108 C 
BRANCH  29  30
ATOM     30  C   UNL     1       5.670   7.956  -2.008  0.00  0.00    -0.000 C 
ATOM     31  C   UNL     1       5.745   9.466  -2.241  0.00  0.00    +0.009 C 
ATOM     32  C   UNL     1       6.794   7.530  -1.061  0.00  0.00    +0.009 C 
ENDBRANCH  29  30
ENDBRANCH  26  29
ENDBRANCH  19  21
ENDBRANCH  18  19
ENDBRANCH  14  18
TORSDOF 7
