REMARK  Name = ZINC14424881
REMARK  6 active torsions:
REMARK  status: ('A' for Active; 'I' for Inactive)
REMARK    1  A    between atoms: C_1  and  C_2
REMARK    2  A    between atoms: C_2  and  C_4
REMARK    3  A    between atoms: C_2  and  N_12
REMARK    4  A    between atoms: C_13  and  C_15
REMARK    5  A    between atoms: C_15  and  N_16
REMARK    6  A    between atoms: C_23  and  N_27
REMARK                            x       y       z     vdW  Elec       q    Type
REMARK                         _______ _______ _______ _____ _____    ______ ____
ROOT
ATOM      1  C   UNL     1       2.462   0.920  -0.017  0.00  0.00    +0.212 C 
ENDROOT
BRANCH   1   2
ATOM      2  N   UNL     1       3.562   1.887  -0.022  0.00  0.00    -0.225 N 
ATOM      3  C   UNL     1       4.145   2.383   1.085  0.00  0.00    +0.254 C 
ATOM      4  O   UNL     1       3.846   2.105   2.228  0.00  0.00    -0.270 OA
ATOM      5  C   UNL     1       5.210   3.323   0.675  0.00  0.00    +0.052 A 
ATOM      6  C   UNL     1       6.120   4.112   1.360  0.00  0.00    +0.014 A 
ATOM      7  C   UNL     1       7.012   4.904   0.653  0.00  0.00    +0.003 A 
ATOM      8  C   UNL     1       6.998   4.911  -0.730  0.00  0.00    +0.033 A 
ATOM      9  C   UNL     1       6.093   4.128  -1.428  0.00  0.00    +0.139 A 
ATOM     10  C   UNL     1       5.196   3.331  -0.734  0.00  0.00    +0.080 A 
ATOM     11  C   UNL     1       4.127   2.391  -1.134  0.00  0.00    +0.256 C 
ATOM     12  O   UNL     1       3.810   2.122  -2.275  0.00  0.00    -0.269 OA
BRANCH   9  13
ATOM     13  N   UNL     1       6.085   4.141  -2.908  0.00  0.00    +0.057 N 
ATOM     14  O   UNL     1       6.875   4.842  -3.515  0.00  0.00    -0.126 OA
ATOM     15  O   UNL     1       5.289   3.451  -3.519  0.00  0.00    -0.126 OA
ENDBRANCH   9  13
ENDBRANCH   1   2
BRANCH   1  17
ATOM     16  N   UNL     1      -0.011   0.966   0.007  0.00  0.00    -0.307 N 
ATOM     17  C   UNL     1       1.147   1.655   0.000  0.00  0.00    +0.231 C 
ATOM     18  O   UNL     1       1.130   2.868   0.007  0.00  0.00    -0.274 OA
ATOM     19  H   UNL     1       0.002  -0.004   0.002  0.00  0.00    +0.149 HD
BRANCH  16  21
ATOM     20  C   UNL     1      -1.680   2.047  -1.416  0.00  0.00    +0.033 C 
ATOM     21  C   UNL     1      -1.290   1.681   0.017  0.00  0.00    +0.100 C 
BRANCH  21  22
ATOM     22  C   UNL     1      -2.354   0.799   0.618  0.00  0.00    -0.026 A 
ATOM     23  C   UNL     1      -2.387  -0.549   0.313  0.00  0.00    +0.007 A 
ATOM     24  C   UNL     1      -3.360  -1.360   0.867  0.00  0.00    +0.022 A 
ATOM     25  C   UNL     1      -4.307  -0.821   1.719  0.00  0.00    +0.059 A 
ATOM     26  C   UNL     1      -4.277   0.530   2.020  0.00  0.00    +0.060 A 
ATOM     27  C   UNL     1      -3.299   1.340   1.469  0.00  0.00    +0.027 A 
ATOM     28 CL   UNL     1      -5.465   1.209   3.089  0.00  0.00    -0.082 Cl
ATOM     29 CL   UNL     1      -5.533  -1.837   2.410  0.00  0.00    -0.082 Cl
ENDBRANCH  21  22
ENDBRANCH  16  21
ENDBRANCH   1  17
TORSDOF 5
