REMARK  Name = ZINC09833607
REMARK  5 active torsions:
REMARK  status: ('A' for Active; 'I' for Inactive)
REMARK    1  A    between atoms: C_1  and  O_2
REMARK    2  A    between atoms: O_2  and  C_3
REMARK    3  A    between atoms: C_3  and  C_5
REMARK    4  A    between atoms: C_18  and  C_21
REMARK    5  A    between atoms: C_25  and  N_27
REMARK                            x       y       z     vdW  Elec       q    Type
REMARK                         _______ _______ _______ _____ _____    ______ ____
ROOT
ATOM      1  C   UNL     1      -1.228   1.758   0.017  0.00  0.00    +0.065 A 
ATOM      2  C   UNL     1      -0.013   1.076   0.008  0.00  0.00    +0.017 A 
ATOM      3  C   UNL     1       1.172   1.783   0.000  0.00  0.00    +0.022 A 
ATOM      4  C   UNL     1       1.150   3.164   0.008  0.00  0.00    +0.062 A 
ATOM      5  C   UNL     1      -0.063   3.857   0.024  0.00  0.00    +0.051 A 
ATOM      6  C   UNL     1      -1.254   3.160   0.032  0.00  0.00    -0.004 A 
ATOM      7  C   UNL     1      -2.592   3.839   0.054  0.00  0.00    +0.049 C 
ATOM      8  C   UNL     1      -3.248   3.678   1.406  0.00  0.00    -0.023 C 
ATOM      9  C   UNL     1      -3.849   4.803   1.751  0.00  0.00    -0.030 C 
ATOM     10  C   UNL     1      -3.701   5.845   0.660  0.00  0.00    +0.033 C 
ATOM     11  C   UNL     1      -2.456   5.365  -0.137  0.00  0.00    +0.029 C 
ATOM     12  C   UNL     1      -1.197   5.845   0.589  0.00  0.00    +0.105 C 
ATOM     13  N   UNL     1      -0.018   5.253   0.029  0.00  0.00    -0.335 N 
ATOM     14 CL   UNL     1       2.644   4.047  -0.002  0.00  0.00    -0.082 Cl
ATOM     15  H   UNL     1       0.821   5.586   0.480  0.00  0.00    +0.147 HD
ENDROOT
BRANCH  12  16
ATOM     16  C   UNL     1      -1.108   7.347   0.501  0.00  0.00    -0.025 A 
ATOM     17  C   UNL     1      -0.629   7.944  -0.651  0.00  0.00    +0.007 A 
ATOM     18  C   UNL     1      -0.547   9.321  -0.733  0.00  0.00    +0.022 A 
ATOM     19  C   UNL     1      -0.944  10.102   0.338  0.00  0.00    +0.071 A 
ATOM     20  C   UNL     1      -1.422   9.504   1.490  0.00  0.00    +0.145 A 
ATOM     21  C   UNL     1      -1.509   8.127   1.569  0.00  0.00    +0.039 A 
ATOM     22 CL   UNL     1      -0.841  11.832   0.236  0.00  0.00    -0.081 Cl
BRANCH  20  23
ATOM     23  N   UNL     1      -1.847  10.339   2.636  0.00  0.00    +0.058 N 
ATOM     24  O   UNL     1      -2.268   9.813   3.650  0.00  0.00    -0.126 OA
ATOM     25  O   UNL     1      -1.775  11.553   2.565  0.00  0.00    -0.126 OA
ENDBRANCH  20  23
ENDBRANCH  12  16
BRANCH   1  26
ATOM     26  C   UNL     1      -2.495   1.000   0.018  0.00  0.00    +0.339 C 
ATOM     27  O   UNL     1      -3.557   1.591   0.026  0.00  0.00    -0.245 OA
BRANCH  26  29
ATOM     28  C   UNL     1      -3.758  -1.027   0.009  0.00  0.00    +0.280 C 
ATOM     29  O   UNL     1      -2.475  -0.347   0.008  0.00  0.00    -0.464 OA
ENDBRANCH  26  29
ENDBRANCH   1  26
TORSDOF 4
