REMARK  Name = ZINC09891800
REMARK  8 active torsions:
REMARK  status: ('A' for Active; 'I' for Inactive)
REMARK    1  A    between atoms: C_1  and  C_2
REMARK    2  A    between atoms: C_4  and  C_24
REMARK    3  A    between atoms: C_5  and  C_23
REMARK    4  A    between atoms: N_6  and  C_7
REMARK    5  A    between atoms: C_10  and  O_13
REMARK    6  A    between atoms: O_13  and  C_14
REMARK    7  A    between atoms: C_17  and  N_20
REMARK    8  A    between atoms: N_31  and  C_34
REMARK                            x       y       z     vdW  Elec       q    Type
REMARK                         _______ _______ _______ _____ _____    ______ ____
ROOT
ATOM      1  C   UNL     1      -6.173  10.677   1.881  0.00  0.00    +0.064 C 
ATOM      2  C   UNL     1      -5.159  10.849   0.781  0.00  0.00    +0.022 A 
ATOM      3  C   UNL     1      -4.730  12.025   0.295  0.00  0.00    +0.031 A 
ATOM      4  C   UNL     1      -3.752  11.708  -0.757  0.00  0.00    -0.003 A 
ATOM      5  C   UNL     1      -3.679  10.323  -0.802  0.00  0.00    +0.028 A 
ATOM      6  N   UNL     1      -4.529   9.831   0.118  0.00  0.00    -0.317 N 
ATOM      7  C   UNL     1      -2.804   9.513  -1.722  0.00  0.00    +0.064 C 
ENDROOT
BRANCH   4   8
ATOM      8  C   UNL     1      -3.030  12.627  -1.555  0.00  0.00    +0.028 C 
ATOM      9  C   UNL     1      -2.384  13.700  -0.963  0.00  0.00    +0.102 C 
ATOM     10  C   UNL     1      -2.258  13.810   0.502  0.00  0.00    +0.276 C 
ATOM     11  O   UNL     1      -2.723  12.957   1.235  0.00  0.00    -0.268 OA
ATOM     12  N   UNL     1      -1.616  14.883   1.008  0.00  0.00    -0.123 NA
ATOM     13  C   UNL     1      -1.100  15.831   0.212  0.00  0.00    +0.335 C 
ATOM     14  O   UNL     1      -0.532  16.771   0.731  0.00  0.00    -0.250 OA
ATOM     15  N   UNL     1      -1.177  15.795  -1.126  0.00  0.00    -0.223 N 
ATOM     16  C   UNL     1      -1.786  14.779  -1.771  0.00  0.00    +0.259 C 
ATOM     17  O   UNL     1      -1.845  14.756  -2.986  0.00  0.00    -0.269 OA
ATOM     18  C   UNL     1      -0.579  16.882  -1.905  0.00  0.00    +0.143 C 
ENDBRANCH   4   8
BRANCH   6  19
ATOM     19  C   UNL     1      -4.736   8.466   0.367  0.00  0.00    +0.047 A 
ATOM     20  C   UNL     1      -5.975   7.894   0.112  0.00  0.00    +0.030 A 
ATOM     21  C   UNL     1      -6.178   6.550   0.357  0.00  0.00    +0.048 A 
ATOM     22  C   UNL     1      -5.144   5.772   0.859  0.00  0.00    +0.130 A 
ATOM     23  C   UNL     1      -3.907   6.345   1.118  0.00  0.00    +0.048 A 
ATOM     24  C   UNL     1      -3.701   7.687   0.868  0.00  0.00    +0.030 A 
BRANCH  22  25
ATOM     25  O   UNL     1      -5.344   4.450   1.100  0.00  0.00    -0.438 OA
BRANCH  25  26
ATOM     26  C   UNL     1      -5.391   3.608   0.038  0.00  0.00    +0.221 A 
ATOM     27  C   UNL     1      -5.489   2.238   0.249  0.00  0.00    +0.070 A 
ATOM     28  C   UNL     1      -5.535   1.390  -0.844  0.00  0.00    +0.039 A 
ATOM     29  C   UNL     1      -5.480   1.945  -2.115  0.00  0.00    +0.144 A 
ATOM     30  C   UNL     1      -5.376   3.315  -2.251  0.00  0.00    +0.147 A 
ATOM     31  N   UNL     1      -5.340   4.099  -1.190  0.00  0.00    -0.219 NA
BRANCH  29  32
ATOM     32  N   UNL     1      -5.526   1.076  -3.313  0.00  0.00    +0.058 N 
ATOM     33  O   UNL     1      -5.612  -0.132  -3.186  0.00  0.00    -0.126 OA
ATOM     34  O   UNL     1      -5.482   1.570  -4.426  0.00  0.00    -0.126 OA
ENDBRANCH  29  32
ENDBRANCH  25  26
ENDBRANCH  22  25
ENDBRANCH   6  19
TORSDOF 5
