REMARK  Name = ZINC20612287
REMARK  7 active torsions:
REMARK  status: ('A' for Active; 'I' for Inactive)
REMARK    1  A    between atoms: C_1  and  C_2
REMARK    2  A    between atoms: C_2  and  C_3
REMARK    3  A    between atoms: C_3  and  N_4
REMARK    4  A    between atoms: C_6  and  C_15
REMARK    5  A    between atoms: N_9  and  C_12
REMARK    6  A    between atoms: C_12  and  C_13
REMARK    7  A    between atoms: C_13  and  C_14
REMARK                            x       y       z     vdW  Elec       q    Type
REMARK                         _______ _______ _______ _____ _____    ______ ____
ROOT
ATOM      1  C   UNL     1       3.687  -0.707  -0.036  0.00  0.00    +0.018 C 
ATOM      2  C   UNL     1       4.413  -0.408  -1.327  0.00  0.00    +0.011 A 
ATOM      3  C   UNL     1       5.736  -0.118  -1.375  0.00  0.00    -0.022 A 
ATOM      4  C   UNL     1       6.070   0.116  -2.762  0.00  0.00    +0.003 A 
ATOM      5  C   UNL     1       7.264   0.447  -3.410  0.00  0.00    +0.010 A 
ATOM      6  C   UNL     1       7.211   0.596  -4.773  0.00  0.00    +0.001 A 
ATOM      7  C   UNL     1       6.035   0.427  -5.487  0.00  0.00    +0.002 A 
ATOM      8  C   UNL     1       4.839   0.099  -4.872  0.00  0.00    +0.026 A 
ATOM      9  C   UNL     1       4.863  -0.058  -3.488  0.00  0.00    +0.047 A 
ATOM     10  N   UNL     1       3.886  -0.372  -2.586  0.00  0.00    -0.359 N 
ATOM     11  H   UNL     1       2.818  -0.581  -2.742  0.00  0.00    +0.166 HD
ATOM     12  C   UNL     1       6.623  -0.073  -0.156  0.00  0.00    +0.018 C 
ATOM     13  C   UNL     1       5.886  -0.770   0.995  0.00  0.00    -0.076 C 
ATOM     14  N   UNL     1       4.516  -0.245   1.088  0.00  0.00    +0.388 N 
ATOM     15  H   UNL     1       4.563   0.854   1.083  0.00  0.00    -0.084 HD
ATOM     16  H   UNL     1       4.075  -0.589   2.035  0.00  0.00    -0.084 HD
ENDROOT
BRANCH   1  19
ATOM     17  N   UNL     1       0.002  -0.004   0.002  0.00  0.00    -0.261 N 
ATOM     18  C   UNL     1       1.194  -0.683  -0.013  0.00  0.00    +0.262 A 
ATOM     19  C   UNL     1       2.364   0.016  -0.020  0.00  0.00    +0.073 A 
ATOM     20  C   UNL     1       2.321   1.422  -0.012  0.00  0.00    +0.262 A 
ATOM     21  O   UNL     1       3.354   2.068  -0.019  0.00  0.00    -0.267 OA
ATOM     22  N   UNL     1       1.128   2.050   0.002  0.00  0.00    -0.261 N 
ATOM     23  C   UNL     1      -0.016   1.341   0.009  0.00  0.00    +0.335 A 
ATOM     24  O   UNL     1      -1.082   1.926   0.018  0.00  0.00    -0.246 OA
ATOM     25  O   UNL     1       1.208  -2.033  -0.021  0.00  0.00    -0.267 OA
BRANCH  17  26
ATOM     26  C   UNL     1      -1.259  -0.749   0.009  0.00  0.00    +0.130 C 
BRANCH  26  28
ATOM     27  C   UNL     1      -3.029  -1.778  -1.422  0.00  0.00    +0.005 C 
ATOM     28  C   UNL     1      -1.712  -1.000  -1.430  0.00  0.00    +0.018 C 
ENDBRANCH  26  28
ENDBRANCH  17  26
BRANCH  22  29
ATOM     29  C   UNL     1       1.077   3.514   0.011  0.00  0.00    +0.130 C 
BRANCH  29  30
ATOM     30  C   UNL     1       1.073   4.016   1.456  0.00  0.00    +0.018 C 
ATOM     31  C   UNL     1       1.020   5.545   1.465  0.00  0.00    +0.005 C 
ENDBRANCH  29  30
ENDBRANCH  22  29
ENDBRANCH   1  19
TORSDOF 5
