REMARK  Name = ZINC08818991
REMARK  10 active torsions:
REMARK  status: ('A' for Active; 'I' for Inactive)
REMARK    1  A    between atoms: C_1  and  C_2
REMARK    2  A    between atoms: C_2  and  C_3
REMARK    3  A    between atoms: C_2  and  C_4
REMARK    4  A    between atoms: C_4  and  C_6
REMARK    5  A    between atoms: C_4  and  N_8
REMARK    6  A    between atoms: C_12  and  C_13
REMARK    7  A    between atoms: C_16  and  C_18
REMARK    8  A    between atoms: C_21  and  O_27
REMARK    9  A    between atoms: C_23  and  N_24
REMARK   10  A    between atoms: O_27  and  C_28
REMARK                            x       y       z     vdW  Elec       q    Type
REMARK                         _______ _______ _______ _____ _____    ______ ____
ROOT
ATOM      1  C   UNL     1      -0.830  -2.272  -0.001  0.00  0.00    +0.130 A 
ATOM      2  C   UNL     1      -1.841  -3.333   0.009  0.00  0.00    +0.050 A 
ATOM      3  C   UNL     1      -1.161  -4.510  -0.009  0.00  0.00    +0.050 A 
ATOM      4  C   UNL     1       0.218  -4.205  -0.020  0.00  0.00    +0.138 A 
ATOM      5  O   UNL     1       0.381  -2.871  -0.016  0.00  0.00    -0.455 OA
ENDROOT
BRANCH   1  10
ATOM      6  N   UNL     1       2.263   0.777  -0.015  0.00  0.00    -0.241 N 
ATOM      7  C   UNL     1       1.469  -0.282  -0.013  0.00  0.00    +0.259 C 
ATOM      8  O   UNL     1       1.908  -1.414  -0.024  0.00  0.00    -0.269 OA
ATOM      9  C   UNL     1       0.002  -0.004   0.002  0.00  0.00    +0.080 C 
ATOM     10  C   UNL     1      -1.071  -0.906   0.008  0.00  0.00    +0.066 C 
ATOM     11  S   UNL     1      -0.021   1.732   0.012  0.00  0.00    -0.061 S 
ATOM     12  C   UNL     1       1.739   2.019  -0.004  0.00  0.00    +0.121 C 
ATOM     13  S   UNL     1       2.567   3.517  -0.004  0.00  0.00    -0.027 S 
BRANCH   6  14
ATOM     14  C   UNL     1       3.717   0.599  -0.030  0.00  0.00    +0.198 C 
BRANCH  14  16
ATOM     15  C   UNL     1       5.818   1.073  -1.296  0.00  0.00    +0.009 C 
ATOM     16  C   UNL     1       4.299   1.259  -1.281  0.00  0.00    +0.015 C 
ATOM     17  C   UNL     1       3.694   0.612  -2.528  0.00  0.00    +0.009 C 
ENDBRANCH  14  16
BRANCH  14  18
ATOM     18  C   UNL     1       4.313   1.236   1.199  0.00  0.00    +0.377 C 
ATOM     19  O   UNL     1       3.597   1.784   2.003  0.00  0.00    -0.244 OA
ATOM     20  O   UNL     1       5.640   1.197   1.399  0.00  0.00    -0.244 OA
ENDBRANCH  14  18
ENDBRANCH   6  14
ENDBRANCH   1  10
BRANCH   4  21
ATOM     21  C   UNL     1       1.265  -5.157  -0.035  0.00  0.00    +0.048 A 
ATOM     22  C   UNL     1       1.274  -6.214   0.897  0.00  0.00    +0.017 A 
ATOM     23  C   UNL     1       2.283  -7.129   0.874  0.00  0.00    +0.046 A 
ATOM     24  C   UNL     1       3.312  -7.015  -0.063  0.00  0.00    +0.122 A 
ATOM     25  C   UNL     1       3.313  -5.968  -0.985  0.00  0.00    +0.079 A 
ATOM     26  C   UNL     1       2.307  -5.048  -0.977  0.00  0.00    +0.140 A 
BRANCH  26  27
ATOM     27  N   UNL     1       2.310  -3.937  -1.956  0.00  0.00    +0.057 N 
ATOM     28  O   UNL     1       3.285  -3.837  -2.836  0.00  0.00    -0.126 OA
ATOM     29  O   UNL     1       1.338  -3.049  -1.946  0.00  0.00    -0.126 OA
ENDBRANCH  26  27
BRANCH  24  30
ATOM     30  O   UNL     1       4.314  -7.926  -0.076  0.00  0.00    -0.495 OA
ATOM     31  C   UNL     1       4.253  -8.972   0.895  0.00  0.00    +0.277 C 
ENDBRANCH  24  30
ENDBRANCH   4  21
TORSDOF 7
