REMARK  Name = ZINC05758957
REMARK  9 active torsions:
REMARK  status: ('A' for Active; 'I' for Inactive)
REMARK    1  A    between atoms: C_1  and  N_63
REMARK    2  A    between atoms: C_2  and  C_3
REMARK    3  A    between atoms: C_2  and  N_63
REMARK    4  A    between atoms: C_3  and  N_4
REMARK    5  A    between atoms: C_15  and  N_17
REMARK    6  A    between atoms: C_20  and  C_21
REMARK    7  A    between atoms: C_20  and  N_63
REMARK    8  A    between atoms: C_21  and  N_22
REMARK    9  A    between atoms: C_33  and  N_35
REMARK                            x       y       z     vdW  Elec       q    Type
REMARK                         _______ _______ _______ _____ _____    ______ ____
ROOT
ATOM      1  C   UNL     1      -0.802   1.987  -1.117  0.00  0.00    -0.096 C 
ATOM      2  N   UNL     1      -0.030   1.473   0.034  0.00  0.00    +0.380 N 
ATOM      3  H   UNL     1      -0.486   1.778   0.903  0.00  0.00    -0.082 HD
ENDROOT
BRANCH   2   4
ATOM      4  C   UNL     1       0.002  -0.004   0.002  0.00  0.00    -0.059 C 
BRANCH   4   5
ATOM      5  C   UNL     1      -1.409  -0.535   0.263  0.00  0.00    +0.098 C 
BRANCH   5   6
ATOM      6  N   UNL     1      -1.389  -2.000   0.255  0.00  0.00    -0.236 N 
ATOM      7  C   UNL     1      -1.602  -2.645  -0.907  0.00  0.00    +0.254 C 
ATOM      8  O   UNL     1      -1.805  -2.008  -1.923  0.00  0.00    -0.270 OA
ATOM      9  C   UNL     1      -1.586  -4.114  -0.956  0.00  0.00    +0.046 A 
ATOM     10  C   UNL     1      -1.795  -4.816  -2.134  0.00  0.00    +0.014 A 
ATOM     11  C   UNL     1      -1.773  -6.206  -2.132  0.00  0.00    +0.001 A 
ATOM     12  C   UNL     1      -1.549  -6.916  -0.988  0.00  0.00    +0.008 A 
ATOM     13  C   UNL     1      -1.333  -6.242   0.227  0.00  0.00    -0.015 A 
ATOM     14  C   UNL     1      -1.351  -4.831   0.239  0.00  0.00    +0.006 A 
ATOM     15  C   UNL     1      -1.137  -4.122   1.443  0.00  0.00    +0.047 A 
ATOM     16  C   UNL     1      -0.908  -4.828   2.614  0.00  0.00    +0.036 A 
ATOM     17  C   UNL     1      -0.889  -6.225   2.598  0.00  0.00    +0.026 A 
ATOM     18  C   UNL     1      -1.097  -6.931   1.429  0.00  0.00    +0.031 A 
ATOM     19  C   UNL     1      -1.164  -2.652   1.411  0.00  0.00    +0.254 C 
ATOM     20  O   UNL     1      -0.983  -2.021   2.435  0.00  0.00    -0.270 OA
BRANCH  17  21
ATOM     21  N   UNL     1      -0.656  -6.921   3.787  0.00  0.00    -0.358 N 
ATOM     22  H   UNL     1      -0.509  -6.434   4.613  0.00  0.00    +0.142 HD
ATOM     23  H   UNL     1      -0.641  -7.891   3.786  0.00  0.00    +0.142 HD
ENDBRANCH  17  21
ENDBRANCH   5   6
ENDBRANCH   4   5
ENDBRANCH   2   4
BRANCH   2  24
ATOM     24  C   UNL     1       1.346   2.010   0.000  0.00  0.00    -0.059 C 
BRANCH  24  25
ATOM     25  C   UNL     1       1.295   3.517   0.259  0.00  0.00    +0.098 C 
BRANCH  25  26
ATOM     26  N   UNL     1       2.656   4.060   0.249  0.00  0.00    -0.236 N 
ATOM     27  C   UNL     1       3.343   4.110   1.406  0.00  0.00    +0.254 C 
ATOM     28  O   UNL     1       2.830   3.706   2.432  0.00  0.00    -0.270 OA
ATOM     29  C   UNL     1       4.712   4.645   1.435  0.00  0.00    +0.046 A 
ATOM     30  C   UNL     1       5.456   4.708   2.604  0.00  0.00    +0.014 A 
ATOM     31  C   UNL     1       6.746   5.224   2.585  0.00  0.00    +0.001 A 
ATOM     32  C   UNL     1       7.316   5.680   1.431  0.00  0.00    +0.008 A 
ATOM     33  C   UNL     1       6.596   5.634   0.224  0.00  0.00    -0.015 A 
ATOM     34  C   UNL     1       5.285   5.112   0.230  0.00  0.00    +0.006 A 
ATOM     35  C   UNL     1       4.533   5.050  -0.966  0.00  0.00    +0.047 A 
ATOM     36  C   UNL     1       5.098   5.509  -2.145  0.00  0.00    +0.036 A 
ATOM     37  C   UNL     1       6.396   6.025  -2.147  0.00  0.00    +0.026 A 
ATOM     38  C   UNL     1       7.143   6.091  -0.987  0.00  0.00    +0.031 A 
ATOM     39  C   UNL     1       3.171   4.498  -0.915  0.00  0.00    +0.254 C 
ATOM     40  O   UNL     1       2.506   4.435  -1.932  0.00  0.00    -0.270 OA
BRANCH  37  41
ATOM     41  N   UNL     1       6.950   6.482  -3.345  0.00  0.00    -0.358 N 
ATOM     42  H   UNL     1       6.434   6.439  -4.166  0.00  0.00    +0.142 HD
ATOM     43  H   UNL     1       7.851   6.842  -3.357  0.00  0.00    +0.142 HD
ENDBRANCH  37  41
ENDBRANCH  25  26
ENDBRANCH  24  25
ENDBRANCH   2  24
TORSDOF 8
