REMARK  Name = ZINC32674183
REMARK  8 active torsions:
REMARK  status: ('A' for Active; 'I' for Inactive)
REMARK    1  A    between atoms: C_1  and  C_2
REMARK    2  A    between atoms: C_2  and  C_3
REMARK    3  A    between atoms: C_2  and  C_4
REMARK    4  A    between atoms: C_4  and  C_6
REMARK    5  A    between atoms: C_4  and  N_20
REMARK    6  A    between atoms: N_8  and  C_9
REMARK    7  A    between atoms: C_12  and  N_15
REMARK    8  A    between atoms: C_21  and  C_23
REMARK                            x       y       z     vdW  Elec       q    Type
REMARK                         _______ _______ _______ _____ _____    ______ ____
ROOT
ATOM      1  C   UNL     1      -2.295   7.249  -0.950  0.00  0.00    +0.162 C 
ENDROOT
BRANCH   1   2
ATOM      2  C   UNL     1      -2.444   7.773  -2.355  0.00  0.00    +0.238 C 
ATOM      3  O   UNL     1      -2.676   7.008  -3.267  0.00  0.00    -0.273 OA
ATOM      4  N   UNL     1      -2.318   9.093  -2.599  0.00  0.00    -0.284 N 
ATOM      5  H   UNL     1      -2.193   9.797  -1.763  0.00  0.00    +0.155 HD
BRANCH   4   6
ATOM      6  C   UNL     1      -2.346   9.567  -3.915  0.00  0.00    +0.034 A 
ATOM      7  C   UNL     1      -1.821   8.795  -4.943  0.00  0.00    +0.025 A 
ATOM      8  C   UNL     1      -1.855   9.260  -6.242  0.00  0.00    +0.030 A 
ATOM      9  C   UNL     1      -2.402  10.506  -6.520  0.00  0.00    +0.069 A 
ATOM     10  C   UNL     1      -2.923  11.280  -5.492  0.00  0.00    +0.030 A 
ATOM     11  C   UNL     1      -2.895  10.813  -4.193  0.00  0.00    +0.025 A 
BRANCH   9  12
ATOM     12  N   UNL     1      -2.431  10.981  -7.840  0.00  0.00    -0.200 N 
ATOM     13  C   UNL     1      -1.971  10.358  -8.946  0.00  0.00    +0.250 A 
ATOM     14  N   UNL     1      -2.196  11.151  -9.960  0.00  0.00    -0.116 NA
ATOM     15  N   UNL     1      -2.767  12.234  -9.571  0.00  0.00    -0.023 NA
ATOM     16  N   UNL     1      -2.950  12.206  -8.295  0.00  0.00    -0.039 NA
ENDBRANCH   9  12
ENDBRANCH   4   6
ENDBRANCH   1   2
BRANCH   1  17
ATOM     17  N   UNL     1      -2.474   5.795  -0.950  0.00  0.00    -0.303 N 
ATOM     18  C   UNL     1      -1.915   5.048   0.023  0.00  0.00    +0.220 C 
ATOM     19  O   UNL     1      -1.265   5.579   0.898  0.00  0.00    -0.275 OA
ATOM     20  H   UNL     1      -3.064   5.314  -1.743  0.00  0.00    +0.149 HD
BRANCH  18  21
ATOM     21  C   UNL     1      -2.099   3.552   0.023  0.00  0.00    +0.048 C 
ATOM     22  C   UNL     1      -1.525   2.967  -1.269  0.00  0.00    +0.019 C 
ATOM     23  C   UNL     1      -1.712   1.449  -1.268  0.00  0.00    -0.009 C 
ATOM     24  C   UNL     1      -0.982   0.845  -0.067  0.00  0.00    +0.007 C 
ATOM     25  C   UNL     1      -1.557   1.430   1.225  0.00  0.00    -0.009 C 
ATOM     26  C   UNL     1      -1.370   2.948   1.225  0.00  0.00    +0.019 C 
ATOM     27  C   UNL     1      -3.048   1.100   1.315  0.00  0.00    +0.007 C 
ATOM     28  C   UNL     1      -3.777   1.703   0.113  0.00  0.00    -0.009 C 
ATOM     29  C   UNL     1      -3.203   1.118  -1.178  0.00  0.00    +0.007 C 
ATOM     30  C   UNL     1      -3.591   3.222   0.113  0.00  0.00    +0.019 C 
ENDBRANCH  18  21
ENDBRANCH   1  17
BRANCH   1  32
ATOM     31  C   UNL     1      -4.745   7.450  -0.502  0.00  0.00    +0.009 C 
ATOM     32  C   UNL     1      -3.352   7.893  -0.051  0.00  0.00    +0.012 C 
ATOM     33  C   UNL     1      -3.123   7.457   1.398  0.00  0.00    +0.009 C 
ENDBRANCH   1  32
TORSDOF 6
