REMARK  Name = ZINC41773543
REMARK  11 active torsions:
REMARK  status: ('A' for Active; 'I' for Inactive)
REMARK    1  A    between atoms: C_1  and  C_2
REMARK    2  A    between atoms: C_2  and  C_3
REMARK    3  A    between atoms: N_5  and  C_6
REMARK    4  A    between atoms: C_9  and  C_12
REMARK    5  A    between atoms: C_12  and  C_14
REMARK    6  A    between atoms: C_12  and  N_15
REMARK    7  A    between atoms: C_16  and  C_18
REMARK    8  A    between atoms: N_20  and  C_21
REMARK    9  A    between atoms: C_25  and  C_27
REMARK   10  A    between atoms: C_27  and  C_28
REMARK   11  A    between atoms: C_27  and  C_29
REMARK                            x       y       z     vdW  Elec       q    Type
REMARK                         _______ _______ _______ _____ _____    ______ ____
ROOT
ATOM      1  N   UNL     1       3.438  -4.781  -6.570  0.00  0.00    -0.301 N 
ATOM      2  C   UNL     1       3.506  -4.913  -7.910  0.00  0.00    +0.300 C 
ATOM      3  O   UNL     1       4.108  -4.093  -8.571  0.00  0.00    -0.265 OA
ATOM      4  H   UNL     1       2.957  -5.437  -6.042  0.00  0.00    +0.150 HD
ENDROOT
BRANCH   2   5
ATOM      5  C   UNL     1       2.840  -6.069  -8.581  0.00  0.00    +0.303 C 
ATOM      6  O   UNL     1       2.237  -6.890  -7.920  0.00  0.00    -0.265 OA
ATOM      7  N   UNL     1       2.907  -6.201  -9.921  0.00  0.00    -0.278 N 
ATOM      8  H   UNL     1       3.449  -5.588 -10.441  0.00  0.00    +0.155 HD
BRANCH   7   9
ATOM      9  C   UNL     1       2.197  -7.221 -10.559  0.00  0.00    +0.034 A 
ATOM     10  C   UNL     1       2.719  -7.828 -11.694  0.00  0.00    +0.023 A 
ATOM     11  C   UNL     1       2.014  -8.835 -12.323  0.00  0.00    +0.002 A 
ATOM     12  C   UNL     1       0.789  -9.240 -11.824  0.00  0.00    +0.004 A 
ATOM     13  C   UNL     1       0.266  -8.637 -10.694  0.00  0.00    -0.043 A 
ATOM     14  C   UNL     1       0.969  -7.633 -10.057  0.00  0.00    +0.027 A 
BRANCH  13  15
ATOM     15  C   UNL     1      -1.069  -9.081 -10.155  0.00  0.00    +0.013 C 
ATOM     16  C   UNL     1      -2.146  -8.868 -11.220  0.00  0.00    +0.012 C 
ATOM     17  C   UNL     1      -1.003 -10.564  -9.786  0.00  0.00    +0.012 C 
ENDBRANCH  13  15
ENDBRANCH   7   9
ENDBRANCH   2   5
BRANCH   1  18
ATOM     18  C   UNL     1       4.091  -3.647  -5.912  0.00  0.00    +0.101 C 
ATOM     19  C   UNL     1       5.562  -3.984  -5.657  0.00  0.00    +0.033 C 
BRANCH  18  23
ATOM     20  C   UNL     1       2.148  -2.848  -2.190  0.00  0.00    +0.033 A 
ATOM     21  C   UNL     1       2.565  -1.797  -2.997  0.00  0.00    +0.023 A 
ATOM     22  C   UNL     1       3.192  -2.059  -4.199  0.00  0.00    +0.007 A 
ATOM     23  C   UNL     1       3.406  -3.365  -4.599  0.00  0.00    -0.027 A 
ATOM     24  C   UNL     1       2.992  -4.414  -3.798  0.00  0.00    +0.007 A 
ATOM     25  C   UNL     1       2.369  -4.159  -2.592  0.00  0.00    +0.023 A 
BRANCH  20  28
ATOM     26  C   UNL     1       1.730  -3.389   0.089  0.00  0.00    +0.217 C 
ATOM     27  O   UNL     1       2.412  -4.385  -0.035  0.00  0.00    -0.275 OA
ATOM     28  N   UNL     1       1.512  -2.586  -0.972  0.00  0.00    -0.286 N 
ATOM     29  H   UNL     1       0.914  -1.827  -0.890  0.00  0.00    +0.155 HD
BRANCH  26  31
ATOM     30  C   UNL     1       1.527  -4.114   2.451  0.00  0.00    +0.013 C 
ATOM     31  C   UNL     1       1.128  -3.049   1.428  0.00  0.00    +0.093 C 
ENDBRANCH  26  31
ENDBRANCH  20  28
ENDBRANCH  18  23
ENDBRANCH   1  18
TORSDOF 7
