REMARK  Name = ZINC34900806
REMARK  9 active torsions:
REMARK  status: ('A' for Active; 'I' for Inactive)
REMARK    1  A    between atoms: C_4  and  C_7
REMARK    2  A    between atoms: N_9  and  C_10
REMARK    3  A    between atoms: C_10  and  C_11
REMARK    4  A    between atoms: C_11  and  C_12
REMARK    5  A    between atoms: C_12  and  N_13
REMARK    6  A    between atoms: C_14  and  C_16
REMARK    7  A    between atoms: N_21  and  S_22
REMARK    8  A    between atoms: S_22  and  C_25
REMARK    9  A    between atoms: C_29  and  N_31
REMARK                            x       y       z     vdW  Elec       q    Type
REMARK                         _______ _______ _______ _____ _____    ______ ____
ROOT
ATOM      1  C   UNL     1       6.622  -8.786  -0.109  0.00  0.00    +0.165 C 
ATOM      2  C   UNL     1       5.844  -9.182  -1.382  0.00  0.00    +0.031 C 
ATOM      3  C   UNL     1       6.965  -9.669  -2.337  0.00  0.00    +0.019 C 
ATOM      4  C   UNL     1       7.942 -10.350  -1.347  0.00  0.00    +0.110 C 
ATOM      5  N   UNL     1       7.901  -9.509  -0.134  0.00  0.00    -0.165 NA
ENDROOT
BRANCH   1   7
ATOM      6  N   UNL     1       5.835  -6.441  -0.089  0.00  0.00    -0.314 N 
ATOM      7  C   UNL     1       6.873  -7.300  -0.104  0.00  0.00    +0.232 C 
ATOM      8  O   UNL     1       8.010  -6.877  -0.113  0.00  0.00    -0.274 OA
ATOM      9  H   UNL     1       4.926  -6.779  -0.082  0.00  0.00    +0.149 HD
BRANCH   6  10
ATOM     10  C   UNL     1       6.079  -4.996  -0.084  0.00  0.00    +0.106 C 
BRANCH  10  11
ATOM     11  C   UNL     1       4.742  -4.253  -0.067  0.00  0.00    +0.037 C 
BRANCH  11  12
ATOM     12  C   UNL     1       4.997  -2.744  -0.061  0.00  0.00    +0.106 C 
BRANCH  12  15
ATOM     13  C   UNL     1       3.696  -0.685  -0.037  0.00  0.00    +0.244 C 
ATOM     14  O   UNL     1       4.738  -0.060  -0.044  0.00  0.00    -0.270 OA
ATOM     15  N   UNL     1       3.717  -2.032  -0.045  0.00  0.00    -0.311 N 
ATOM     16  H   UNL     1       2.885  -2.531  -0.039  0.00  0.00    +0.149 HD
BRANCH  13  20
ATOM     17  C   UNL     1      -0.017   1.379   0.010  0.00  0.00    +0.000 A 
ATOM     18  C   UNL     1       1.168   2.094   0.002  0.00  0.00    +0.001 A 
ATOM     19  C   UNL     1       2.377   1.429  -0.013  0.00  0.00    +0.013 A 
ATOM     20  C   UNL     1       2.403   0.034  -0.021  0.00  0.00    +0.037 A 
ATOM     21  C   UNL     1       1.204  -0.681  -0.013  0.00  0.00    +0.013 A 
ATOM     22  C   UNL     1       0.002  -0.004   0.002  0.00  0.00    +0.001 A 
ENDBRANCH  13  20
ENDBRANCH  12  15
ENDBRANCH  11  12
ENDBRANCH  10  11
ENDBRANCH   6  10
ENDBRANCH   1   7
BRANCH   5  23
ATOM     23  S   UNL     1       9.095  -9.397   1.008  0.00  0.00    +0.062 S 
ATOM     24  O   UNL     1      10.307  -9.769   0.367  0.00  0.00    -0.153 OA
ATOM     25  O   UNL     1       8.928  -8.139   1.649  0.00  0.00    -0.153 OA
BRANCH  23  26
ATOM     26  C   UNL     1       8.771 -10.629   2.225  0.00  0.00    +0.108 A 
ATOM     27  C   UNL     1       7.975 -10.330   3.316  0.00  0.00    +0.030 A 
ATOM     28  C   UNL     1       7.719 -11.296   4.270  0.00  0.00    +0.024 A 
ATOM     29  C   UNL     1       8.260 -12.563   4.134  0.00  0.00    +0.071 A 
ATOM     30  C   UNL     1       9.056 -12.861   3.043  0.00  0.00    +0.146 A 
ATOM     31  C   UNL     1       9.306 -11.895   2.086  0.00  0.00    +0.062 A 
ATOM     32 CL   UNL     1       7.939 -13.777   5.333  0.00  0.00    -0.081 Cl
BRANCH  30  33
ATOM     33  N   UNL     1       9.634 -14.216   2.897  0.00  0.00    +0.058 N 
ATOM     34  O   UNL     1      10.329 -14.476   1.942  0.00  0.00    -0.126 OA
ATOM     35  O   UNL     1       9.411 -15.062   3.731  0.00  0.00    -0.126 OA
ENDBRANCH  30  33
ENDBRANCH  23  26
ENDBRANCH   5  23
TORSDOF 9
