REMARK  Name = ZINC35555395
REMARK  6 active torsions:
REMARK  status: ('A' for Active; 'I' for Inactive)
REMARK    1  A    between atoms: C_1  and  C_2
REMARK    2  A    between atoms: C_2  and  C_3
REMARK    3  A    between atoms: C_2  and  N_4
REMARK    4  A    between atoms: C_5  and  C_7
REMARK    5  A    between atoms: C_12  and  N_28
REMARK    6  A    between atoms: N_20  and  C_23
REMARK                            x       y       z     vdW  Elec       q    Type
REMARK                         _______ _______ _______ _____ _____    ______ ____
ROOT
ATOM      1  C   UNL     1       2.736  -1.073  -2.455  0.00  0.00    +0.098 C 
ATOM      2  C   UNL     1       2.373  -0.156  -3.604  0.00  0.00    +0.051 C 
ATOM      3  C   UNL     1       3.118   1.146  -3.544  0.00  0.00    -0.023 A 
ATOM      4  C   UNL     1       2.545   2.290  -4.068  0.00  0.00    +0.038 A 
ATOM      5  C   UNL     1       3.224   3.492  -4.021  0.00  0.00    +0.127 A 
ATOM      6  C   UNL     1       4.482   3.556  -3.448  0.00  0.00    +0.034 A 
ATOM      7  C   UNL     1       5.060   2.418  -2.922  0.00  0.00    +0.025 A 
ATOM      8  C   UNL     1       4.377   1.207  -2.967  0.00  0.00    +0.033 A 
ATOM      9  N   UNL     1       4.956   0.066  -2.428  0.00  0.00    -0.329 N 
ATOM     10  C   UNL     1       4.210  -1.153  -2.164  0.00  0.00    +0.069 C 
ATOM     11  C   UNL     1       4.884  -2.313  -2.899  0.00  0.00    -0.055 C 
ATOM     12  N   UNL     1       6.297  -2.376  -2.497  0.00  0.00    +0.384 N 
ATOM     13  C   UNL     1       6.999  -1.149  -2.890  0.00  0.00    -0.059 C 
ATOM     14  C   UNL     1       6.405   0.044  -2.139  0.00  0.00    +0.087 C 
ATOM     15  H   UNL     1       6.353  -2.486  -1.496  0.00  0.00    -0.081 HD
ENDROOT
BRANCH  12  16
ATOM     16  C   UNL     1       6.934  -3.529  -3.147  0.00  0.00    -0.068 C 
ATOM     17  C   UNL     1       6.272  -4.838  -2.671  0.00  0.00    -0.015 C 
ATOM     18  C   UNL     1       7.445  -5.843  -2.572  0.00  0.00    -0.002 C 
ATOM     19  C   UNL     1       8.601  -4.968  -2.028  0.00  0.00    -0.002 C 
ATOM     20  C   UNL     1       8.415  -3.611  -2.738  0.00  0.00    -0.015 C 
ENDBRANCH  12  16
BRANCH   1  22
ATOM     21  N   UNL     1       0.688  -0.476  -1.203  0.00  0.00    -0.313 N 
ATOM     22  C   UNL     1       2.031  -0.587  -1.215  0.00  0.00    +0.218 C 
ATOM     23  O   UNL     1       2.672  -0.295  -0.228  0.00  0.00    -0.275 OA
ATOM     24  H   UNL     1       0.175  -0.710  -1.993  0.00  0.00    +0.149 HD
BRANCH  21  26
ATOM     25  C   UNL     1      -0.019   1.526   0.010  0.00  0.00    +0.027 C 
ATOM     26  C   UNL     1       0.002  -0.004   0.002  0.00  0.00    +0.067 C 
ATOM     27  C   UNL     1      -1.433  -0.534   0.013  0.00  0.00    +0.027 C 
ENDBRANCH  21  26
ENDBRANCH   1  22
BRANCH   5  28
ATOM     28  N   UNL     1       2.606   4.714  -4.582  0.00  0.00    +0.056 N 
ATOM     29  O   UNL     1       1.506   4.659  -5.083  0.00  0.00    -0.126 OA
ATOM     30  O   UNL     1       3.200   5.766  -4.541  0.00  0.00    -0.126 OA
ENDBRANCH   5  28
TORSDOF 4
