REMARK  Name = ZINC38508870
REMARK  9 active torsions:
REMARK  status: ('A' for Active; 'I' for Inactive)
REMARK    1  A    between atoms: C_1  and  C_2
REMARK    2  A    between atoms: C_2  and  N_3
REMARK    3  A    between atoms: C_9  and  N_14
REMARK    4  A    between atoms: C_10  and  C_11
REMARK    5  A    between atoms: C_15  and  C_17
REMARK    6  A    between atoms: C_19  and  C_25
REMARK    7  A    between atoms: N_20  and  C_22
REMARK    8  A    between atoms: C_22  and  C_23
REMARK    9  A    between atoms: C_22  and  C_24
REMARK                            x       y       z     vdW  Elec       q    Type
REMARK                         _______ _______ _______ _____ _____    ______ ____
ROOT
ATOM      1  N   UNL     1       0.690  -0.478  -1.207  0.00  0.00    +0.383 N 
ATOM      2  C   UNL     1       0.601  -1.942  -1.277  0.00  0.00    -0.074 C 
ATOM      3  C   UNL     1       1.029  -2.431  -2.665  0.00  0.00    +0.018 C 
ATOM      4  C   UNL     1       2.386  -1.818  -2.979  0.00  0.00    -0.027 A 
ATOM      5  C   UNL     1       2.832  -0.755  -2.272  0.00  0.00    -0.021 A 
ATOM      6  S   UNL     1       4.416  -0.390  -2.964  0.00  0.00    -0.079 S 
ATOM      7  C   UNL     1       4.496  -1.585  -4.142  0.00  0.00    +0.085 A 
ATOM      8  C   UNL     1       3.299  -2.275  -4.008  0.00  0.00    +0.068 A 
ATOM      9  C   UNL     1       2.106  -0.068  -1.158  0.00  0.00    -0.035 C 
ATOM     10  H   UNL     1       0.251  -0.076  -2.022  0.00  0.00    -0.081 HD
ENDROOT
BRANCH   8  11
ATOM     11  C   UNL     1       2.973  -3.416  -4.869  0.00  0.00    +0.244 C 
ATOM     12  O   UNL     1       2.384  -3.237  -5.918  0.00  0.00    -0.270 OA
ATOM     13  N   UNL     1       3.326  -4.662  -4.497  0.00  0.00    -0.325 N 
ATOM     14  H   UNL     1       3.796  -4.805  -3.661  0.00  0.00    +0.145 HD
ATOM     15  H   UNL     1       3.110  -5.417  -5.067  0.00  0.00    +0.145 HD
ENDBRANCH   8  11
BRANCH   7  16
ATOM     16  N   UNL     1       5.521  -1.827  -5.042  0.00  0.00    -0.274 N 
ATOM     17  C   UNL     1       6.623  -1.050  -5.032  0.00  0.00    +0.269 C 
ATOM     18  O   UNL     1       6.717  -0.138  -4.234  0.00  0.00    -0.268 OA
ATOM     19  H   UNL     1       5.447  -2.554  -5.679  0.00  0.00    +0.156 HD
BRANCH  17  20
ATOM     20  C   UNL     1       7.716  -1.308  -5.991  0.00  0.00    +0.148 A 
ATOM     21  C   UNL     1       8.929  -0.587  -6.098  0.00  0.00    +0.057 A 
ATOM     22  C   UNL     1       9.613  -1.177  -7.106  0.00  0.00    +0.037 A 
ATOM     23  N   UNL     1       8.848  -2.189  -7.569  0.00  0.00    -0.265 N 
ATOM     24  N   UNL     1       7.750  -2.256  -6.906  0.00  0.00    -0.166 NA
ATOM     25  C   UNL     1      10.973  -0.779  -7.617  0.00  0.00    +0.065 C 
BRANCH  23  26
ATOM     26  C   UNL     1       9.220  -3.086  -8.666  0.00  0.00    +0.101 C 
ATOM     27  C   UNL     1       9.259  -4.528  -8.156  0.00  0.00    +0.032 C 
ATOM     28  C   UNL     1       8.189  -2.971  -9.791  0.00  0.00    +0.032 C 
ENDBRANCH  23  26
ENDBRANCH  17  20
ENDBRANCH   7  16
BRANCH   1  30
ATOM     29  C   UNL     1      -0.019   1.526   0.010  0.00  0.00    -0.017 C 
ATOM     30  C   UNL     1       0.002  -0.004   0.002  0.00  0.00    -0.082 C 
ENDBRANCH   1  30
TORSDOF 5
