REMARK  Name = ZINC29877839
REMARK  10 active torsions:
REMARK  status: ('A' for Active; 'I' for Inactive)
REMARK    1  A    between atoms: C_1  and  C_2
REMARK    2  A    between atoms: C_2  and  O_3
REMARK    3  A    between atoms: O_3  and  C_4
REMARK    4  A    between atoms: C_4  and  C_6
REMARK    5  A    between atoms: C_7  and  C_21
REMARK    6  A    between atoms: C_12  and  C_14
REMARK    7  A    between atoms: C_21  and  O_22
REMARK    8  A    between atoms: O_22  and  C_23
REMARK    9  A    between atoms: C_23  and  C_25
REMARK   10  A    between atoms: C_25  and  C_26
REMARK                            x       y       z     vdW  Elec       q    Type
REMARK                         _______ _______ _______ _____ _____    ______ ____
ROOT
ATOM      1  C   UNL     1       6.075   3.846  -6.400  0.00  0.00    +0.081 C 
ATOM      2  C   UNL     1       5.308   3.032  -5.644  0.00  0.00    +0.061 C 
ATOM      3  N   UNL     1       4.511   2.083  -6.216  0.00  0.00    -0.269 N 
ATOM      4  C   UNL     1       4.429   1.880  -7.537  0.00  0.00    +0.304 C 
ATOM      5  O   UNL     1       3.690   1.009  -7.954  0.00  0.00    -0.252 OA
ATOM      6  N   UNL     1       5.138   2.611  -8.420  0.00  0.00    -0.288 N 
ATOM      7  C   UNL     1       6.030   3.663  -7.903  0.00  0.00    +0.144 C 
ATOM      8  H   UNL     1       3.889   1.432  -5.583  0.00  0.00    +0.156 HD
ATOM      9  H   UNL     1       5.063   2.437  -9.504  0.00  0.00    +0.151 HD
ENDROOT
BRANCH   7  10
ATOM     10  C   UNL     1       7.427   3.364  -8.382  0.00  0.00    -0.022 A 
ATOM     11  C   UNL     1       7.889   2.061  -8.395  0.00  0.00    +0.007 A 
ATOM     12  C   UNL     1       9.168   1.786  -8.839  0.00  0.00    +0.020 A 
ATOM     13  C   UNL     1       9.991   2.816  -9.259  0.00  0.00    +0.041 A 
ATOM     14  C   UNL     1       9.530   4.120  -9.240  0.00  0.00    +0.020 A 
ATOM     15  C   UNL     1       8.249   4.393  -8.801  0.00  0.00    +0.007 A 
ATOM     16 CL   UNL     1      11.601   2.471  -9.811  0.00  0.00    -0.084 Cl
ENDBRANCH   7  10
BRANCH   1  17
ATOM     17  C   UNL     1       6.897   4.834  -5.808  0.00  0.00    +0.339 C 
ATOM     18  O   UNL     1       6.538   5.997  -5.796  0.00  0.00    -0.245 OA
BRANCH  17  19
ATOM     19  O   UNL     1       8.079   4.487  -5.258  0.00  0.00    -0.462 OA
BRANCH  19  21
ATOM     20  C   UNL     1      10.154   4.954  -4.110  0.00  0.00    +0.048 C 
ATOM     21  C   UNL     1       8.858   5.536  -4.679  0.00  0.00    +0.229 C 
ENDBRANCH  19  21
ENDBRANCH  17  19
ENDBRANCH   1  17
BRANCH   2  22
ATOM     22  C   UNL     1       5.328   3.177  -4.144  0.00  0.00    +0.283 C 
BRANCH  22  23
ATOM     23  O   UNL     1       4.021   3.610  -3.682  0.00  0.00    -0.458 OA
BRANCH  23  24
ATOM     24  C   UNL     1       3.869   3.788  -2.361  0.00  0.00    +0.311 C 
ATOM     25  O   UNL     1       4.798   3.588  -1.614  0.00  0.00    -0.251 OA
BRANCH  24  26
ATOM     26  C   UNL     1       2.541   4.236  -1.808  0.00  0.00    +0.174 C 
BRANCH  26  27
ATOM     27  C   UNL     1       2.637   4.360  -0.286  0.00  0.00    +0.269 C 
ATOM     28  C   UNL     1       1.349   4.930   0.253  0.00  0.00    +0.259 C 
ATOM     29  O   UNL     1       1.234   6.126   0.419  0.00  0.00    -0.271 OA
ATOM     30  N   UNL     1       0.325   4.103   0.552  0.00  0.00    -0.280 N 
ATOM     31  C   UNL     1       0.521   2.718   0.476  0.00  0.00    +0.076 A 
ATOM     32  C   UNL     1      -0.557   1.849   0.541  0.00  0.00    +0.027 A 
ATOM     33  C   UNL     1      -0.349   0.486   0.440  0.00  0.00    +0.002 A 
ATOM     34  C   UNL     1       0.931  -0.013   0.286  0.00  0.00    +0.004 A 
ATOM     35  C   UNL     1       2.011   0.848   0.227  0.00  0.00    +0.047 A 
ATOM     36  C   UNL     1       1.811   2.214   0.323  0.00  0.00    +0.143 A 
ATOM     37  O   UNL     1       2.868   3.070   0.283  0.00  0.00    -0.477 OA
ATOM     38  H   UNL     1      -0.648   4.519   0.851  0.00  0.00    +0.155 HD
ENDBRANCH  26  27
ENDBRANCH  24  26
ENDBRANCH  23  24
ENDBRANCH  22  23
ENDBRANCH   2  22
TORSDOF 9
