REMARK  Name = ZINC20348602
REMARK  11 active torsions:
REMARK  status: ('A' for Active; 'I' for Inactive)
REMARK    1  A    between atoms: C_1  and  C_2
REMARK    2  A    between atoms: C_2  and  C_3
REMARK    3  A    between atoms: C_8  and  N_9
REMARK    4  A    between atoms: C_10  and  C_12
REMARK    5  A    between atoms: C_12  and  S_13
REMARK    6  A    between atoms: S_13  and  C_14
REMARK    7  A    between atoms: C_15  and  C_38
REMARK    8  A    between atoms: C_16  and  C_31
REMARK    9  A    between atoms: C_18  and  C_22
REMARK   10  A    between atoms: C_19  and  C_21
REMARK   11  A    between atoms: N_24  and  C_25
REMARK                            x       y       z     vdW  Elec       q    Type
REMARK                         _______ _______ _______ _____ _____    ______ ____
ROOT
ATOM      1  C   UNL     1       4.916   8.401  -0.483  0.00  0.00    +0.080 C 
ATOM      2  C   UNL     1       5.118   9.739  -0.616  0.00  0.00    +0.069 C 
ATOM      3  C   UNL     1       6.503  10.313  -0.716  0.00  0.00    +0.101 C 
ATOM      4  C   UNL     1       7.531   9.310  -0.278  0.00  0.00    +0.044 C 
ATOM      5  C   UNL     1       7.241   8.004  -0.165  0.00  0.00    +0.014 C 
ATOM      6  N   UNL     1       5.985   7.534  -0.440  0.00  0.00    -0.312 N 
ATOM      7  C   UNL     1       8.314   7.040   0.271  0.00  0.00    +0.061 C 
ATOM      8  H   UNL     1       5.831   6.461  -0.626  0.00  0.00    +0.152 HD
ENDROOT
BRANCH   3   9
ATOM      9  C   UNL     1       6.769  10.702  -2.148  0.00  0.00    +0.000 A 
ATOM     10  C   UNL     1       6.749   9.741  -3.141  0.00  0.00    +0.007 A 
ATOM     11  C   UNL     1       6.992  10.098  -4.454  0.00  0.00    +0.000 A 
ATOM     12  C   UNL     1       7.256  11.417  -4.775  0.00  0.00    +0.003 A 
ATOM     13  C   UNL     1       7.277  12.379  -3.784  0.00  0.00    +0.038 A 
ATOM     14  C   UNL     1       7.029  12.024  -2.469  0.00  0.00    +0.127 A 
ATOM     15  F   UNL     1       7.043  12.964  -1.500  0.00  0.00    -0.205 F 
ENDBRANCH   3   9
BRANCH   4  16
ATOM     16  C   UNL     1       8.841   9.753   0.025  0.00  0.00    +0.247 C 
ATOM     17  O   UNL     1       9.687   8.954   0.382  0.00  0.00    -0.270 OA
ATOM     18  N   UNL     1       9.151  11.060  -0.082  0.00  0.00    -0.282 N 
ATOM     19  H   UNL     1       8.366  11.795  -0.311  0.00  0.00    +0.155 HD
BRANCH  18  20
ATOM     20  C   UNL     1      10.473  11.482   0.098  0.00  0.00    +0.034 A 
ATOM     21  C   UNL     1      10.738  12.780   0.516  0.00  0.00    +0.023 A 
ATOM     22  C   UNL     1      12.044  13.191   0.698  0.00  0.00    +0.002 A 
ATOM     23  C   UNL     1      13.086  12.317   0.453  0.00  0.00    +0.000 A 
ATOM     24  C   UNL     1      12.826  11.026   0.031  0.00  0.00    +0.002 A 
ATOM     25  C   UNL     1      11.522  10.607  -0.147  0.00  0.00    +0.023 A 
ENDBRANCH  18  20
ENDBRANCH   4  16
BRANCH   2  26
ATOM     26  C   UNL     1       3.989  10.620  -0.654  0.00  0.00    +0.098 C 
ATOM     27  N   UNL     1       3.094  11.318  -0.685  0.00  0.00    -0.191 NA
ENDBRANCH   2  26
BRANCH   1  28
ATOM     28  S   UNL     1       3.274   7.771  -0.373  0.00  0.00    -0.100 S 
BRANCH  28  29
ATOM     29  C   UNL     1       3.626   6.002  -0.225  0.00  0.00    +0.171 C 
BRANCH  29  31
ATOM     30  N   UNL     1       2.346   3.897   0.006  0.00  0.00    -0.285 N 
ATOM     31  C   UNL     1       2.330   5.240  -0.114  0.00  0.00    +0.227 C 
ATOM     32  O   UNL     1       1.274   5.834  -0.133  0.00  0.00    -0.275 OA
ATOM     33  H   UNL     1       3.304   3.365   0.101  0.00  0.00    +0.155 HD
BRANCH  30  39
ATOM     34  C   UNL     1       1.083   1.921  -0.569  0.00  0.00    -0.026 A 
ATOM     35  C   UNL     1      -0.105   1.216  -0.562  0.00  0.00    +0.005 A 
ATOM     36  C   UNL     1      -1.234   1.767   0.016  0.00  0.00    +0.000 A 
ATOM     37  C   UNL     1      -1.175   3.019   0.599  0.00  0.00    +0.002 A 
ATOM     38  C   UNL     1       0.010   3.729   0.596  0.00  0.00    +0.023 A 
ATOM     39  C   UNL     1       1.144   3.181   0.011  0.00  0.00    +0.037 A 
BRANCH  34  41
ATOM     40  C   UNL     1       3.153   0.628  -0.132  0.00  0.00    +0.009 C 
ATOM     41  C   UNL     1       2.312   1.323  -1.205  0.00  0.00    +0.033 C 
ENDBRANCH  34  41
ENDBRANCH  30  39
ENDBRANCH  29  31
ENDBRANCH  28  29
ENDBRANCH   1  28
TORSDOF 9
