REMARK  Name = ZINC14094665
REMARK  11 active torsions:
REMARK  status: ('A' for Active; 'I' for Inactive)
REMARK    1  A    between atoms: C_1  and  C_2
REMARK    2  A    between atoms: C_4  and  C_29
REMARK    3  A    between atoms: C_5  and  C_9
REMARK    4  A    between atoms: C_7  and  C_8
REMARK    5  A    between atoms: C_9  and  C_11
REMARK    6  A    between atoms: C_9  and  N_12
REMARK    7  A    between atoms: C_13  and  C_15
REMARK    8  A    between atoms: C_15  and  S_16
REMARK    9  A    between atoms: S_16  and  C_17
REMARK   10  A    between atoms: C_20  and  C_23
REMARK   11  A    between atoms: N_21  and  N_22
REMARK                            x       y       z     vdW  Elec       q    Type
REMARK                         _______ _______ _______ _____ _____    ______ ____
ROOT
ATOM      1  C   UNL     1       5.638   3.261   1.804  0.00  0.00    +0.173 C 
ENDROOT
BRANCH   1   3
ATOM      2  N   UNL     1       3.511   3.535   0.570  0.00  0.00    -0.308 N 
ATOM      3  C   UNL     1       4.541   4.114   1.218  0.00  0.00    +0.224 C 
ATOM      4  O   UNL     1       4.586   5.321   1.330  0.00  0.00    -0.275 OA
ATOM      5  H   UNL     1       3.475   2.570   0.481  0.00  0.00    +0.149 HD
BRANCH   2   6
ATOM      6  C   UNL     1       2.445   4.363   0.001  0.00  0.00    +0.100 C 
ATOM      7  C   UNL     1       2.813   4.754  -1.432  0.00  0.00    +0.033 C 
BRANCH   6  12
ATOM      8  C   UNL     1      -2.506   1.384  -0.038  0.00  0.00    +0.044 C 
ATOM      9  C   UNL     1      -1.214   2.160  -0.025  0.00  0.00    -0.047 A 
ATOM     10  C   UNL     1      -1.239   3.542   0.037  0.00  0.00    +0.007 A 
ATOM     11  C   UNL     1      -0.055   4.254   0.044  0.00  0.00    -0.045 A 
ATOM     12  C   UNL     1       1.154   3.586  -0.006  0.00  0.00    -0.024 A 
ATOM     13  C   UNL     1       1.179   2.205  -0.062  0.00  0.00    +0.009 A 
ATOM     14  C   UNL     1      -0.005   1.492  -0.069  0.00  0.00    -0.047 A 
ATOM     15  C   UNL     1       0.022  -0.013  -0.130  0.00  0.00    +0.044 C 
ATOM     16  C   UNL     1      -0.082   5.760   0.104  0.00  0.00    +0.044 C 
ENDBRANCH   6  12
ENDBRANCH   2   6
ENDBRANCH   1   3
BRANCH   1  17
ATOM     17  S   UNL     1       6.866   4.324   2.603  0.00  0.00    -0.075 S 
BRANCH  17  18
ATOM     18  C   UNL     1       7.996   3.103   3.182  0.00  0.00    +0.209 A 
ATOM     19  N   UNL     1       7.889   1.803   3.026  0.00  0.00    -0.121 NA
ATOM     20  N   UNL     1       8.891   1.214   3.575  0.00  0.00    -0.132 NA
ATOM     21  C   UNL     1       9.690   2.093   4.109  0.00  0.00    +0.154 A 
ATOM     22  N   UNL     1       9.152   3.329   3.873  0.00  0.00    -0.228 N 
BRANCH  21  23
ATOM     23  C   UNL     1      10.973   1.804   4.845  0.00  0.00    +0.059 C 
ATOM     24  C   UNL     1      11.943   1.075   3.912  0.00  0.00    +0.011 C 
ATOM     25  C   UNL     1      13.245   0.782   4.659  0.00  0.00    +0.001 C 
ATOM     26  C   UNL     1      12.949  -0.099   5.874  0.00  0.00    +0.000 C 
ATOM     27  C   UNL     1      11.979   0.630   6.807  0.00  0.00    +0.001 C 
ATOM     28  C   UNL     1      10.677   0.924   6.060  0.00  0.00    +0.011 C 
ENDBRANCH  21  23
BRANCH  22  29
ATOM     29  N   UNL     1       9.664   4.537   4.252  0.00  0.00    -0.295 N 
ATOM     30  H   UNL     1       9.325   4.803   5.164  0.00  0.00    +0.163 HD
ATOM     31  H   UNL     1      10.672   4.526   4.230  0.00  0.00    +0.163 HD
ENDBRANCH  22  29
ENDBRANCH  17  18
ENDBRANCH   1  17
TORSDOF 7
