REMARK  Name = ZINC28159647
REMARK  9 active torsions:
REMARK  status: ('A' for Active; 'I' for Inactive)
REMARK    1  A    between atoms: C_1  and  C_2
REMARK    2  A    between atoms: C_2  and  C_3
REMARK    3  A    between atoms: C_2  and  C_4
REMARK    4  A    between atoms: C_7  and  C_10
REMARK    5  A    between atoms: C_13  and  C_31
REMARK    6  A    between atoms: C_20  and  C_23
REMARK    7  A    between atoms: C_23  and  C_24
REMARK    8  A    between atoms: N_26  and  C_27
REMARK    9  A    between atoms: C_27  and  C_28
REMARK                            x       y       z     vdW  Elec       q    Type
REMARK                         _______ _______ _______ _____ _____    ______ ____
ROOT
ATOM      1  C   UNL     1       5.126   8.360  -3.649  0.00  0.00    +0.136 C 
ATOM      2  C   UNL     1       4.749   9.021  -4.990  0.00  0.00    +0.087 C 
ATOM      3  C   UNL     1       3.308   8.617  -5.202  0.00  0.00    +0.069 C 
ATOM      4  N   UNL     1       2.918   7.880  -4.220  0.00  0.00    -0.182 NA
ATOM      5  N   UNL     1       3.892   7.666  -3.247  0.00  0.00    -0.195 N 
ATOM      6  C   UNL     1       3.731   6.928  -2.111  0.00  0.00    +0.170 C 
ATOM      7  N   UNL     1       4.621   6.686  -1.157  0.00  0.00    -0.157 NA
ATOM      8  C   UNL     1       4.385   5.966  -0.095  0.00  0.00    +0.252 C 
ATOM      9  O   UNL     1       5.229   5.768   0.757  0.00  0.00    -0.272 OA
ATOM     10  C   UNL     1       2.977   5.390   0.003  0.00  0.00    +0.150 C 
ATOM     11  S   UNL     1       2.270   6.060  -1.556  0.00  0.00    -0.078 S 
ENDROOT
BRANCH   3  12
ATOM     12  C   UNL     1       2.478   9.002  -6.358  0.00  0.00    +0.002 A 
ATOM     13  C   UNL     1       3.013   9.809  -7.367  0.00  0.00    +0.013 A 
ATOM     14  C   UNL     1       2.236  10.164  -8.449  0.00  0.00    +0.050 A 
ATOM     15  C   UNL     1       0.920   9.732  -8.537  0.00  0.00    +0.166 A 
ATOM     16  C   UNL     1       0.379   8.931  -7.532  0.00  0.00    +0.167 A 
ATOM     17  C   UNL     1       1.153   8.567  -6.446  0.00  0.00    +0.059 A 
ATOM     18  O   UNL     1      -0.917   8.646  -7.852  0.00  0.00    -0.453 OA
ATOM     19  C   UNL     1      -1.038   8.937  -9.257  0.00  0.00    +0.466 C 
ATOM     20  O   UNL     1      -0.037   9.947  -9.485  0.00  0.00    -0.453 OA
ENDBRANCH   3  12
BRANCH   1  24
ATOM     21  C   UNL     1       6.194  11.321  -0.761  0.00  0.00    -0.045 A 
ATOM     22  C   UNL     1       7.177  10.563  -1.370  0.00  0.00    +0.004 A 
ATOM     23  C   UNL     1       6.832   9.605  -2.305  0.00  0.00    +0.006 A 
ATOM     24  C   UNL     1       5.503   9.404  -2.630  0.00  0.00    -0.025 A 
ATOM     25  C   UNL     1       4.521  10.166  -2.025  0.00  0.00    +0.006 A 
ATOM     26  C   UNL     1       4.866  11.120  -1.087  0.00  0.00    +0.004 A 
BRANCH  21  28
ATOM     27  C   UNL     1       6.097  13.739  -0.222  0.00  0.00    +0.012 C 
ATOM     28  C   UNL     1       6.571  12.366   0.257  0.00  0.00    +0.013 C 
ATOM     29  C   UNL     1       5.909  12.035   1.596  0.00  0.00    +0.012 C 
ENDBRANCH  21  28
ENDBRANCH   1  24
BRANCH  10  30
ATOM     30  C   UNL     1       2.998   3.860  -0.006  0.00  0.00    +0.119 C 
BRANCH  30  31
ATOM     31  C   UNL     1       1.584   3.338   0.005  0.00  0.00    +0.215 C 
ATOM     32  O   UNL     1       0.652   4.114   0.018  0.00  0.00    -0.276 OA
ATOM     33  N   UNL     1       1.356   2.010  -0.000  0.00  0.00    -0.305 N 
ATOM     34  H   UNL     1       2.202   1.307  -0.012  0.00  0.00    +0.149 HD
BRANCH  33  35
ATOM     35  C   UNL     1      -0.018   1.503   0.010  0.00  0.00    +0.229 C 
BRANCH  35  36
ATOM     36  C   UNL     1       0.002  -0.004   0.002  0.00  0.00    +0.373 C 
ATOM     37  O   UNL     1       1.056  -0.594  -0.011  0.00  0.00    -0.245 OA
ATOM     38  O   UNL     1      -1.151  -0.691   0.009  0.00  0.00    -0.245 OA
ENDBRANCH  35  36
ENDBRANCH  33  35
ENDBRANCH  30  31
ENDBRANCH  10  30
TORSDOF 7
