REMARK  Name = ZINC59461856
REMARK  7 active torsions:
REMARK  status: ('A' for Active; 'I' for Inactive)
REMARK    1  A    between atoms: C_1  and  C_2
REMARK    2  A    between atoms: C_3  and  C_19
REMARK    3  A    between atoms: C_9  and  C_12
REMARK    4  A    between atoms: C_19  and  C_21
REMARK    5  A    between atoms: C_19  and  C_28
REMARK    6  A    between atoms: C_28  and  C_30
REMARK    7  A    between atoms: C_28  and  C_32
REMARK                            x       y       z     vdW  Elec       q    Type
REMARK                         _______ _______ _______ _____ _____    ______ ____
ROOT
ATOM      1  C   UNL     1       0.014   1.444   0.856  0.00  0.00    +0.065 C 
ATOM      2  C   UNL     1      -0.758   1.560  -0.433  0.00  0.00    +0.039 A 
ATOM      3  C   UNL     1      -0.975   2.699  -1.122  0.00  0.00    +0.048 A 
ATOM      4  C   UNL     1      -1.738   2.379  -2.269  0.00  0.00    +0.277 A 
ATOM      5  N   UNL     1      -1.968   1.050  -2.250  0.00  0.00    -0.194 N 
ATOM      6  N   UNL     1      -1.351   0.529  -1.105  0.00  0.00    -0.292 N 
ATOM      7  C   UNL     1      -2.682   0.329  -3.196  0.00  0.00    +0.196 A 
ATOM      8  N   UNL     1      -2.947  -0.964  -3.235  0.00  0.00    -0.221 NA
ATOM      9  C   UNL     1      -3.652  -1.492  -4.226  0.00  0.00    +0.080 A 
ATOM     10  C   UNL     1      -4.113  -0.682  -5.226  0.00  0.00    +0.077 A 
ATOM     11  S   UNL     1      -3.493   0.904  -4.681  0.00  0.00    -0.056 S 
ATOM     12  O   UNL     1      -2.119   3.163  -3.120  0.00  0.00    -0.265 OA
ATOM     13  H   UNL     1      -1.348  -0.403  -0.834  0.00  0.00    +0.187 HD
ENDROOT
BRANCH   9  14
ATOM     14  C   UNL     1      -3.937  -2.947  -4.248  0.00  0.00    +0.001 A 
ATOM     15  C   UNL     1      -4.674  -3.499  -5.295  0.00  0.00    +0.010 A 
ATOM     16  C   UNL     1      -4.936  -4.854  -5.311  0.00  0.00    +0.001 A 
ATOM     17  C   UNL     1      -4.470  -5.663  -4.291  0.00  0.00    +0.000 A 
ATOM     18  C   UNL     1      -3.739  -5.121  -3.249  0.00  0.00    +0.001 A 
ATOM     19  C   UNL     1      -3.465  -3.768  -3.226  0.00  0.00    +0.010 A 
ENDBRANCH   9  14
BRANCH   3  20
ATOM     20  C   UNL     1      -0.488   4.072  -0.737  0.00  0.00    +0.082 C 
BRANCH  20  21
ATOM     21  C   UNL     1      -1.670   4.956  -0.431  0.00  0.00    -0.038 A 
ATOM     22  C   UNL     1      -2.472   5.418  -1.458  0.00  0.00    +0.005 A 
ATOM     23  C   UNL     1      -3.556   6.228  -1.178  0.00  0.00    +0.015 A 
ATOM     24  C   UNL     1      -3.839   6.577   0.130  0.00  0.00    +0.018 A 
ATOM     25  C   UNL     1      -3.036   6.115   1.157  0.00  0.00    +0.015 A 
ATOM     26  C   UNL     1      -1.955   5.300   0.877  0.00  0.00    +0.005 A 
ATOM     27 BR   UNL     1      -5.321   7.686   0.514  0.00  0.00    -0.050 Br
ENDBRANCH  20  21
BRANCH  20  28
ATOM     28  C   UNL     1       0.312   4.673  -1.895  0.00  0.00    +0.189 C 
BRANCH  28  29
ATOM     29  C   UNL     1       1.493   3.789  -2.201  0.00  0.00    +0.228 C 
ATOM     30  O   UNL     1       2.619   4.231  -2.115  0.00  0.00    -0.275 OA
ATOM     31  N   UNL     1       1.299   2.508  -2.570  0.00  0.00    -0.328 N 
ATOM     32  H   UNL     1       0.398   2.154  -2.639  0.00  0.00    +0.145 HD
ATOM     33  H   UNL     1       2.059   1.939  -2.767  0.00  0.00    +0.145 HD
ENDBRANCH  28  29
BRANCH  28  34
ATOM     34  C   UNL     1       0.787   6.014  -1.519  0.00  0.00    +0.076 C 
ATOM     35  N   UNL     1       1.153   7.050  -1.229  0.00  0.00    -0.196 NA
ENDBRANCH  28  34
ENDBRANCH  20  28
ENDBRANCH   3  20
TORSDOF 6
