REMARK  Name = ZINC05702461
REMARK  7 active torsions:
REMARK  status: ('A' for Active; 'I' for Inactive)
REMARK    1  A    between atoms: C_1  and  N_2
REMARK    2  A    between atoms: N_2  and  C_3
REMARK    3  A    between atoms: C_6  and  C_12
REMARK    4  A    between atoms: C_8  and  N_9
REMARK    5  A    between atoms: C_12  and  O_14
REMARK    6  A    between atoms: O_14  and  C_15
REMARK    7  A    between atoms: C_15  and  C_16
REMARK                            x       y       z     vdW  Elec       q    Type
REMARK                         _______ _______ _______ _____ _____    ______ ____
ROOT
ATOM      1  C   UNL     1       3.537  -2.796   5.839  0.00  0.00    +0.340 C 
ATOM      2  O   UNL     1       4.545  -3.345   5.439  0.00  0.00    -0.245 OA
ENDROOT
BRANCH   1   6
ATOM      3  C   UNL     1       2.574  -2.870   9.968  0.00  0.00    +0.058 A 
ATOM      4  C   UNL     1       1.736  -2.218   9.067  0.00  0.00    +0.026 A 
ATOM      5  C   UNL     1       2.047  -2.188   7.738  0.00  0.00    +0.017 A 
ATOM      6  C   UNL     1       3.204  -2.823   7.275  0.00  0.00    +0.061 A 
ATOM      7  C   UNL     1       4.047  -3.478   8.178  0.00  0.00    +0.049 A 
ATOM      8  C   UNL     1       3.731  -3.500   9.517  0.00  0.00    +0.148 A 
BRANCH   3  10
ATOM      9  C   UNL     1       0.977  -2.341  11.781  0.00  0.00    +0.125 C 
ATOM     10  N   UNL     1       2.254  -2.892  11.321  0.00  0.00    -0.345 N 
ATOM     11  H   UNL     1       2.877  -3.272  11.960  0.00  0.00    +0.146 HD
ENDBRANCH   3  10
BRANCH   8  12
ATOM     12  N   UNL     1       4.619  -4.193  10.477  0.00  0.00    +0.058 N 
ATOM     13  O   UNL     1       5.569  -4.838  10.072  0.00  0.00    -0.126 OA
ATOM     14  O   UNL     1       4.400  -4.117  11.673  0.00  0.00    -0.126 OA
ENDBRANCH   8  12
ENDBRANCH   1   6
BRANCH   1  15
ATOM     15  O   UNL     1       2.724  -2.164   4.970  0.00  0.00    -0.456 OA
BRANCH  15  16
ATOM     16  C   UNL     1       3.114  -2.179   3.572  0.00  0.00    +0.268 C 
BRANCH  16  17
ATOM     17  C   UNL     1       2.092  -1.429   2.757  0.00  0.00    -0.005 A 
ATOM     18  C   UNL     1       2.240  -0.071   2.546  0.00  0.00    +0.056 A 
ATOM     19  C   UNL     1       1.302   0.623   1.796  0.00  0.00    +0.164 A 
ATOM     20  C   UNL     1       0.214  -0.052   1.255  0.00  0.00    +0.180 A 
ATOM     21  C   UNL     1       0.070  -1.415   1.472  0.00  0.00    +0.087 A 
ATOM     22  C   UNL     1       1.009  -2.100   2.222  0.00  0.00    +0.031 A 
ATOM     23 CL   UNL     1      -1.290  -2.261   0.802  0.00  0.00    -0.080 Cl
ATOM     24  O   UNL     1      -0.716   0.608   0.512  0.00  0.00    -0.483 OA
ATOM     25  C   UNL     1      -0.740   2.035   0.630  0.00  0.00    +0.270 C 
ATOM     26  C   UNL     1       0.703   2.549   0.537  0.00  0.00    +0.270 C 
ATOM     27  O   UNL     1       1.458   1.960   1.601  0.00  0.00    -0.485 OA
ENDBRANCH  16  17
ENDBRANCH  15  16
ENDBRANCH   1  15
TORSDOF 6
