REMARK  Name = ZINC32864928
REMARK  6 active torsions:
REMARK  status: ('A' for Active; 'I' for Inactive)
REMARK    1  A    between atoms: C_4  and  C_7
REMARK    2  A    between atoms: C_10  and  S_13
REMARK    3  A    between atoms: S_13  and  C_14
REMARK    4  A    between atoms: C_14  and  C_15
REMARK    5  A    between atoms: C_18  and  C_28
REMARK    6  A    between atoms: C_21  and  C_23
REMARK                            x       y       z     vdW  Elec       q    Type
REMARK                         _______ _______ _______ _____ _____    ______ ____
ROOT
ATOM      1  C   UNL     1       9.515  -2.953  -0.109  0.00  0.00    +0.246 C 
ATOM      2  O   UNL     1      10.223  -1.969  -0.111  0.00  0.00    -0.273 OA
ATOM      3  N   UNL     1      10.069  -4.182  -0.121  0.00  0.00    -0.184 N 
ATOM      4  C   UNL     1      11.511  -4.470  -0.143  0.00  0.00    +0.144 C 
ATOM      5  C   UNL     1      11.574  -6.010  -0.146  0.00  0.00    +0.090 C 
ATOM      6  C   UNL     1      10.123  -6.434  -0.135  0.00  0.00    +0.104 C 
ATOM      7  N   UNL     1       9.368  -5.386  -0.121  0.00  0.00    -0.178 NA
ENDROOT
BRANCH   6   8
ATOM      8  C   UNL     1       9.646  -7.821  -0.139  0.00  0.00    +0.150 A 
ATOM      9  C   UNL     1       8.341  -8.220  -0.128  0.00  0.00    +0.051 A 
ATOM     10  C   UNL     1       8.348  -9.627  -0.137  0.00  0.00    +0.042 A 
ATOM     11  C   UNL     1       9.639 -10.017  -0.152  0.00  0.00    +0.196 A 
ATOM     12  O   UNL     1      10.420  -8.924  -0.159  0.00  0.00    -0.462 OA
ENDBRANCH   6   8
BRANCH   4  13
ATOM     13  C   UNL     1      12.181  -3.917   1.088  0.00  0.00    +0.013 A 
ATOM     14  C   UNL     1      13.396  -3.329   1.208  0.00  0.00    +0.013 A 
ATOM     15  C   UNL     1      13.809  -2.889   2.452  0.00  0.00    +0.008 A 
ATOM     16  C   UNL     1      12.990  -3.069   3.517  0.00  0.00    +0.045 A 
ATOM     17  S   UNL     1      11.583  -3.875   2.770  0.00  0.00    -0.100 S 
ENDBRANCH   4  13
BRANCH   1  18
ATOM     18  C   UNL     1       8.015  -2.803  -0.093  0.00  0.00    +0.175 C 
BRANCH  18  19
ATOM     19  S   UNL     1       7.586  -1.044  -0.079  0.00  0.00    -0.077 S 
BRANCH  19  23
ATOM     20  C   UNL     1       3.695  -0.685  -0.037  0.00  0.00    +0.182 A 
ATOM     21  N   UNL     1       4.948  -0.115  -0.052  0.00  0.00    -0.201 NA
ATOM     22  H   UNL     1       5.448  -3.316  -0.064  0.00  0.00    +0.191 HD
ATOM     23  C   UNL     1       5.828  -1.159  -0.062  0.00  0.00    +0.185 A 
ATOM     24  N   UNL     1       5.118  -2.266  -0.056  0.00  0.00    -0.253 N 
ATOM     25  N   UNL     1       3.864  -1.986  -0.039  0.00  0.00    -0.152 NA
BRANCH  20  29
ATOM     26  C   UNL     1      -0.017   1.379   0.004  0.00  0.00    +0.000 A 
ATOM     27  C   UNL     1       1.168   2.094  -0.002  0.00  0.00    +0.001 A 
ATOM     28  C   UNL     1       2.377   1.429  -0.015  0.00  0.00    +0.011 A 
ATOM     29  C   UNL     1       2.403   0.034  -0.023  0.00  0.00    +0.021 A 
ATOM     30  C   UNL     1       1.204  -0.681  -0.017  0.00  0.00    +0.011 A 
ATOM     31  C   UNL     1       0.002  -0.004  -0.004  0.00  0.00    +0.001 A 
ENDBRANCH  20  29
ENDBRANCH  19  23
ENDBRANCH  18  19
ENDBRANCH   1  18
TORSDOF 6
