REMARK  Name = ZINC04230318
REMARK  10 active torsions:
REMARK  status: ('A' for Active; 'I' for Inactive)
REMARK    1  A    between atoms: C_1  and  C_2
REMARK    2  A    between atoms: C_2  and  C_3
REMARK    3  A    between atoms: C_3  and  O_4
REMARK    4  A    between atoms: O_4  and  C_5
REMARK    5  A    between atoms: C_8  and  C_11
REMARK    6  A    between atoms: C_12  and  C_22
REMARK    7  A    between atoms: N_14  and  C_16
REMARK    8  A    between atoms: N_23  and  N_24
REMARK    9  A    between atoms: C_25  and  C_27
REMARK   10  A    between atoms: N_29  and  C_30
REMARK                            x       y       z     vdW  Elec       q    Type
REMARK                         _______ _______ _______ _____ _____    ______ ____
ROOT
ATOM      1  C   UNL     1       1.091   6.474   0.090  0.00  0.00    +0.102 A 
ATOM      2  C   UNL     1       2.236   5.614  -0.225  0.00  0.00    +0.040 A 
ATOM      3  C   UNL     1       3.344   6.434  -0.248  0.00  0.00    +0.124 A 
ATOM      4  N   UNL     1       2.934   7.691   0.017  0.00  0.00    -0.239 N 
ATOM      5  N   UNL     1       1.552   7.698   0.225  0.00  0.00    -0.166 NA
ENDROOT
BRANCH   1   9
ATOM      6  C   UNL     1      -2.959   5.240   0.489  0.00  0.00    +0.121 A 
ATOM      7  C   UNL     1      -1.946   4.490   1.071  0.00  0.00    +0.046 A 
ATOM      8  C   UNL     1      -0.632   4.888   0.944  0.00  0.00    +0.013 A 
ATOM      9  C   UNL     1      -0.321   6.044   0.229  0.00  0.00    +0.003 A 
ATOM     10  C   UNL     1      -1.341   6.798  -0.349  0.00  0.00    +0.013 A 
ATOM     11  C   UNL     1      -2.653   6.392  -0.223  0.00  0.00    +0.046 A 
BRANCH   6  12
ATOM     12  O   UNL     1      -4.253   4.846   0.616  0.00  0.00    -0.492 OA
BRANCH  12  13
ATOM     13  C   UNL     1      -5.245   5.664  -0.008  0.00  0.00    +0.229 C 
BRANCH  13  15
ATOM     14  C   UNL     1      -7.693   5.941  -0.426  0.00  0.00    +0.007 C 
ATOM     15  C   UNL     1      -6.631   5.065   0.242  0.00  0.00    +0.038 C 
ENDBRANCH  13  15
ENDBRANCH  12  13
ENDBRANCH   6  12
ENDBRANCH   1   9
BRANCH   4  16
ATOM     16  C   UNL     1       3.766   8.816   0.080  0.00  0.00    +0.065 A 
ATOM     17  C   UNL     1       5.131   8.685  -0.140  0.00  0.00    +0.028 A 
ATOM     18  C   UNL     1       5.948   9.797  -0.082  0.00  0.00    +0.002 A 
ATOM     19  C   UNL     1       5.410  11.038   0.205  0.00  0.00    +0.000 A 
ATOM     20  C   UNL     1       4.052  11.171   0.430  0.00  0.00    +0.002 A 
ATOM     21  C   UNL     1       3.229  10.064   0.368  0.00  0.00    +0.028 A 
ENDBRANCH   4  16
BRANCH   2  22
ATOM     22  C   UNL     1       2.209   4.162  -0.463  0.00  0.00    +0.142 C 
ATOM     23  N   UNL     1       1.073   3.530  -0.501  0.00  0.00    -0.187 NA
BRANCH  23  24
ATOM     24  N   UNL     1       1.048   2.148  -0.727  0.00  0.00    -0.199 N 
ATOM     25  C   UNL     1      -0.130   1.493  -0.766  0.00  0.00    +0.318 C 
ATOM     26  O   UNL     1      -1.169   2.103  -0.610  0.00  0.00    -0.263 OA
ATOM     27  H   UNL     1       1.877   1.662  -0.856  0.00  0.00    +0.178 HD
BRANCH  25  28
ATOM     28  C   UNL     1      -0.157   0.023  -1.007  0.00  0.00    +0.305 C 
ATOM     29  O   UNL     1       0.881  -0.586  -1.168  0.00  0.00    -0.265 OA
ATOM     30  N   UNL     1      -1.335  -0.632  -1.046  0.00  0.00    -0.278 N 
ATOM     31  H   UNL     1      -2.159  -0.160  -0.850  0.00  0.00    +0.155 HD
BRANCH  30  32
ATOM     32  C   UNL     1      -1.368  -1.992  -1.369  0.00  0.00    +0.034 A 
ATOM     33  C   UNL     1      -2.431  -2.508  -2.099  0.00  0.00    +0.026 A 
ATOM     34  C   UNL     1      -2.459  -3.850  -2.421  0.00  0.00    +0.040 A 
ATOM     35  C   UNL     1      -1.435  -4.685  -2.006  0.00  0.00    +0.124 A 
ATOM     36  C   UNL     1      -0.376  -4.174  -1.274  0.00  0.00    +0.040 A 
ATOM     37  C   UNL     1      -0.341  -2.831  -0.954  0.00  0.00    +0.026 A 
ATOM     38  F   UNL     1      -1.467  -5.999  -2.318  0.00  0.00    -0.205 F 
ENDBRANCH  30  32
ENDBRANCH  25  28
ENDBRANCH  23  24
ENDBRANCH   2  22
TORSDOF 9
