REMARK  Name = ZINC63111370
REMARK  7 active torsions:
REMARK  status: ('A' for Active; 'I' for Inactive)
REMARK    1  A    between atoms: C_1  and  C_2
REMARK    2  A    between atoms: C_2  and  C_3
REMARK    3  A    between atoms: C_2  and  C_4
REMARK    4  A    between atoms: C_6  and  N_10
REMARK    5  A    between atoms: C_11  and  C_13
REMARK    6  A    between atoms: C_13  and  N_14
REMARK    7  A    between atoms: C_15  and  C_17
REMARK                            x       y       z     vdW  Elec       q    Type
REMARK                         _______ _______ _______ _____ _____    ______ ____
ROOT
ATOM      1  N   UNL     1      -4.490  -1.524   1.558  0.00  0.00    -0.269 N 
ATOM      2  C   UNL     1      -4.392  -1.369   2.893  0.00  0.00    +0.235 C 
ATOM      3  O   UNL     1      -3.365  -0.947   3.381  0.00  0.00    -0.274 OA
ATOM      4  H   UNL     1      -5.311  -1.862   1.167  0.00  0.00    +0.156 HD
ENDROOT
BRANCH   1   7
ATOM      5  C   UNL     1      -1.412  -0.526   0.013  0.00  0.00    +0.067 A 
ATOM      6  C   UNL     1      -2.205  -0.717   1.147  0.00  0.00    +0.068 A 
ATOM      7  C   UNL     1      -3.410  -1.198   0.737  0.00  0.00    +0.121 A 
ATOM      8  N   UNL     1      -3.370  -1.304  -0.611  0.00  0.00    -0.264 N 
ATOM      9  H   UNL     1      -4.089  -1.620  -1.180  0.00  0.00    +0.190 HD
ATOM     10  N   UNL     1      -2.109  -0.872  -1.039  0.00  0.00    -0.177 NA
BRANCH   5  12
ATOM     11  C   UNL     1      -0.019   1.526   0.010  0.00  0.00    +0.014 C 
ATOM     12  C   UNL     1       0.002  -0.004   0.002  0.00  0.00    +0.033 C 
ATOM     13  C   UNL     1       0.742  -0.511   1.242  0.00  0.00    +0.014 C 
ENDBRANCH   5  12
ENDBRANCH   1   7
BRANCH   2  14
ATOM     14  C   UNL     1      -5.559  -1.721   3.780  0.00  0.00    +0.200 C 
BRANCH  14  15
ATOM     15  N   UNL     1      -5.204  -1.466   5.178  0.00  0.00    -0.300 N 
ATOM     16  C   UNL     1      -6.099  -1.710   6.155  0.00  0.00    +0.280 C 
ATOM     17  O   UNL     1      -7.202  -2.142   5.877  0.00  0.00    -0.267 OA
ATOM     18  H   UNL     1      -4.325  -1.122   5.400  0.00  0.00    +0.150 HD
BRANCH  16  19
ATOM     19  C   UNL     1      -5.744  -1.454   7.554  0.00  0.00    +0.191 A 
ATOM     20  C   UNL     1      -6.551  -1.662   8.637  0.00  0.00    +0.056 A 
ATOM     21  C   UNL     1      -5.811  -1.286   9.769  0.00  0.00    +0.058 A 
ATOM     22  C   UNL     1      -4.600  -0.870   9.333  0.00  0.00    +0.171 A 
ATOM     23  O   UNL     1      -4.562  -0.979   7.998  0.00  0.00    -0.444 OA
ATOM     24 BR   UNL     1      -3.190  -0.246  10.428  0.00  0.00    -0.008 Br
ENDBRANCH  16  19
ENDBRANCH  14  15
ENDBRANCH   2  14
TORSDOF 5
