REMARK  Name = ZINC22793013
REMARK  7 active torsions:
REMARK  status: ('A' for Active; 'I' for Inactive)
REMARK    1  A    between atoms: C_7  and  N_20
REMARK    2  A    between atoms: C_8  and  C_10
REMARK    3  A    between atoms: N_12  and  C_13
REMARK    4  A    between atoms: C_21  and  C_23
REMARK    5  A    between atoms: N_25  and  C_26
REMARK    6  A    between atoms: C_26  and  C_27
REMARK    7  A    between atoms: C_27  and  N_28
REMARK                            x       y       z     vdW  Elec       q    Type
REMARK                         _______ _______ _______ _____ _____    ______ ____
ROOT
ATOM      1  C   UNL     1      -2.261  -2.561   0.748  0.00  0.00    +0.001 A 
ATOM      2  C   UNL     1      -3.611  -2.801   0.537  0.00  0.00    +0.004 A 
ATOM      3  C   UNL     1      -4.452  -1.786   0.135  0.00  0.00    +0.047 A 
ATOM      4  C   UNL     1      -3.947  -0.505  -0.063  0.00  0.00    +0.138 A 
ATOM      5  C   UNL     1      -2.577  -0.271   0.146  0.00  0.00    +0.042 A 
ATOM      6  C   UNL     1      -1.743  -1.310   0.558  0.00  0.00    +0.013 A 
ATOM      7  C   UNL     1      -2.368   1.155  -0.138  0.00  0.00    +0.093 A 
ATOM      8  C   UNL     1      -3.594   1.649  -0.495  0.00  0.00    +0.212 A 
ATOM      9  O   UNL     1      -4.511   0.657  -0.445  0.00  0.00    -0.448 OA
ENDROOT
BRANCH   8  10
ATOM     10  C   UNL     1      -3.868   3.034  -0.872  0.00  0.00    +0.286 C 
ATOM     11  O   UNL     1      -2.952   3.829  -0.976  0.00  0.00    -0.266 OA
ATOM     12  N   UNL     1      -5.135   3.431  -1.103  0.00  0.00    -0.277 N 
ATOM     13  H   UNL     1      -5.953   2.696  -1.090  0.00  0.00    +0.155 HD
BRANCH  12  14
ATOM     14  C   UNL     1      -5.410   4.779  -1.360  0.00  0.00    +0.069 A 
ATOM     15  C   UNL     1      -4.487   5.560  -2.043  0.00  0.00    +0.026 A 
ATOM     16  C   UNL     1      -4.764   6.889  -2.300  0.00  0.00    +0.002 A 
ATOM     17  C   UNL     1      -5.953   7.446  -1.867  0.00  0.00    +0.003 A 
ATOM     18  C   UNL     1      -6.873   6.675  -1.181  0.00  0.00    +0.040 A 
ATOM     19  C   UNL     1      -6.605   5.342  -0.925  0.00  0.00    +0.144 A 
ATOM     20  F   UNL     1      -7.504   4.588  -0.255  0.00  0.00    -0.204 F 
ENDBRANCH  12  14
ENDBRANCH   8  10
BRANCH   7  21
ATOM     21  N   UNL     1      -1.173   1.856  -0.065  0.00  0.00    -0.274 N 
ATOM     22  C   UNL     1      -0.015   1.250  -0.396  0.00  0.00    +0.303 C 
ATOM     23  O   UNL     1      -0.004   0.066  -0.661  0.00  0.00    -0.265 OA
ATOM     24  H   UNL     1      -1.170   2.906   0.262  0.00  0.00    +0.155 HD
BRANCH  22  25
ATOM     25  C   UNL     1       1.254   2.038  -0.441  0.00  0.00    +0.299 C 
ATOM     26  O   UNL     1       1.242   3.222  -0.175  0.00  0.00    -0.265 OA
ATOM     27  N   UNL     1       2.410   1.433  -0.776  0.00  0.00    -0.306 N 
ATOM     28  H   UNL     1       2.420   0.360  -1.017  0.00  0.00    +0.149 HD
BRANCH  27  29
ATOM     29  C   UNL     1       3.655   2.205  -0.820  0.00  0.00    +0.120 C 
BRANCH  29  30
ATOM     30  C   UNL     1       4.810   1.288  -1.225  0.00  0.00    +0.103 C 
BRANCH  30  31
ATOM     31  N   UNL     1       6.058   2.062  -1.270  0.00  0.00    -0.304 NA
ATOM     32  C   UNL     1       6.195   2.908  -0.076  0.00  0.00    +0.065 C 
ATOM     33  C   UNL     1       7.464   3.756  -0.197  0.00  0.00    -0.067 C 
ATOM     34  N   UNL     1       8.627   2.871  -0.349  0.00  0.00    +0.381 N 
ATOM     35  C   UNL     1       8.490   2.025  -1.543  0.00  0.00    -0.067 C 
ATOM     36  C   UNL     1       7.221   1.178  -1.421  0.00  0.00    +0.065 C 
ATOM     37  H   UNL     1       9.539   3.478  -0.449  0.00  0.00    -0.086 HD
ATOM     38  H   UNL     1       8.713   2.223   0.536  0.00  0.00    -0.086 HD
ENDBRANCH  30  31
ENDBRANCH  29  30
ENDBRANCH  27  29
ENDBRANCH  22  25
ENDBRANCH   7  21
TORSDOF 7
