REMARK  Name = ZINC00793641
REMARK  8 active torsions:
REMARK  status: ('A' for Active; 'I' for Inactive)
REMARK    1  A    between atoms: C_1  and  C_2
REMARK    2  A    between atoms: C_6  and  C_23
REMARK    3  A    between atoms: C_7  and  O_8
REMARK    4  A    between atoms: O_8  and  C_9
REMARK    5  A    between atoms: C_9  and  C_10
REMARK    6  A    between atoms: N_12  and  N_13
REMARK    7  A    between atoms: C_14  and  C_15
REMARK    8  A    between atoms: C_18  and  N_20
REMARK                            x       y       z     vdW  Elec       q    Type
REMARK                         _______ _______ _______ _____ _____    ______ ____
ROOT
ATOM      1  C   UNL     1      -1.722   5.793   0.042  0.00  0.00    +0.270 C 
ATOM      2  O   UNL     1      -0.599   6.239   0.039  0.00  0.00    -0.270 OA
ATOM      3  N   UNL     1      -1.918   4.460   0.036  0.00  0.00    -0.204 N 
ATOM      4  H   UNL     1      -2.820   4.102   0.038  0.00  0.00    +0.177 HD
ENDROOT
BRANCH   3   5
ATOM      5  N   UNL     1      -0.906   3.659   0.026  0.00  0.00    -0.187 NA
ATOM      6  C   UNL     1      -1.101   2.335   0.020  0.00  0.00    +0.145 C 
BRANCH   6   7
ATOM      7  C   UNL     1      -0.018   1.479   0.010  0.00  0.00    +0.034 A 
ATOM      8  C   UNL     1       0.002  -0.004   0.002  0.00  0.00    +0.019 A 
ATOM      9  C   UNL     1       1.210  -0.565  -0.013  0.00  0.00    +0.041 A 
ATOM     10  C   UNL     1       2.355   0.251  -0.019  0.00  0.00    +0.164 A 
ATOM     11  S   UNL     1       1.724   1.866  -0.004  0.00  0.00    -0.064 S 
BRANCH  10  12
ATOM     12  N   UNL     1       3.788  -0.175  -0.035  0.00  0.00    +0.063 N 
ATOM     13  O   UNL     1       4.094  -1.456  -0.045  0.00  0.00    -0.126 OA
ATOM     14  O   UNL     1       4.744   0.730  -0.039  0.00  0.00    -0.126 OA
ENDBRANCH  10  12
ENDBRANCH   6   7
ENDBRANCH   3   5
BRANCH   1  15
ATOM     15  C   UNL     1      -2.904   6.728   0.053  0.00  0.00    +0.326 C 
BRANCH  15  16
ATOM     16  O   UNL     1      -2.442   8.080   0.058  0.00  0.00    -0.482 OA
BRANCH  16  23
ATOM     17  C   UNL     1      -3.352   9.037  -2.439  0.00  0.00    +0.047 C 
ATOM     18  C   UNL     1      -3.873   9.565  -1.127  0.00  0.00    -0.007 A 
ATOM     19  C   UNL     1      -4.839  10.553  -1.115  0.00  0.00    +0.022 A 
ATOM     20  C   UNL     1      -5.314  11.042   0.089  0.00  0.00    +0.019 A 
ATOM     21  C   UNL     1      -4.827  10.540   1.282  0.00  0.00    +0.022 A 
ATOM     22  C   UNL     1      -3.865   9.548   1.274  0.00  0.00    -0.007 A 
ATOM     23  C   UNL     1      -3.388   9.056   0.068  0.00  0.00    +0.127 A 
ATOM     24  C   UNL     1      -3.336   9.001   2.575  0.00  0.00    +0.047 C 
ATOM     25 BR   UNL     1      -6.630  12.400   0.103  0.00  0.00    -0.050 Br
ENDBRANCH  16  23
ENDBRANCH  15  16
ENDBRANCH   1  15
TORSDOF 6
