REMARK  Name = ZINC54698737
REMARK  12 active torsions:
REMARK  status: ('A' for Active; 'I' for Inactive)
REMARK    1  A    between atoms: C_1  and  C_2
REMARK    2  A    between atoms: C_5  and  C_7
REMARK    3  A    between atoms: C_7  and  N_8
REMARK    4  A    between atoms: N_8  and  C_9
REMARK    5  A    between atoms: C_9  and  C_10
REMARK    6  A    between atoms: C_10  and  N_11
REMARK    7  A    between atoms: N_11  and  C_12
REMARK    8  A    between atoms: N_11  and  C_13
REMARK    9  A    between atoms: N_16  and  C_17
REMARK   10  A    between atoms: N_21  and  C_23
REMARK   11  A    between atoms: C_23  and  C_25
REMARK   12  A    between atoms: C_23  and  C_26
REMARK                            x       y       z     vdW  Elec       q    Type
REMARK                         _______ _______ _______ _____ _____    ______ ____
ROOT
ATOM      1  N   UNL     1       1.983  -3.620  -1.407  0.00  0.00    -0.280 N 
ATOM      2  C   UNL     1       1.209  -4.521  -2.043  0.00  0.00    +0.303 C 
ATOM      3  O   UNL     1       0.263  -5.024  -1.468  0.00  0.00    -0.253 OA
ATOM      4  N   UNL     1       1.484  -4.866  -3.317  0.00  0.00    -0.298 N 
ATOM      5  H   UNL     1       2.239  -4.465  -3.776  0.00  0.00    +0.150 HD
ENDROOT
BRANCH   4   6
ATOM      6  C   UNL     1       0.643  -5.846  -4.008  0.00  0.00    +0.056 C 
ATOM      7  C   UNL     1       1.159  -7.279  -3.742  0.00  0.00    +0.002 C 
ATOM      8  C   UNL     1       0.974  -7.974  -5.114  0.00  0.00    -0.076 C 
ATOM      9  N   UNL     1       1.319  -6.905  -6.086  0.00  0.00    +0.385 N 
ATOM     10  C   UNL     1       0.745  -5.656  -5.533  0.00  0.00    -0.056 C 
ATOM     11  H   UNL     1       2.321  -6.821  -6.170  0.00  0.00    -0.081 HD
BRANCH   9  12
ATOM     12  C   UNL     1       0.721  -7.199  -7.396  0.00  0.00    -0.041 C 
ATOM     13  C   UNL     1       1.056  -6.072  -8.374  0.00  0.00    -0.008 C 
BRANCH  12  14
ATOM     14  C   UNL     1       1.275  -8.499  -7.919  0.00  0.00    -0.061 A 
ATOM     15  C   UNL     1       2.613  -8.801  -7.747  0.00  0.00    +0.002 A 
ATOM     16  C   UNL     1       3.120  -9.993  -8.227  0.00  0.00    +0.000 A 
ATOM     17  C   UNL     1       2.290 -10.885  -8.880  0.00  0.00    +0.000 A 
ATOM     18  C   UNL     1       0.952 -10.584  -9.052  0.00  0.00    +0.000 A 
ATOM     19  C   UNL     1       0.443  -9.393  -8.568  0.00  0.00    +0.002 A 
ENDBRANCH  12  14
ENDBRANCH   9  12
ENDBRANCH   4   6
BRANCH   1  20
ATOM     20  C   UNL     1       1.684  -3.245  -0.023  0.00  0.00    +0.183 C 
BRANCH  20  25
ATOM     21  C   UNL     1      -0.018   1.503   0.010  0.00  0.00    +0.086 C 
ATOM     22  C   UNL     1       0.002  -0.004   0.002  0.00  0.00    +0.102 A 
ATOM     23  C   UNL     1      -1.078  -0.805   0.003  0.00  0.00    +0.045 A 
ATOM     24  C   UNL     1      -0.601  -2.136  -0.007  0.00  0.00    +0.046 A 
ATOM     25  C   UNL     1       0.742  -2.069  -0.013  0.00  0.00    +0.122 A 
ATOM     26  O   UNL     1       1.102  -0.775  -0.013  0.00  0.00    -0.463 OA
ENDBRANCH  20  25
ENDBRANCH   1  20
BRANCH   1  27
ATOM     27  C   UNL     1       3.123  -3.014  -2.100  0.00  0.00    +0.091 C 
BRANCH  27  28
ATOM     28  C   UNL     1       4.372  -3.867  -1.869  0.00  0.00    -0.060 C 
BRANCH  28  29
ATOM     29  N   UNL     1       5.515  -3.260  -2.564  0.00  0.00    +0.377 N 
ATOM     30  C   UNL     1       6.736  -4.011  -2.246  0.00  0.00    -0.097 C 
ATOM     31  C   UNL     1       5.282  -3.296  -4.014  0.00  0.00    -0.097 C 
ATOM     32  H   UNL     1       5.621  -2.303  -2.264  0.00  0.00    -0.083 HD
ENDBRANCH  28  29
ENDBRANCH  27  28
ENDBRANCH   1  27
TORSDOF 8
