REMARK  Name = ZINC45527443
REMARK  9 active torsions:
REMARK  status: ('A' for Active; 'I' for Inactive)
REMARK    1  A    between atoms: C_1  and  C_2
REMARK    2  A    between atoms: C_2  and  O_3
REMARK    3  A    between atoms: O_3  and  C_4
REMARK    4  A    between atoms: C_4  and  C_6
REMARK    5  A    between atoms: C_11  and  S_12
REMARK    6  A    between atoms: S_12  and  N_15
REMARK    7  A    between atoms: N_15  and  C_16
REMARK    8  A    between atoms: C_18  and  C_23
REMARK    9  A    between atoms: C_21  and  C_22
REMARK                            x       y       z     vdW  Elec       q    Type
REMARK                         _______ _______ _______ _____ _____    ______ ____
ROOT
ATOM      1  C   UNL     1      -2.050  -7.613   0.904  0.00  0.00    +0.078 A 
ATOM      2  C   UNL     1      -0.770  -7.746   0.387  0.00  0.00    +0.038 A 
ATOM      3  C   UNL     1      -0.076  -8.944   0.553  0.00  0.00    +0.021 A 
ATOM      4  C   UNL     1      -0.674 -10.002   1.239  0.00  0.00    +0.012 A 
ATOM      5  C   UNL     1      -1.949  -9.861   1.749  0.00  0.00    +0.006 A 
ATOM      6  C   UNL     1      -2.635  -8.671   1.590  0.00  0.00    -0.026 A 
ATOM      7  C   UNL     1      -4.023  -8.523   2.156  0.00  0.00    +0.046 C 
ENDROOT
BRANCH   3   8
ATOM      8  C   UNL     1       1.289  -9.093   0.003  0.00  0.00    +0.164 A 
ATOM      9  N   UNL     1       1.846  -8.349  -0.929  0.00  0.00    -0.129 NA
ATOM     10  N   UNL     1       3.045  -8.759  -1.155  0.00  0.00    -0.134 NA
ATOM     11  C   UNL     1       3.319  -9.775  -0.385  0.00  0.00    +0.134 A 
ATOM     12  N   UNL     1       2.217 -10.024   0.370  0.00  0.00    -0.311 N 
ATOM     13  C   UNL     1       2.061 -11.090   1.360  0.00  0.00    +0.125 C 
ATOM     14  C   UNL     1       3.431 -11.438   1.950  0.00  0.00    +0.022 C 
ATOM     15  C   UNL     1       4.093 -12.527   1.106  0.00  0.00    +0.002 C 
ATOM     16  C   UNL     1       4.316 -12.037  -0.321  0.00  0.00    +0.008 C 
ATOM     17  C   UNL     1       4.615 -10.541  -0.315  0.00  0.00    +0.076 C 
ENDBRANCH   3   8
BRANCH   1  18
ATOM     18  N   UNL     1      -2.749  -6.415   0.741  0.00  0.00    -0.096 NA
BRANCH  18  19
ATOM     19  S   UNL     1      -2.052  -5.155  -0.077  0.00  0.00    +0.111 S 
ATOM     20  O   UNL     1      -1.909  -5.575  -1.427  0.00  0.00    -0.147 OA
ATOM     21  O   UNL     1      -0.948  -4.723   0.707  0.00  0.00    -0.147 OA
BRANCH  19  27
ATOM     22  C   UNL     1      -2.902  -2.452  -0.105  0.00  0.00    +0.123 A 
ATOM     23  C   UNL     1      -4.100  -1.764  -0.106  0.00  0.00    +0.122 A 
ATOM     24  N   UNL     1      -5.086  -2.674  -0.080  0.00  0.00    -0.282 N 
ATOM     25  N   UNL     1      -4.513  -3.950  -0.061  0.00  0.00    -0.152 NA
ATOM     26  H   UNL     1      -6.037  -2.480  -0.074  0.00  0.00    +0.188 HD
ATOM     27  C   UNL     1      -3.214  -3.830  -0.081  0.00  0.00    +0.233 A 
BRANCH  22  28
ATOM     28  C   UNL     1      -1.554  -1.860  -0.129  0.00  0.00    +0.344 C 
ATOM     29  O   UNL     1      -0.575  -2.580  -0.130  0.00  0.00    -0.245 OA
BRANCH  28  30
ATOM     30  O   UNL     1      -1.406  -0.521  -0.149  0.00  0.00    -0.461 OA
BRANCH  30  32
ATOM     31  C   UNL     1      -0.102   1.513  -0.194  0.00  0.00    +0.048 C 
ATOM     32  C   UNL     1      -0.069  -0.016  -0.172  0.00  0.00    +0.229 C 
ENDBRANCH  30  32
ENDBRANCH  28  30
ENDBRANCH  22  28
ENDBRANCH  19  27
ENDBRANCH  18  19
ENDBRANCH   1  18
TORSDOF 7
