REMARK  Name = ZINC08284039
REMARK  4 active torsions:
REMARK  status: ('A' for Active; 'I' for Inactive)
REMARK    1  A    between atoms: C_4  and  C_7
REMARK    2  A    between atoms: C_9  and  C_13
REMARK    3  A    between atoms: N_15  and  N_16
REMARK    4  A    between atoms: C_17  and  C_19
REMARK                            x       y       z     vdW  Elec       q    Type
REMARK                         _______ _______ _______ _____ _____    ______ ____
ROOT
ATOM      1  C   UNL     1       7.335  -1.078  -0.075  0.00  0.00    +0.278 C 
ATOM      2  O   UNL     1       7.883   0.008  -0.074  0.00  0.00    -0.267 OA
ATOM      3  N   UNL     1       8.073  -2.205  -0.089  0.00  0.00    -0.229 N 
ATOM      4  H   UNL     1       7.636  -3.071  -0.090  0.00  0.00    +0.173 HD
ENDROOT
BRANCH   1   7
ATOM      5  C   UNL     1       3.699  -0.689  -0.037  0.00  0.00    +0.093 A 
ATOM      6  C   UNL     1       4.977  -0.102  -0.052  0.00  0.00    +0.062 A 
ATOM      7  C   UNL     1       5.865  -1.161  -0.061  0.00  0.00    +0.122 A 
ATOM      8  N   UNL     1       5.110  -2.299  -0.061  0.00  0.00    -0.272 N 
ATOM      9  H   UNL     1       5.474  -3.231  -0.070  0.00  0.00    +0.189 HD
ATOM     10  N   UNL     1       3.862  -1.996  -0.047  0.00  0.00    -0.173 NA
BRANCH   5  14
ATOM     11  C   UNL     1      -0.017   1.379   0.010  0.00  0.00    +0.000 A 
ATOM     12  C   UNL     1       1.169   2.092   0.002  0.00  0.00    +0.001 A 
ATOM     13  C   UNL     1       2.377   1.425  -0.013  0.00  0.00    +0.010 A 
ATOM     14  C   UNL     1       2.402   0.033  -0.021  0.00  0.00    +0.002 A 
ATOM     15  C   UNL     1       1.205  -0.680  -0.013  0.00  0.00    +0.010 A 
ATOM     16  C   UNL     1       0.002  -0.004   0.002  0.00  0.00    +0.001 A 
ENDBRANCH   5  14
ENDBRANCH   1   7
BRANCH   3  17
ATOM     17  N   UNL     1       9.472  -2.127  -0.103  0.00  0.00    -0.231 N 
ATOM     18  C   UNL     1      10.210  -3.255  -0.117  0.00  0.00    +0.270 C 
ATOM     19  O   UNL     1       9.663  -4.337  -0.118  0.00  0.00    -0.270 OA
ATOM     20  H   UNL     1       9.909  -1.261  -0.102  0.00  0.00    +0.173 HD
BRANCH  18  21
ATOM     21  C   UNL     1      11.714  -3.170  -0.131  0.00  0.00    +0.264 C 
ATOM     22  C   UNL     1      12.220  -2.641  -1.494  0.00  0.00    +0.093 C 
ATOM     23  C   UNL     1      13.493  -3.442  -1.688  0.00  0.00    -0.000 A 
ATOM     24  C   UNL     1      14.569  -3.279  -2.533  0.00  0.00    +0.027 A 
ATOM     25  C   UNL     1      15.629  -4.168  -2.483  0.00  0.00    +0.041 A 
ATOM     26  C   UNL     1      15.601  -5.219  -1.583  0.00  0.00    +0.023 A 
ATOM     27  C   UNL     1      14.523  -5.386  -0.740  0.00  0.00    +0.047 A 
ATOM     28  C   UNL     1      13.451  -4.498  -0.787  0.00  0.00    +0.125 A 
ATOM     29  O   UNL     1      12.299  -4.482  -0.062  0.00  0.00    -0.479 OA
ATOM     30 CL   UNL     1      16.987  -3.966  -3.546  0.00  0.00    -0.084 Cl
ENDBRANCH  18  21
ENDBRANCH   3  17
TORSDOF 4
