REMARK  Name = ZINC65468465
REMARK  9 active torsions:
REMARK  status: ('A' for Active; 'I' for Inactive)
REMARK    1  A    between atoms: C_1  and  C_2
REMARK    2  A    between atoms: C_5  and  C_8
REMARK    3  A    between atoms: C_8  and  C_9
REMARK    4  A    between atoms: C_8  and  N_27
REMARK    5  A    between atoms: C_9  and  N_10
REMARK    6  A    between atoms: C_21  and  N_22
REMARK    7  A    between atoms: C_23  and  C_25
REMARK    8  A    between atoms: N_27  and  C_28
REMARK    9  A    between atoms: N_27  and  C_29
REMARK                            x       y       z     vdW  Elec       q    Type
REMARK                         _______ _______ _______ _____ _____    ______ ____
ROOT
ATOM      1  N   UNL     1      -1.213  -6.401   0.013  0.00  0.00    -0.300 N 
ATOM      2  C   UNL     1      -2.301  -7.188   0.132  0.00  0.00    +0.302 C 
ATOM      3  O   UNL     1      -3.391  -6.690   0.341  0.00  0.00    -0.253 OA
ATOM      4  N   UNL     1      -2.182  -8.525   0.019  0.00  0.00    -0.281 N 
ATOM      5  C   UNL     1      -3.363  -9.404   0.033  0.00  0.00    +0.114 C 
ATOM      6  C   UNL     1      -3.456 -10.088  -1.330  0.00  0.00    +0.056 C 
ATOM      7  C   UNL     1      -2.120 -10.649  -1.740  0.00  0.00    -0.020 A 
ATOM      8  C   UNL     1      -0.930 -10.218  -1.199  0.00  0.00    -0.025 A 
ATOM      9  C   UNL     1       0.268 -10.768  -1.635  0.00  0.00    +0.005 A 
ATOM     10  C   UNL     1       0.279 -11.754  -2.601  0.00  0.00    +0.002 A 
ATOM     11  C   UNL     1      -0.911 -12.199  -3.142  0.00  0.00    +0.023 A 
ATOM     12  C   UNL     1      -2.109 -11.648  -2.714  0.00  0.00    +0.037 A 
ATOM     13  C   UNL     1      -0.869  -9.164  -0.128  0.00  0.00    +0.144 C 
ATOM     14  H   UNL     1      -0.334  -6.800  -0.078  0.00  0.00    +0.150 HD
ENDROOT
BRANCH  12  15
ATOM     15  N   UNL     1      -3.316 -12.098  -3.263  0.00  0.00    -0.285 N 
ATOM     16  C   UNL     1      -3.452 -13.389  -3.624  0.00  0.00    +0.214 C 
ATOM     17  O   UNL     1      -2.571 -14.184  -3.377  0.00  0.00    -0.276 OA
ATOM     18  C   UNL     1      -4.700 -13.844  -4.335  0.00  0.00    +0.109 C 
ATOM     19  H   UNL     1      -4.054 -11.479  -3.383  0.00  0.00    +0.155 HD
ENDBRANCH  12  15
BRANCH   1  20
ATOM     20  C   UNL     1      -1.359  -4.944   0.020  0.00  0.00    +0.095 C 
BRANCH  20  21
ATOM     21  C   UNL     1      -0.001  -4.294  -0.255  0.00  0.00    -0.021 C 
BRANCH  21  26
ATOM     22  C   UNL     1       1.858  -5.869  -5.495  0.00  0.00    +0.044 C 
ATOM     23  C   UNL     1       1.373  -5.458  -4.128  0.00  0.00    -0.050 A 
ATOM     24  C   UNL     1       1.866  -6.089  -3.001  0.00  0.00    +0.003 A 
ATOM     25  C   UNL     1       1.421  -5.713  -1.748  0.00  0.00    +0.002 A 
ATOM     26  C   UNL     1       0.484  -4.704  -1.621  0.00  0.00    -0.059 A 
ATOM     27  C   UNL     1      -0.008  -4.072  -2.748  0.00  0.00    +0.002 A 
ATOM     28  C   UNL     1       0.440  -4.447  -4.001  0.00  0.00    +0.003 A 
ENDBRANCH  21  26
BRANCH  21  29
ATOM     29  N   UNL     1      -0.138  -2.832  -0.202  0.00  0.00    +0.382 N 
ATOM     30  C   UNL     1      -0.508  -2.424   1.160  0.00  0.00    -0.096 C 
ATOM     31  C   UNL     1       1.139  -2.207  -0.571  0.00  0.00    -0.096 C 
ATOM     32  H   UNL     1      -0.855  -2.538  -0.848  0.00  0.00    -0.082 HD
ENDBRANCH  21  29
ENDBRANCH  20  21
ENDBRANCH   1  20
TORSDOF 5
