REMARK  Name = ZINC01188326
REMARK  4 active torsions:
REMARK  status: ('A' for Active; 'I' for Inactive)
REMARK    1  A    between atoms: C_1  and  C_2
REMARK    2  A    between atoms: C_3  and  C_17
REMARK    3  A    between atoms: C_4  and  C_10
REMARK    4  A    between atoms: N_19  and  C_20
REMARK                            x       y       z     vdW  Elec       q    Type
REMARK                         _______ _______ _______ _____ _____    ______ ____
ROOT
ATOM      1  C   UNL     1       5.243  -4.309   0.104  0.00  0.00    +0.061 C 
ATOM      2  C   UNL     1       3.906  -5.001   0.060  0.00  0.00    +0.017 C 
ATOM      3  C   UNL     1       2.778  -4.263  -0.013  0.00  0.00    +0.056 C 
ATOM      4  C   UNL     1       1.454  -4.999  -0.048  0.00  0.00    +0.139 C 
ATOM      5  N   UNL     1       1.507  -6.470  -0.011  0.00  0.00    -0.315 N 
ATOM      6  C   UNL     1       2.714  -7.066   0.063  0.00  0.00    +0.135 C 
ATOM      7  S   UNL     1       2.790  -8.776   0.115  0.00  0.00    -0.019 S 
ATOM      8  N   UNL     1       3.854  -6.365   0.096  0.00  0.00    -0.300 N 
ATOM      9  H   UNL     1       0.693  -6.997  -0.034  0.00  0.00    +0.149 HD
ATOM     10  H   UNL     1       4.690  -6.854   0.149  0.00  0.00    +0.154 HD
ENDROOT
BRANCH   4  11
ATOM     11  C   UNL     1       0.732  -4.597  -1.309  0.00  0.00    -0.023 A 
ATOM     12  C   UNL     1       1.095  -5.155  -2.521  0.00  0.00    +0.007 A 
ATOM     13  C   UNL     1       0.430  -4.790  -3.676  0.00  0.00    +0.015 A 
ATOM     14  C   UNL     1      -0.591  -3.859  -3.622  0.00  0.00    +0.018 A 
ATOM     15  C   UNL     1      -0.950  -3.297  -2.410  0.00  0.00    +0.015 A 
ATOM     16  C   UNL     1      -0.288  -3.666  -1.254  0.00  0.00    +0.007 A 
ATOM     17 BR   UNL     1      -1.496  -3.354  -5.203  0.00  0.00    -0.050 Br
ENDBRANCH   4  11
BRANCH   3  18
ATOM     18  C   UNL     1       2.830  -2.848  -0.051  0.00  0.00    +0.248 C 
ATOM     19  O   UNL     1       2.534  -2.201   0.938  0.00  0.00    -0.270 OA
ATOM     20  N   UNL     1       3.208  -2.217  -1.181  0.00  0.00    -0.280 N 
ATOM     21  H   UNL     1       3.348  -2.724  -1.996  0.00  0.00    +0.155 HD
BRANCH  20  22
ATOM     22  C   UNL     1       3.399  -0.831  -1.177  0.00  0.00    +0.052 A 
ATOM     23  C   UNL     1       2.650  -0.027  -0.329  0.00  0.00    +0.025 A 
ATOM     24  C   UNL     1       2.841   1.340  -0.328  0.00  0.00    +0.002 A 
ATOM     25  C   UNL     1       3.778   1.910  -1.171  0.00  0.00    +0.002 A 
ATOM     26  C   UNL     1       4.526   1.113  -2.017  0.00  0.00    +0.022 A 
ATOM     27  C   UNL     1       4.340  -0.256  -2.023  0.00  0.00    +0.062 A 
ATOM     28 CL   UNL     1       5.279  -1.256  -3.087  0.00  0.00    -0.082 Cl
ENDBRANCH  20  22
ENDBRANCH   3  18
TORSDOF 3
