REMARK  Name = ZINC34779760
REMARK  13 active torsions:
REMARK  status: ('A' for Active; 'I' for Inactive)
REMARK    1  A    between atoms: C_1  and  C_2
REMARK    2  A    between atoms: C_2  and  N_3
REMARK    3  A    between atoms: N_3  and  C_4
REMARK    4  A    between atoms: C_4  and  C_5
REMARK    5  A    between atoms: C_6  and  C_8
REMARK    6  A    between atoms: C_8  and  N_9
REMARK    7  A    between atoms: C_12  and  C_19
REMARK    8  A    between atoms: C_13  and  C_15
REMARK    9  A    between atoms: N_17  and  N_18
REMARK   10  A    between atoms: N_22  and  C_25
REMARK   11  A    between atoms: C_25  and  C_26
REMARK   12  A    between atoms: C_29  and  C_33
REMARK   13  A    between atoms: C_31  and  C_32
REMARK                            x       y       z     vdW  Elec       q    Type
REMARK                         _______ _______ _______ _____ _____    ______ ____
ROOT
ATOM      1  N   UNL     1      -2.264  -0.770   3.678  0.00  0.00    -0.278 N 
ATOM      2  C   UNL     1      -3.086   0.167   4.239  0.00  0.00    +0.098 A 
ATOM      3  C   UNL     1      -3.916  -0.153   5.323  0.00  0.00    +0.074 A 
ATOM      4  C   UNL     1      -4.711   0.891   5.810  0.00  0.00    -0.017 A 
ATOM      5  C   UNL     1      -4.599   2.101   5.187  0.00  0.00    +0.081 A 
ATOM      6  S   UNL     1      -3.385   1.780   3.923  0.00  0.00    -0.065 S 
ATOM      7  C   UNL     1      -5.650   0.689   6.971  0.00  0.00    +0.046 C 
ATOM      8  C   UNL     1      -3.833  -1.555   5.801  0.00  0.00    +0.265 A 
ATOM      9  O   UNL     1      -4.516  -1.927   6.737  0.00  0.00    -0.267 OA
ATOM     10  N   UNL     1      -2.995  -2.409   5.188  0.00  0.00    -0.256 N 
ATOM     11  C   UNL     1      -2.233  -2.030   4.150  0.00  0.00    +0.334 A 
ATOM     12  O   UNL     1      -1.495  -2.842   3.627  0.00  0.00    -0.246 OA
ENDROOT
BRANCH   5  13
ATOM     13  C   UNL     1      -5.301   3.352   5.485  0.00  0.00    +0.264 C 
ATOM     14  O   UNL     1      -6.109   3.394   6.395  0.00  0.00    -0.268 OA
ATOM     15  N   UNL     1      -5.054   4.454   4.751  0.00  0.00    -0.249 N 
ATOM     16  H   UNL     1      -4.411   4.420   4.025  0.00  0.00    +0.169 HD
BRANCH  15  17
ATOM     17  N   UNL     1      -5.710   5.620   5.028  0.00  0.00    -0.254 NA
ATOM     18  H   UNL     1      -5.423   6.355   4.398  0.00  0.00    +0.140 HD
ATOM     19  H   UNL     1      -6.710   5.489   4.998  0.00  0.00    +0.140 HD
ENDBRANCH  15  17
ENDBRANCH   5  13
BRANCH   1  20
ATOM     20  C   UNL     1      -1.411  -0.399   2.546  0.00  0.00    +0.223 C 
BRANCH  20  22
ATOM     21  N   UNL     1      -1.564  -0.363   0.078  0.00  0.00    -0.301 N 
ATOM     22  C   UNL     1      -2.155  -0.635   1.258  0.00  0.00    +0.236 C 
ATOM     23  O   UNL     1      -3.288  -1.070   1.282  0.00  0.00    -0.274 OA
BRANCH  21  25
ATOM     24  C   UNL     1      -0.236   1.691   0.089  0.00  0.00    +0.024 C 
ATOM     25  C   UNL     1      -0.196   0.162   0.048  0.00  0.00    +0.104 C 
ENDBRANCH  21  25
BRANCH  21  26
ATOM     26  C   UNL     1      -2.288  -0.592  -1.175  0.00  0.00    +0.104 C 
ATOM     27  C   UNL     1      -2.024  -2.018  -1.663  0.00  0.00    +0.024 C 
ENDBRANCH  21  26
ENDBRANCH  20  22
ENDBRANCH   1  20
BRANCH  10  28
ATOM     28  C   UNL     1      -2.916  -3.793   5.662  0.00  0.00    +0.165 C 
BRANCH  28  29
ATOM     29  C   UNL     1      -3.987  -4.616   4.994  0.00  0.00    -0.025 A 
ATOM     30  C   UNL     1      -4.766  -4.057   3.997  0.00  0.00    +0.006 A 
ATOM     31  C   UNL     1      -5.749  -4.812   3.384  0.00  0.00    +0.004 A 
ATOM     32  C   UNL     1      -5.952  -6.125   3.767  0.00  0.00    -0.050 A 
ATOM     33  C   UNL     1      -5.173  -6.683   4.762  0.00  0.00    +0.007 A 
ATOM     34  C   UNL     1      -4.187  -5.930   5.373  0.00  0.00    -0.045 A 
ATOM     35  C   UNL     1      -3.333  -6.540   6.454  0.00  0.00    +0.044 C 
ATOM     36  C   UNL     1      -7.024  -6.947   3.099  0.00  0.00    +0.044 C 
ENDBRANCH  28  29
ENDBRANCH  10  28
TORSDOF 8
