REMARK  Name = ZINC13077449
REMARK  10 active torsions:
REMARK  status: ('A' for Active; 'I' for Inactive)
REMARK    1  A    between atoms: C_1  and  C_2
REMARK    2  A    between atoms: C_2  and  C_4
REMARK    3  A    between atoms: C_2  and  O_6
REMARK    4  A    between atoms: O_6  and  C_7
REMARK    5  A    between atoms: C_10  and  C_13
REMARK    6  A    between atoms: C_15  and  C_23
REMARK    7  A    between atoms: C_26  and  C_29
REMARK    8  A    between atoms: C_29  and  C_30
REMARK    9  A    between atoms: C_29  and  C_31
REMARK   10  A    between atoms: C_29  and  C_32
REMARK                            x       y       z     vdW  Elec       q    Type
REMARK                         _______ _______ _______ _____ _____    ______ ____
ROOT
ATOM      1  C   UNL     1       4.915   1.512  -1.177  0.00  0.00    +0.039 C 
ATOM      2  C   UNL     1       3.833   0.744  -1.181  0.00  0.00    +0.028 C 
ATOM      3  C   UNL     1       3.207   0.188   0.070  0.00  0.00    +0.167 C 
ATOM      4  N   UNL     1       4.110   0.381   1.198  0.00  0.00    -0.202 N 
ATOM      5  C   UNL     1       5.213   1.174   1.158  0.00  0.00    +0.240 A 
ATOM      6  N   UNL     1       5.772   1.119   2.333  0.00  0.00    -0.092 NA
ATOM      7  N   UNL     1       5.101   0.340   3.111  0.00  0.00    -0.021 NA
ATOM      8  N   UNL     1       4.077  -0.146   2.487  0.00  0.00    -0.042 NA
ATOM      9  N   UNL     1       5.572   1.863   0.010  0.00  0.00    -0.282 N 
ATOM     10  H   UNL     1       6.248   2.559   0.028  0.00  0.00    +0.155 HD
ENDROOT
BRANCH   1  14
ATOM     11  C   UNL     1       6.434   2.951  -4.877  0.00  0.00    +0.122 A 
ATOM     12  C   UNL     1       7.069   3.288  -3.689  0.00  0.00    +0.046 A 
ATOM     13  C   UNL     1       6.579   2.823  -2.487  0.00  0.00    +0.013 A 
ATOM     14  C   UNL     1       5.443   2.014  -2.465  0.00  0.00    -0.004 A 
ATOM     15  C   UNL     1       4.810   1.673  -3.661  0.00  0.00    +0.013 A 
ATOM     16  C   UNL     1       5.303   2.146  -4.859  0.00  0.00    +0.046 A 
BRANCH  11  17
ATOM     17  O   UNL     1       6.920   3.410  -6.059  0.00  0.00    -0.478 OA
BRANCH  17  19
ATOM     18  C   UNL     1       9.327   3.550  -5.892  0.00  0.00    +0.064 C 
ATOM     19  C   UNL     1       8.014   4.328  -5.999  0.00  0.00    +0.282 C 
BRANCH  19  20
ATOM     20  C   UNL     1       8.031   5.173  -7.246  0.00  0.00    +0.395 C 
ATOM     21  O   UNL     1       7.192   5.006  -8.100  0.00  0.00    -0.242 OA
ATOM     22  O   UNL     1       8.977   6.110  -7.410  0.00  0.00    -0.242 OA
ENDBRANCH  19  20
ENDBRANCH  17  19
ENDBRANCH  11  17
ENDBRANCH   1  14
BRANCH   3  23
ATOM     23  C   UNL     1       1.908   0.901   0.340  0.00  0.00    -0.019 A 
ATOM     24  C   UNL     1       0.725   0.187   0.387  0.00  0.00    +0.006 A 
ATOM     25  C   UNL     1      -0.468   0.842   0.629  0.00  0.00    +0.004 A 
ATOM     26  C   UNL     1      -0.477   2.209   0.836  0.00  0.00    -0.042 A 
ATOM     27  C   UNL     1       0.706   2.922   0.789  0.00  0.00    +0.004 A 
ATOM     28  C   UNL     1       1.899   2.268   0.542  0.00  0.00    +0.006 A 
BRANCH  26  29
ATOM     29  C   UNL     1      -1.777   2.922   1.106  0.00  0.00    -0.013 C 
ATOM     30  C   UNL     1      -2.019   3.970   0.018  0.00  0.00    +0.015 C 
ATOM     31  C   UNL     1      -2.924   1.910   1.104  0.00  0.00    +0.015 C 
ATOM     32  C   UNL     1      -1.707   3.611   2.471  0.00  0.00    +0.015 C 
ENDBRANCH  26  29
ENDBRANCH   3  23
TORSDOF 6
