REMARK  Name = ZINC00242480
REMARK  5 active torsions:
REMARK  status: ('A' for Active; 'I' for Inactive)
REMARK    1  A    between atoms: C_4  and  C_7
REMARK    2  A    between atoms: C_7  and  C_8
REMARK    3  A    between atoms: C_7  and  C_14
REMARK    4  A    between atoms: N_16  and  C_17
REMARK    5  A    between atoms: C_21  and  N_23
REMARK                            x       y       z     vdW  Elec       q    Type
REMARK                         _______ _______ _______ _____ _____    ______ ____
ROOT
ATOM      1  C   UNL     1      -3.712  -1.062  -0.203  0.00  0.00    +0.135 C 
ENDROOT
BRANCH   1   5
ATOM      2  C   UNL     1      -6.430  -0.290  -3.406  0.00  0.00    +0.000 A 
ATOM      3  C   UNL     1      -6.912  -0.536  -2.135  0.00  0.00    +0.000 A 
ATOM      4  C   UNL     1      -6.033  -0.786  -1.098  0.00  0.00    +0.005 A 
ATOM      5  C   UNL     1      -4.670  -0.790  -1.333  0.00  0.00    -0.031 A 
ATOM      6  C   UNL     1      -4.188  -0.538  -2.604  0.00  0.00    +0.005 A 
ATOM      7  C   UNL     1      -5.068  -0.293  -3.641  0.00  0.00    +0.000 A 
ENDBRANCH   1   5
BRANCH   1   8
ATOM      8  C   UNL     1      -3.060  -2.405  -0.409  0.00  0.00    -0.031 A 
ATOM      9  C   UNL     1      -2.203  -2.601  -1.476  0.00  0.00    +0.005 A 
ATOM     10  C   UNL     1      -1.601  -3.831  -1.663  0.00  0.00    +0.000 A 
ATOM     11  C   UNL     1      -1.865  -4.869  -0.789  0.00  0.00    +0.000 A 
ATOM     12  C   UNL     1      -2.727  -4.675   0.275  0.00  0.00    +0.000 A 
ATOM     13  C   UNL     1      -3.324  -3.443   0.464  0.00  0.00    +0.005 A 
ENDBRANCH   1   8
BRANCH   1  14
ATOM     14  C   UNL     1      -2.653   0.011  -0.173  0.00  0.00    +0.229 C 
ATOM     15  O   UNL     1      -1.485  -0.286  -0.306  0.00  0.00    -0.274 OA
ATOM     16  N   UNL     1      -3.005   1.300   0.002  0.00  0.00    -0.285 N 
ATOM     17  H   UNL     1      -3.930   1.530   0.184  0.00  0.00    +0.155 HD
BRANCH  16  18
ATOM     18  C   UNL     1      -2.036   2.306  -0.078  0.00  0.00    +0.036 A 
ATOM     19  C   UNL     1      -0.965   2.173  -0.952  0.00  0.00    +0.023 A 
ATOM     20  C   UNL     1      -0.014   3.171  -1.034  0.00  0.00    +0.004 A 
ATOM     21  C   UNL     1      -0.125   4.300  -0.242  0.00  0.00    +0.033 A 
ATOM     22  C   UNL     1      -1.187   4.433   0.633  0.00  0.00    +0.128 A 
ATOM     23  C   UNL     1      -2.141   3.438   0.720  0.00  0.00    +0.056 A 
BRANCH  22  24
ATOM     24  N   UNL     1      -1.302   5.643   1.478  0.00  0.00    +0.056 N 
ATOM     25  O   UNL     1      -0.461   6.521   1.402  0.00  0.00    -0.126 OA
ATOM     26  O   UNL     1      -2.237   5.760   2.250  0.00  0.00    -0.126 OA
ENDBRANCH  22  24
ENDBRANCH  16  18
ENDBRANCH   1  14
TORSDOF 5
