REMARK  Name = ZINC09882228
REMARK  7 active torsions:
REMARK  status: ('A' for Active; 'I' for Inactive)
REMARK    1  A    between atoms: C_4  and  N_7
REMARK    2  A    between atoms: C_8  and  C_10
REMARK    3  A    between atoms: C_15  and  O_16
REMARK    4  A    between atoms: O_16  and  C_17
REMARK    5  A    between atoms: C_17  and  C_18
REMARK    6  A    between atoms: N_23  and  C_24
REMARK    7  A    between atoms: C_24  and  C_25
REMARK                            x       y       z     vdW  Elec       q    Type
REMARK                         _______ _______ _______ _____ _____    ______ ____
ROOT
ATOM      1  C   UNL     1      -1.411  -0.526  -0.005  0.00  0.00    +0.258 C 
ATOM      2  O   UNL     1      -2.343   0.249   0.003  0.00  0.00    -0.272 OA
ATOM      3  N   UNL     1      -1.639  -1.854  -0.013  0.00  0.00    -0.237 N 
ATOM      4  C   UNL     1      -2.904  -2.321  -0.013  0.00  0.00    +0.306 C 
ATOM      5  O   UNL     1      -3.838  -1.544  -0.006  0.00  0.00    -0.252 OA
ATOM      6  N   UNL     1      -3.132  -3.649  -0.021  0.00  0.00    -0.295 N 
ATOM      7  H   UNL     1      -0.893  -2.474  -0.018  0.00  0.00    +0.159 HD
ATOM      8  H   UNL     1      -2.386  -4.269  -0.027  0.00  0.00    +0.150 HD
ENDROOT
BRANCH   1   9
ATOM      9  C   UNL     1       0.003  -0.004  -0.004  0.00  0.00    +0.325 C 
BRANCH   9  10
ATOM     10  O   UNL     1      -0.017   1.425   0.005  0.00  0.00    -0.482 OA
BRANCH  10  16
ATOM     11  C   UNL     1       1.241   3.458   0.009  0.00  0.00    +0.079 A 
ATOM     12  C   UNL     1       2.483   4.097   0.015  0.00  0.00    +0.017 A 
ATOM     13  C   UNL     1       3.641   3.350   0.008  0.00  0.00    +0.001 A 
ATOM     14  C   UNL     1       3.579   1.966  -0.001  0.00  0.00    +0.004 A 
ATOM     15  C   UNL     1       2.359   1.321  -0.001  0.00  0.00    +0.046 A 
ATOM     16  C   UNL     1       1.183   2.057   0.006  0.00  0.00    +0.133 A 
BRANCH  11  18
ATOM     17  N   UNL     1       0.058   5.598   0.014  0.00  0.00    -0.281 N 
ATOM     18  C   UNL     1      -0.002   4.251   0.011  0.00  0.00    +0.252 C 
ATOM     19  O   UNL     1      -1.081   3.691   0.010  0.00  0.00    -0.270 OA
ATOM     20  H   UNL     1       0.916   6.045   0.083  0.00  0.00    +0.155 HD
BRANCH  17  24
ATOM     21  C   UNL     1      -3.441   7.839  -0.273  0.00  0.00    +0.000 A 
ATOM     22  C   UNL     1      -3.443   6.643   0.420  0.00  0.00    +0.002 A 
ATOM     23  C   UNL     1      -2.285   5.897   0.517  0.00  0.00    +0.023 A 
ATOM     24  C   UNL     1      -1.117   6.350  -0.082  0.00  0.00    +0.034 A 
ATOM     25  C   UNL     1      -1.117   7.556  -0.772  0.00  0.00    +0.023 A 
ATOM     26  C   UNL     1      -2.280   8.293  -0.871  0.00  0.00    +0.002 A 
ENDBRANCH  17  24
ENDBRANCH  11  18
ENDBRANCH  10  16
ENDBRANCH   9  10
ENDBRANCH   1   9
BRANCH   6  27
ATOM     27  C   UNL     1      -4.506  -4.156  -0.021  0.00  0.00    +0.153 C 
BRANCH  27  28
ATOM     28  C   UNL     1      -4.485  -5.686  -0.031  0.00  0.00    +0.228 C 
ATOM     29  C   UNL     1      -5.922  -6.223  -0.061  0.00  0.00    +0.275 C 
ATOM     30  O   UNL     1      -5.866  -7.654  -0.084  0.00  0.00    -0.485 OA
ATOM     31  C   UNL     1      -4.988  -8.217  -0.958  0.00  0.00    +0.162 A 
ATOM     32  C   UNL     1      -5.127  -9.556  -1.293  0.00  0.00    +0.049 A 
ATOM     33  C   UNL     1      -4.241 -10.144  -2.176  0.00  0.00    +0.004 A 
ATOM     34  C   UNL     1      -3.215  -9.399  -2.729  0.00  0.00    +0.004 A 
ATOM     35  C   UNL     1      -3.073  -8.064  -2.400  0.00  0.00    +0.049 A 
ATOM     36  C   UNL     1      -3.958  -7.468  -1.514  0.00  0.00    +0.163 A 
ATOM     37  O   UNL     1      -3.807  -6.152  -1.203  0.00  0.00    -0.480 OA
ENDBRANCH  27  28
ENDBRANCH   6  27
TORSDOF 7
