REMARK  Name = ZINC65919187
REMARK  4 active torsions:
REMARK  status: ('A' for Active; 'I' for Inactive)
REMARK    1  A    between atoms: C_5  and  C_6
REMARK    2  A    between atoms: C_9  and  C_11
REMARK    3  A    between atoms: N_13  and  N_14
REMARK    4  A    between atoms: N_17  and  C_18
REMARK                            x       y       z     vdW  Elec       q    Type
REMARK                         _______ _______ _______ _____ _____    ______ ____
ROOT
ATOM      1  C   UNL     1      -2.863  -4.132   0.365  0.00  0.00    +0.273 C 
ATOM      2  O   UNL     1      -3.701  -4.060   1.238  0.00  0.00    -0.270 OA
ATOM      3  N   UNL     1      -2.299  -5.319   0.069  0.00  0.00    -0.230 N 
ATOM      4  H   UNL     1      -1.628  -5.377  -0.630  0.00  0.00    +0.173 HD
ENDROOT
BRANCH   3   5
ATOM      5  N   UNL     1      -2.682  -6.471   0.768  0.00  0.00    -0.218 N 
ATOM      6  C   UNL     1      -2.118  -7.659   0.472  0.00  0.00    +0.316 C 
ATOM      7  O   UNL     1      -2.451  -8.658   1.079  0.00  0.00    -0.251 OA
ATOM      8  N   UNL     1      -1.186  -7.739  -0.498  0.00  0.00    -0.295 N 
ATOM      9  H   UNL     1      -3.353  -6.414   1.466  0.00  0.00    +0.174 HD
ATOM     10  H   UNL     1      -0.921  -6.941  -0.983  0.00  0.00    +0.151 HD
BRANCH   8  11
ATOM     11  C   UNL     1      -0.573  -9.030  -0.821  0.00  0.00    +0.074 C 
ATOM     12  C   UNL     1      -1.421  -9.768  -1.877  0.00  0.00    +0.022 C 
ATOM     13  C   UNL     1      -0.743  -9.415  -3.224  0.00  0.00    +0.002 C 
ATOM     14  C   UNL     1       0.763  -9.426  -2.861  0.00  0.00    +0.002 C 
ATOM     15  C   UNL     1       0.816  -8.812  -1.447  0.00  0.00    +0.022 C 
ENDBRANCH   8  11
ENDBRANCH   3   5
BRANCH   1  19
ATOM     16  C   UNL     1      -1.124  -0.944   0.008  0.00  0.00    +0.098 C 
ATOM     17  N   UNL     1      -2.379  -0.625   0.017  0.00  0.00    -0.088 NA
ATOM     18  O   UNL     1      -3.231  -1.754   0.028  0.00  0.00    -0.380 OA
ATOM     19  C   UNL     1      -2.450  -2.893  -0.387  0.00  0.00    +0.297 C 
ATOM     20  C   UNL     1      -1.019  -2.457  -0.001  0.00  0.00    +0.117 C 
BRANCH  16  25
ATOM     21  C   UNL     1      -0.017   1.380   0.010  0.00  0.00    +0.019 A 
ATOM     22  C   UNL     1       1.183   2.050   0.002  0.00  0.00    +0.028 A 
ATOM     23  C   UNL     1       2.343   1.338  -0.013  0.00  0.00    +0.079 A 
ATOM     24  S   UNL     1       1.754  -0.347  -0.017  0.00  0.00    -0.075 S 
ATOM     25  C   UNL     1       0.002  -0.004   0.002  0.00  0.00    +0.038 A 
ATOM     26 CL   UNL     1       3.978   1.921  -0.026  0.00  0.00    -0.076 Cl
ENDBRANCH  16  25
ENDBRANCH   1  19
TORSDOF 4
