REMARK  Name = ZINC40086909
REMARK  4 active torsions:
REMARK  status: ('A' for Active; 'I' for Inactive)
REMARK    1  A    between atoms: C_1  and  C_2
REMARK    2  A    between atoms: C_3  and  N_25
REMARK    3  A    between atoms: C_5  and  C_7
REMARK    4  A    between atoms: N_9  and  C_10
REMARK                            x       y       z     vdW  Elec       q    Type
REMARK                         _______ _______ _______ _____ _____    ______ ____
ROOT
ATOM      1  C   UNL     1       1.076  -3.942  -0.026  0.00  0.00    +0.251 C 
ATOM      2  O   UNL     1       0.342  -4.913  -0.029  0.00  0.00    -0.270 OA
ATOM      3  N   UNL     1       2.413  -4.108  -0.034  0.00  0.00    -0.308 N 
ATOM      4  H   UNL     1       2.998  -3.334  -0.032  0.00  0.00    +0.149 HD
ENDROOT
BRANCH   3   5
ATOM      5  C   UNL     1       2.984  -5.457  -0.044  0.00  0.00    +0.077 C 
ATOM      6  C   UNL     1       3.115  -5.967  -1.505  0.00  0.00    +0.026 C 
ATOM      7  C   UNL     1       4.608  -6.497  -1.541  0.00  0.00    -0.006 C 
ATOM      8  C   UNL     1       5.248  -5.254  -0.788  0.00  0.00    +0.009 C 
ATOM      9  C   UNL     1       4.408  -5.433   0.546  0.00  0.00    +0.013 C 
ATOM     10  C   UNL     1       4.909  -6.829   0.887  0.00  0.00    -0.003 C 
ATOM     11  C   UNL     1       4.519  -7.553  -0.482  0.00  0.00    -0.004 C 
ATOM     12  C   UNL     1       4.850  -8.971  -0.307  0.00  0.00    +0.004 C 
ATOM     13  C   UNL     1       4.511  -9.223   1.202  0.00  0.00    +0.001 C 
ATOM     14  C   UNL     1       4.165  -7.756   1.840  0.00  0.00    +0.004 C 
ENDBRANCH   3   5
BRANCH   1  19
ATOM     15  C   UNL     1      -0.018   1.503   0.010  0.00  0.00    +0.054 C 
ATOM     16  C   UNL     1       0.002  -0.004   0.002  0.00  0.00    +0.018 A 
ATOM     17  C   UNL     1      -1.056  -0.852   0.002  0.00  0.00    +0.137 A 
ATOM     18  C   UNL     1      -0.827  -2.207  -0.007  0.00  0.00    +0.053 A 
ATOM     19  C   UNL     1       0.505  -2.592  -0.016  0.00  0.00    +0.076 A 
ATOM     20  S   UNL     1       1.341  -1.018  -0.017  0.00  0.00    -0.087 S 
BRANCH  17  21
ATOM     21  N   UNL     1      -2.439  -0.325   0.012  0.00  0.00    +0.057 N 
ATOM     22  O   UNL     1      -3.377  -1.088   0.012  0.00  0.00    -0.126 OA
ATOM     23  O   UNL     1      -2.631   0.869   0.021  0.00  0.00    -0.126 OA
ENDBRANCH  17  21
ENDBRANCH   1  19
TORSDOF 3
