REMARK  Name = ZINC02130447
REMARK  6 active torsions:
REMARK  status: ('A' for Active; 'I' for Inactive)
REMARK    1  A    between atoms: C_1  and  O_2
REMARK    2  A    between atoms: O_2  and  C_3
REMARK    3  A    between atoms: C_13  and  C_17
REMARK    4  A    between atoms: C_18  and  O_37
REMARK    5  A    between atoms: N_19  and  C_31
REMARK    6  A    between atoms: N_22  and  C_25
REMARK                            x       y       z     vdW  Elec       q    Type
REMARK                         _______ _______ _______ _____ _____    ______ ____
ROOT
ATOM      1  C   UNL     1       1.214   2.588  -0.275  0.00  0.00    +0.069 A 
ATOM      2  C   UNL     1       1.566   1.353  -0.732  0.00  0.00    +0.208 A 
ATOM      3  N   UNL     1       2.823   0.867  -0.468  0.00  0.00    -0.232 N 
ATOM      4  C   UNL     1       3.702   1.600   0.240  0.00  0.00    +0.344 A 
ATOM      5  O   UNL     1       4.811   1.155   0.464  0.00  0.00    -0.245 OA
ATOM      6  N   UNL     1       3.371   2.819   0.704  0.00  0.00    -0.228 N 
ATOM      7  C   UNL     1       2.148   3.333   0.467  0.00  0.00    +0.267 A 
ATOM      8  O   UNL     1       1.854   4.437   0.890  0.00  0.00    -0.267 OA
ENDROOT
BRANCH   1  19
ATOM      9  C   UNL     1      -0.177   8.364  -3.630  0.00  0.00    +0.121 A 
ATOM     10  C   UNL     1       0.756   7.705  -4.421  0.00  0.00    +0.047 A 
ATOM     11  C   UNL     1       1.159   6.408  -4.160  0.00  0.00    +0.030 A 
ATOM     12  C   UNL     1       0.587   5.774  -3.060  0.00  0.00    +0.047 A 
ATOM     13  C   UNL     1      -0.366   6.443  -2.250  0.00  0.00    +0.006 A 
ATOM     14  C   UNL     1      -0.761   7.756  -2.529  0.00  0.00    +0.056 A 
ATOM     15  C   UNL     1      -0.743   5.502  -1.218  0.00  0.00    -0.022 A 
ATOM     16  C   UNL     1      -0.038   4.368  -1.435  0.00  0.00    +0.011 A 
ATOM     17  N   UNL     1       0.760   4.522  -2.535  0.00  0.00    -0.359 N 
ATOM     18  H   UNL     1       1.358   3.845  -2.890  0.00  0.00    +0.166 HD
ATOM     19  C   UNL     1      -0.157   3.145  -0.556  0.00  0.00    +0.018 C 
ATOM     20  C   UNL     1      -2.049   4.274   0.468  0.00  0.00    -0.076 C 
ATOM     21  C   UNL     1      -1.724   5.668  -0.085  0.00  0.00    +0.018 C 
ATOM     22  N   UNL     1      -0.797   3.532   0.720  0.00  0.00    +0.388 N 
ATOM     23  H   UNL     1      -0.153   4.127   1.254  0.00  0.00    -0.084 HD
ATOM     24  H   UNL     1      -1.009   2.685   1.262  0.00  0.00    -0.084 HD
BRANCH   9  26
ATOM     25  C   UNL     1       0.102  10.223  -5.087  0.00  0.00    +0.277 C 
ATOM     26  O   UNL     1      -0.527   9.640  -3.943  0.00  0.00    -0.495 OA
ENDBRANCH   9  26
ENDBRANCH   1  19
BRANCH   6  27
ATOM     27  C   UNL     1       4.306   3.561   1.439  0.00  0.00    +0.054 A 
ATOM     28  C   UNL     1       5.198   4.399   0.784  0.00  0.00    +0.026 A 
ATOM     29  C   UNL     1       6.115   5.133   1.512  0.00  0.00    +0.002 A 
ATOM     30  C   UNL     1       6.152   5.024   2.890  0.00  0.00    +0.000 A 
ATOM     31  C   UNL     1       5.269   4.185   3.544  0.00  0.00    +0.002 A 
ATOM     32  C   UNL     1       4.346   3.454   2.822  0.00  0.00    +0.026 A 
ENDBRANCH   6  27
BRANCH   3  33
ATOM     33  C   UNL     1       3.194  -0.400  -0.939  0.00  0.00    +0.054 A 
ATOM     34  C   UNL     1       3.722  -0.540  -2.215  0.00  0.00    +0.026 A 
ATOM     35  C   UNL     1       4.092  -1.790  -2.674  0.00  0.00    +0.002 A 
ATOM     36  C   UNL     1       3.925  -2.901  -1.869  0.00  0.00    +0.000 A 
ATOM     37  C   UNL     1       3.393  -2.765  -0.599  0.00  0.00    +0.002 A 
ATOM     38  C   UNL     1       3.027  -1.518  -0.133  0.00  0.00    +0.026 A 
ENDBRANCH   3  33
BRANCH   2  39
ATOM     39  O   UNL     1       0.686   0.614  -1.442  0.00  0.00    -0.493 OA
ATOM     40  H   UNL     1       1.031  -0.244  -1.725  0.00  0.00    +0.294 HD
ENDBRANCH   2  39
TORSDOF 5
