REMARK  Name = ZINC31036649
REMARK  14 active torsions:
REMARK  status: ('A' for Active; 'I' for Inactive)
REMARK    1  A    between atoms: C_1  and  C_2
REMARK    2  A    between atoms: C_2  and  C_3
REMARK    3  A    between atoms: C_3  and  N_4
REMARK    4  A    between atoms: C_5  and  N_30
REMARK    5  A    between atoms: C_6  and  C_13
REMARK    6  A    between atoms: N_9  and  C_12
REMARK    7  A    between atoms: C_13  and  C_15
REMARK    8  A    between atoms: C_15  and  N_16
REMARK    9  A    between atoms: N_16  and  C_17
REMARK   10  A    between atoms: N_16  and  C_18
REMARK   11  A    between atoms: C_18  and  C_19
REMARK   12  A    between atoms: N_21  and  C_22
REMARK   13  A    between atoms: C_27  and  S_28
REMARK   14  A    between atoms: S_28  and  C_29
REMARK                            x       y       z     vdW  Elec       q    Type
REMARK                         _______ _______ _______ _____ _____    ______ ____
ROOT
ATOM      1  C   UNL     1       2.827   2.286   4.850  0.00  0.00    +0.155 C 
ATOM      2  O   UNL     1       3.059   3.385   4.386  0.00  0.00    -0.294 OA
ENDROOT
BRANCH   1   5
ATOM      3  N   UNL     1       0.081   1.117   2.687  0.00  0.00    -0.281 N 
ATOM      4  C   UNL     1       1.079   1.914   3.171  0.00  0.00    +0.116 A 
ATOM      5  C   UNL     1       1.788   1.498   4.311  0.00  0.00    +0.118 A 
ATOM      6  C   UNL     1       1.413   0.217   4.923  0.00  0.00    +0.269 A 
ATOM      7  O   UNL     1       1.993  -0.192   5.912  0.00  0.00    -0.267 OA
ATOM      8  N   UNL     1       0.412  -0.496   4.368  0.00  0.00    -0.263 N 
ATOM      9  C   UNL     1      -0.234  -0.045   3.280  0.00  0.00    +0.333 A 
ATOM     10  O   UNL     1      -1.134  -0.716   2.813  0.00  0.00    -0.246 OA
ATOM     11  C   UNL     1       0.020  -1.777   4.962  0.00  0.00    +0.157 C 
BRANCH   4  12
ATOM     12  N   UNL     1       1.381   3.091   2.559  0.00  0.00    -0.344 N 
ATOM     13  H   UNL     1       2.187   3.726   2.957  0.00  0.00    +0.144 HD
ATOM     14  H   UNL     1       0.821   3.408   1.667  0.00  0.00    +0.144 HD
ENDBRANCH   4  12
BRANCH   3  15
ATOM     15  C   UNL     1      -0.665   1.542   1.499  0.00  0.00    +0.128 C 
BRANCH  15  17
ATOM     16  C   UNL     1      -0.750   1.452  -0.996  0.00  0.00    +0.005 C 
ATOM     17  C   UNL     1       0.028   1.008   0.244  0.00  0.00    +0.018 C 
ENDBRANCH  15  17
ENDBRANCH   3  15
ENDBRANCH   1   5
BRANCH   1  18
ATOM     18  C   UNL     1       3.650   1.765   6.000  0.00  0.00    +0.003 C 
BRANCH  18  19
ATOM     19  N   UNL     1       4.658   2.766   6.374  0.00  0.00    +0.388 N 
ATOM     20  C   UNL     1       5.641   2.951   5.297  0.00  0.00    -0.095 C 
ATOM     21  H   UNL     1       4.142   3.724   6.529  0.00  0.00    -0.081 HD
BRANCH  19  22
ATOM     22  C   UNL     1       5.320   2.401   7.633  0.00  0.00    +0.019 C 
BRANCH  22  23
ATOM     23  C   UNL     1       6.162   3.555   8.111  0.00  0.00    +0.201 C 
ATOM     24  O   UNL     1       6.207   4.582   7.466  0.00  0.00    -0.278 OA
ATOM     25  N   UNL     1       6.866   3.448   9.256  0.00  0.00    -0.286 N 
ATOM     26  H   UNL     1       6.899   2.489   9.793  0.00  0.00    +0.155 HD
BRANCH  25  27
ATOM     27  C   UNL     1       7.555   4.559   9.762  0.00  0.00    +0.047 A 
ATOM     28  C   UNL     1       7.142   5.841   9.435  0.00  0.00    +0.024 A 
ATOM     29  C   UNL     1       7.819   6.935   9.939  0.00  0.00    +0.002 A 
ATOM     30  C   UNL     1       8.917   6.756  10.762  0.00  0.00    +0.001 A 
ATOM     31  C   UNL     1       9.339   5.481  11.088  0.00  0.00    +0.016 A 
ATOM     32  C   UNL     1       8.662   4.377  10.591  0.00  0.00    +0.029 A 
BRANCH  32  33
ATOM     33  S   UNL     1       9.199   2.751  11.005  0.00  0.00    -0.127 S 
ATOM     34  C   UNL     1      10.636   3.023  12.078  0.00  0.00    +0.090 C 
ENDBRANCH  32  33
ENDBRANCH  25  27
ENDBRANCH  22  23
ENDBRANCH  19  22
ENDBRANCH  18  19
ENDBRANCH   1  18
TORSDOF 10
