REMARK  Name = ZINC38550872
REMARK  4 active torsions:
REMARK  status: ('A' for Active; 'I' for Inactive)
REMARK    1  A    between atoms: C_1  and  C_2
REMARK    2  A    between atoms: C_2  and  C_3
REMARK    3  A    between atoms: C_2  and  C_4
REMARK    4  A    between atoms: C_2  and  N_5
REMARK                            x       y       z     vdW  Elec       q    Type
REMARK                         _______ _______ _______ _____ _____    ______ ____
ROOT
ATOM      1  N   UNL     1       0.689  -0.480  -1.201  0.00  0.00    -0.294 N 
ATOM      2  C   UNL     1       1.972  -0.132  -1.427  0.00  0.00    +0.303 C 
ATOM      3  O   UNL     1       2.531   0.646  -0.679  0.00  0.00    -0.253 OA
ATOM      4  N   UNL     1       2.633  -0.647  -2.482  0.00  0.00    -0.283 N 
ATOM      5  C   UNL     1       1.937  -1.494  -3.461  0.00  0.00    +0.128 C 
ATOM      6  C   UNL     1       2.138  -0.894  -4.858  0.00  0.00    +0.126 C 
ATOM      7  N   UNL     1       3.568  -0.619  -5.050  0.00  0.00    -0.307 N 
ATOM      8  C   UNL     1       4.265   0.228  -4.071  0.00  0.00    +0.126 C 
ATOM      9  C   UNL     1       4.063  -0.368  -2.677  0.00  0.00    +0.128 C 
ATOM     10  C   UNL     1       4.246  -1.147  -6.131  0.00  0.00    +0.162 A 
ATOM     11  N   UNL     1       3.790  -1.910  -7.097  0.00  0.00    -0.222 NA
ATOM     12  C   UNL     1       4.576  -2.357  -8.101  0.00  0.00    +0.115 A 
ATOM     13  C   UNL     1       4.213  -3.180  -9.195  0.00  0.00    +0.150 A 
ATOM     14  C   UNL     1       5.143  -3.546 -10.135  0.00  0.00    +0.040 A 
ATOM     15  C   UNL     1       6.463  -3.127 -10.050  0.00  0.00    +0.004 A 
ATOM     16  C   UNL     1       6.851  -2.322  -8.994  0.00  0.00    +0.017 A 
ATOM     17  C   UNL     1       5.927  -1.951  -8.049  0.00  0.00    +0.044 A 
ATOM     18  S   UNL     1       5.967  -0.958  -6.575  0.00  0.00    -0.052 S 
ATOM     19  F   UNL     1       2.938  -3.610  -9.314  0.00  0.00    -0.203 F 
ATOM     20  H   UNL     1       0.221  -1.044  -1.835  0.00  0.00    +0.151 HD
ENDROOT
BRANCH   1  22
ATOM     21  C   UNL     1      -0.022   1.524   0.008  0.00  0.00    +0.031 C 
ATOM     22  C   UNL     1       0.003  -0.006   0.004  0.00  0.00    +0.028 C 
ATOM     23  C   UNL     1       0.747  -0.506   1.244  0.00  0.00    +0.031 C 
ATOM     24  C   UNL     1      -1.430  -0.540   0.018  0.00  0.00    +0.031 C 
ENDBRANCH   1  22
TORSDOF 1
