REMARK  Name = ZINC20155174
REMARK  9 active torsions:
REMARK  status: ('A' for Active; 'I' for Inactive)
REMARK    1  A    between atoms: C_1  and  C_2
REMARK    2  A    between atoms: C_7  and  N_12
REMARK    3  A    between atoms: C_9  and  C_11
REMARK    4  A    between atoms: N_12  and  C_13
REMARK    5  A    between atoms: C_13  and  C_14
REMARK    6  A    between atoms: N_16  and  C_17
REMARK    7  A    between atoms: C_20  and  N_36
REMARK    8  A    between atoms: C_22  and  C_23
REMARK    9  A    between atoms: N_25  and  C_26
REMARK                            x       y       z     vdW  Elec       q    Type
REMARK                         _______ _______ _______ _____ _____    ______ ____
ROOT
ATOM      1  C   UNL     1       4.955  -4.130   0.139  0.00  0.00    +0.046 A 
ATOM      2  C   UNL     1       6.168  -4.798   0.240  0.00  0.00    +0.026 A 
ATOM      3  C   UNL     1       7.345  -4.084   0.341  0.00  0.00    +0.034 A 
ATOM      4  C   UNL     1       7.326  -2.699   0.343  0.00  0.00    +0.127 A 
ATOM      5  C   UNL     1       6.132  -2.019   0.238  0.00  0.00    +0.047 A 
ATOM      6  C   UNL     1       4.933  -2.728   0.141  0.00  0.00    +0.060 A 
ENDROOT
BRANCH   1   9
ATOM      7  C   UNL     1       3.739  -6.011  -0.646  0.00  0.00    +0.200 C 
ATOM      8  O   UNL     1       4.764  -6.473  -1.101  0.00  0.00    -0.278 OA
ATOM      9  N   UNL     1       3.767  -4.850   0.036  0.00  0.00    -0.286 N 
ATOM     10  H   UNL     1       2.851  -4.469   0.513  0.00  0.00    +0.155 HD
BRANCH   7  11
ATOM     11  C   UNL     1       2.433  -6.738  -0.844  0.00  0.00    +0.016 C 
BRANCH  11  12
ATOM     12  N   UNL     1       2.669  -7.967  -1.613  0.00  0.00    +0.387 N 
ATOM     13  H   UNL     1       3.376  -8.601  -1.058  0.00  0.00    -0.085 HD
ATOM     14  H   UNL     1       3.105  -7.696  -2.586  0.00  0.00    -0.085 HD
BRANCH  12  20
ATOM     15  C   UNL     1      -0.915  -9.345  -3.483  0.00  0.00    +0.008 C 
ATOM     16  C   UNL     1       0.235 -10.338  -3.302  0.00  0.00    -0.013 C 
ATOM     17  C   UNL     1      -0.046 -11.228  -2.090  0.00  0.00    +0.003 C 
ATOM     18  C   UNL     1      -0.172 -10.359  -0.837  0.00  0.00    -0.001 C 
ATOM     19  C   UNL     1       1.134  -9.593  -0.615  0.00  0.00    -0.015 C 
ATOM     20  C   UNL     1       1.415  -8.703  -1.827  0.00  0.00    -0.068 C 
ATOM     21  C   UNL     1       1.541  -9.572  -3.080  0.00  0.00    -0.025 C 
ATOM     22  C   UNL     1       1.822  -8.681  -4.292  0.00  0.00    +0.006 C 
ENDBRANCH  12  20
ENDBRANCH  11  12
ENDBRANCH   7  11
ENDBRANCH   1   9
BRANCH   6  23
ATOM     23  C   UNL     1       3.651  -2.006   0.034  0.00  0.00    +0.250 C 
ATOM     24  O   UNL     1       2.603  -2.624   0.035  0.00  0.00    -0.270 OA
ATOM     25  N   UNL     1       3.640  -0.662  -0.066  0.00  0.00    -0.281 N 
ATOM     26  H   UNL     1       4.588  -0.109  -0.143  0.00  0.00    +0.155 HD
BRANCH  25  27
ATOM     27  C   UNL     1       2.423   0.030  -0.070  0.00  0.00    +0.037 A 
ATOM     28  C   UNL     1       2.330   1.276   0.535  0.00  0.00    +0.027 A 
ATOM     29  C   UNL     1       1.129   1.959   0.531  0.00  0.00    +0.051 A 
ATOM     30  C   UNL     1       0.013   1.402  -0.076  0.00  0.00    +0.162 A 
ATOM     31  C   UNL     1       0.103   0.156  -0.685  0.00  0.00    +0.164 A 
ATOM     32  C   UNL     1       1.309  -0.529  -0.680  0.00  0.00    +0.072 A 
ATOM     33  O   UNL     1      -0.979  -0.402  -1.294  0.00  0.00    -0.485 OA
ATOM     34  C   UNL     1      -2.259   0.142  -0.956  0.00  0.00    +0.270 C 
ATOM     35  C   UNL     1      -2.160   1.672  -1.006  0.00  0.00    +0.270 C 
ATOM     36  O   UNL     1      -1.165   2.087  -0.063  0.00  0.00    -0.485 OA
ENDBRANCH  25  27
ENDBRANCH   6  23
BRANCH   4  37
ATOM     37  N   UNL     1       8.596  -1.945   0.451  0.00  0.00    +0.056 N 
ATOM     38  O   UNL     1       9.653  -2.543   0.539  0.00  0.00    -0.126 OA
ATOM     39  O   UNL     1       8.583  -0.727   0.453  0.00  0.00    -0.126 OA
ENDBRANCH   4  37
TORSDOF 7
