REMARK  Name = ZINC02377778
REMARK  9 active torsions:
REMARK  status: ('A' for Active; 'I' for Inactive)
REMARK    1  A    between atoms: C_1  and  N_2
REMARK    2  A    between atoms: N_2  and  C_3
REMARK    3  A    between atoms: N_2  and  C_4
REMARK    4  A    between atoms: C_7  and  N_10
REMARK    5  A    between atoms: C_11  and  C_13
REMARK    6  A    between atoms: C_13  and  S_14
REMARK    7  A    between atoms: S_14  and  C_15
REMARK    8  A    between atoms: C_18  and  C_21
REMARK    9  A    between atoms: N_19  and  N_20
REMARK                            x       y       z     vdW  Elec       q    Type
REMARK                         _______ _______ _______ _____ _____    ______ ____
ROOT
ATOM      1  S   UNL     1       3.771  -4.763   0.018  0.00  0.00    -0.075 S 
ENDROOT
BRANCH   1   2
ATOM      2  C   UNL     1       3.452  -6.488   0.186  0.00  0.00    +0.209 A 
ATOM      3  N   UNL     1       2.275  -7.051   0.339  0.00  0.00    -0.121 NA
ATOM      4  N   UNL     1       2.404  -8.327   0.427  0.00  0.00    -0.127 NA
ATOM      5  C   UNL     1       3.673  -8.656   0.345  0.00  0.00    +0.182 A 
ATOM      6  N   UNL     1       4.383  -7.488   0.188  0.00  0.00    -0.224 N 
BRANCH   5   7
ATOM      7  C   UNL     1       4.232 -10.022   0.409  0.00  0.00    +0.021 A 
ATOM      8  C   UNL     1       3.399 -11.129   0.237  0.00  0.00    +0.014 A 
ATOM      9  C   UNL     1       3.927 -12.402   0.294  0.00  0.00    +0.039 A 
ATOM     10  C   UNL     1       5.280 -12.584   0.531  0.00  0.00    +0.123 A 
ATOM     11  C   UNL     1       6.111 -11.488   0.708  0.00  0.00    +0.039 A 
ATOM     12  C   UNL     1       5.594 -10.211   0.648  0.00  0.00    +0.014 A 
ATOM     13  F   UNL     1       5.792 -13.833   0.591  0.00  0.00    -0.205 F 
ENDBRANCH   5   7
BRANCH   6  14
ATOM     14  N   UNL     1       5.736  -7.356   0.060  0.00  0.00    -0.295 N 
ATOM     15  H   UNL     1       6.185  -7.339   0.964  0.00  0.00    +0.163 HD
ATOM     16  H   UNL     1       6.118  -8.088  -0.519  0.00  0.00    +0.163 HD
ENDBRANCH   6  14
ENDBRANCH   1   2
BRANCH   1  17
ATOM     17  C   UNL     1       2.082  -4.120   0.110  0.00  0.00    +0.173 C 
BRANCH  17  19
ATOM     18  N   UNL     1       0.957  -1.919   0.027  0.00  0.00    -0.285 N 
ATOM     19  C   UNL     1       2.108  -2.619  -0.015  0.00  0.00    +0.227 C 
ATOM     20  O   UNL     1       3.165  -2.040  -0.153  0.00  0.00    -0.275 OA
ATOM     21  H   UNL     1       0.107  -2.385   0.070  0.00  0.00    +0.155 HD
BRANCH  18  25
ATOM     22  C   UNL     1       1.048   2.251  -0.031  0.00  0.00    +0.029 A 
ATOM     23  C   UNL     1       1.983   1.525  -0.758  0.00  0.00    +0.025 A 
ATOM     24  C   UNL     1       1.953   0.145  -0.739  0.00  0.00    +0.025 A 
ATOM     25  C   UNL     1       0.988  -0.518   0.008  0.00  0.00    +0.034 A 
ATOM     26  C   UNL     1       0.053   0.207   0.735  0.00  0.00    +0.025 A 
ATOM     27  C   UNL     1       0.083   1.587   0.716  0.00  0.00    +0.025 A 
BRANCH  22  29
ATOM     28  C   UNL     1       2.020   4.349  -0.928  0.00  0.00    +0.129 C 
ATOM     29  N   UNL     1       1.079   3.649  -0.050  0.00  0.00    -0.336 N 
ATOM     30  C   UNL     1       0.171   4.413   0.808  0.00  0.00    +0.129 C 
ENDBRANCH  22  29
ENDBRANCH  18  25
ENDBRANCH  17  19
ENDBRANCH   1  17
TORSDOF 7
