REMARK  Name = ZINC04078812
REMARK  4 active torsions:
REMARK  status: ('A' for Active; 'I' for Inactive)
REMARK    1  A    between atoms: C_8  and  N_11
REMARK    2  A    between atoms: C_12  and  C_14
REMARK    3  A    between atoms: C_15  and  C_16
REMARK    4  A    between atoms: C_19  and  N_21
REMARK                            x       y       z     vdW  Elec       q    Type
REMARK                         _______ _______ _______ _____ _____    ______ ____
ROOT
ATOM      1  N   UNL     1       2.623  -0.163  -0.024  0.00  0.00    -0.281 N 
ATOM      2  C   UNL     1       3.754  -0.719   0.455  0.00  0.00    +0.241 C 
ATOM      3  O   UNL     1       4.602  -0.019   0.979  0.00  0.00    -0.270 OA
ATOM      4  H   UNL     1       1.913  -0.728  -0.368  0.00  0.00    +0.155 HD
ENDROOT
BRANCH   1  12
ATOM      5  C   UNL     1      -1.191   1.767   0.006  0.00  0.00    +0.001 A 
ATOM      6  C   UNL     1      -1.247   3.163   0.008  0.00  0.00    +0.004 A 
ATOM      7  C   UNL     1      -0.100   3.897  -0.005  0.00  0.00    -0.039 A 
ATOM      8  C   UNL     1       1.113   3.214  -0.015  0.00  0.00    -0.010 A 
ATOM      9  C   UNL     1       2.237   4.033  -0.029  0.00  0.00    -0.039 A 
ATOM     10  C   UNL     1       3.465   3.442  -0.040  0.00  0.00    +0.006 A 
ATOM     11  C   UNL     1       3.581   2.052  -0.039  0.00  0.00    +0.024 A 
ATOM     12  C   UNL     1       2.475   1.224  -0.026  0.00  0.00    +0.041 A 
ATOM     13  C   UNL     1       1.192   1.811  -0.013  0.00  0.00    +0.004 A 
ATOM     14  C   UNL     1      -0.009   1.085   0.001  0.00  0.00    +0.010 A 
ATOM     15  C   UNL     1       1.754   5.464  -0.027  0.00  0.00    +0.040 C 
ATOM     16  C   UNL     1       0.212   5.373  -0.012  0.00  0.00    +0.040 C 
ENDBRANCH   1  12
BRANCH   2  17
ATOM     17  C   UNL     1       3.955  -2.115   0.350  0.00  0.00    +0.068 C 
ATOM     18  C   UNL     1       5.093  -2.675   0.833  0.00  0.00    +0.020 C 
BRANCH  18  19
ATOM     19  C   UNL     1       5.294  -4.072   0.728  0.00  0.00    +0.015 A 
ATOM     20  C   UNL     1       6.377  -4.835   1.147  0.00  0.00    +0.018 A 
ATOM     21  C   UNL     1       6.311  -6.188   0.921  0.00  0.00    +0.041 A 
ATOM     22  C   UNL     1       5.218  -6.705   0.302  0.00  0.00    +0.164 A 
ATOM     23  S   UNL     1       4.227  -5.312   0.015  0.00  0.00    -0.065 S 
BRANCH  22  24
ATOM     24  N   UNL     1       4.940  -8.117  -0.044  0.00  0.00    +0.063 N 
ATOM     25  O   UNL     1       5.751  -8.983   0.232  0.00  0.00    -0.126 OA
ATOM     26  O   UNL     1       3.900  -8.414  -0.604  0.00  0.00    -0.126 OA
ENDBRANCH  22  24
ENDBRANCH  18  19
ENDBRANCH   2  17
TORSDOF 4
