REMARK  Name = ZINC14133035
REMARK  8 active torsions:
REMARK  status: ('A' for Active; 'I' for Inactive)
REMARK    1  A    between atoms: C_1  and  C_2
REMARK    2  A    between atoms: C_5  and  N_8
REMARK    3  A    between atoms: C_12  and  S_13
REMARK    4  A    between atoms: S_13  and  C_14
REMARK    5  A    between atoms: C_14  and  C_16
REMARK    6  A    between atoms: C_14  and  C_17
REMARK    7  A    between atoms: N_19  and  C_20
REMARK    8  A    between atoms: C_22  and  C_25
REMARK                            x       y       z     vdW  Elec       q    Type
REMARK                         _______ _______ _______ _____ _____    ______ ____
ROOT
ATOM      1  N   UNL     1      -2.287  -3.301   1.085  0.00  0.00    -0.259 N 
ATOM      2  C   UNL     1      -1.699  -4.535   1.040  0.00  0.00    +0.225 A 
ATOM      3  N   UNL     1      -0.482  -4.388   0.576  0.00  0.00    -0.112 NA
ATOM      4  N   UNL     1      -0.281  -3.027   0.309  0.00  0.00    -0.120 NA
ATOM      5  C   UNL     1      -1.382  -2.385   0.619  0.00  0.00    +0.198 A 
ATOM      6  N   UNL     1      -2.286  -5.734   1.424  0.00  0.00    -0.299 N 
ATOM      7  C   UNL     1      -1.528  -6.367   2.511  0.00  0.00    +0.108 C 
ATOM      8  C   UNL     1      -2.280  -7.605   3.006  0.00  0.00    +0.019 C 
ATOM      9  C   UNL     1      -2.458  -8.586   1.844  0.00  0.00    +0.003 C 
ATOM     10  C   UNL     1      -3.208  -7.887   0.706  0.00  0.00    +0.019 C 
ATOM     11  C   UNL     1      -2.429  -6.641   0.278  0.00  0.00    +0.108 C 
ENDROOT
BRANCH   1  16
ATOM     12  C   UNL     1      -7.556  -2.176   2.874  0.00  0.00    +0.044 C 
ATOM     13  C   UNL     1      -6.157  -2.474   2.399  0.00  0.00    -0.050 A 
ATOM     14  C   UNL     1      -5.827  -2.297   1.068  0.00  0.00    +0.005 A 
ATOM     15  C   UNL     1      -4.546  -2.570   0.630  0.00  0.00    +0.026 A 
ATOM     16  C   UNL     1      -3.589  -3.022   1.527  0.00  0.00    +0.052 A 
ATOM     17  C   UNL     1      -3.924  -3.204   2.862  0.00  0.00    +0.026 A 
ATOM     18  C   UNL     1      -5.205  -2.925   3.295  0.00  0.00    +0.005 A 
ENDBRANCH   1  16
BRANCH   5  19
ATOM     19  S   UNL     1      -1.646  -0.650   0.470  0.00  0.00    -0.073 S 
BRANCH  19  20
ATOM     20  C   UNL     1      -0.078  -0.022  -0.191  0.00  0.00    +0.137 C 
ATOM     21  C   UNL     1       0.145  -0.585  -1.597  0.00  0.00    +0.029 C 
BRANCH  20  22
ATOM     22  C   UNL     1      -0.126   1.483  -0.254  0.00  0.00    +0.233 C 
ATOM     23  O   UNL     1      -1.194   2.056  -0.251  0.00  0.00    -0.274 OA
ATOM     24  N   UNL     1       1.019   2.191  -0.320  0.00  0.00    -0.253 N 
ATOM     25  H   UNL     1       1.874   1.732  -0.327  0.00  0.00    +0.158 HD
BRANCH  24  26
ATOM     26  C   UNL     1       0.975   3.576  -0.378  0.00  0.00    +0.224 A 
ATOM     27  C   UNL     1       2.040   4.428  -0.447  0.00  0.00    +0.092 A 
ATOM     28  C   UNL     1       1.450   5.707  -0.484  0.00  0.00    +0.082 A 
ATOM     29  N   UNL     1       0.161   5.522  -0.436  0.00  0.00    -0.081 NA
ATOM     30  O   UNL     1      -0.123   4.348  -0.383  0.00  0.00    -0.339 OA
ATOM     31  C   UNL     1       2.168   7.029  -0.563  0.00  0.00    +0.069 C 
ENDBRANCH  24  26
ENDBRANCH  20  22
ENDBRANCH  19  20
ENDBRANCH   5  19
TORSDOF 5
