REMARK  Name = ZINC13731078
REMARK  3 active torsions:
REMARK  status: ('A' for Active; 'I' for Inactive)
REMARK    1  A    between atoms: C_4  and  C_7
REMARK    2  A    between atoms: C_7  and  C_8
REMARK    3  A    between atoms: C_11  and  C_16
REMARK                            x       y       z     vdW  Elec       q    Type
REMARK                         _______ _______ _______ _____ _____    ______ ____
ROOT
ATOM      1  C   UNL     1       4.164  -0.959   1.377  0.00  0.00    +0.107 A 
ATOM      2  N   UNL     1       3.579  -0.637   2.492  0.00  0.00    -0.160 NA
ATOM      3  N   UNL     1       4.141  -0.950   3.722  0.00  0.00    -0.184 N 
ATOM      4  C   UNL     1       3.877  -0.806   5.078  0.00  0.00    +0.202 A 
ATOM      5  N   UNL     1       4.871  -1.357   5.741  0.00  0.00    -0.125 NA
ATOM      6  N   UNL     1       5.736  -1.835   4.915  0.00  0.00    -0.120 NA
ATOM      7  C   UNL     1       5.342  -1.615   3.695  0.00  0.00    +0.218 A 
ATOM      8  S   UNL     1       5.640  -1.785   1.952  0.00  0.00    -0.031 S 
ENDROOT
BRANCH   4   9
ATOM      9  C   UNL     1       2.697  -0.153   5.668  0.00  0.00    +0.087 A 
ATOM     10  C   UNL     1       2.584   0.242   6.964  0.00  0.00    +0.039 A 
ATOM     11  C   UNL     1       1.259   0.839   7.114  0.00  0.00    +0.000 A 
ATOM     12  C   UNL     1       0.573   1.415   8.187  0.00  0.00    +0.010 A 
ATOM     13  C   UNL     1      -0.693   1.896   8.004  0.00  0.00    +0.001 A 
ATOM     14  C   UNL     1      -1.303   1.818   6.760  0.00  0.00    +0.002 A 
ATOM     15  C   UNL     1      -0.645   1.254   5.687  0.00  0.00    +0.026 A 
ATOM     16  C   UNL     1       0.643   0.758   5.850  0.00  0.00    +0.047 A 
ATOM     17  N   UNL     1       1.539   0.158   4.990  0.00  0.00    -0.352 N 
ATOM     18  H   UNL     1       1.377  -0.021   4.051  0.00  0.00    +0.166 HD
ENDBRANCH   4   9
BRANCH   1  19
ATOM     19  C   UNL     1       3.711  -0.707  -0.038  0.00  0.00    +0.100 C 
BRANCH  19  23
ATOM     20  C   UNL     1      -0.017   1.378   0.010  0.00  0.00    +0.000 A 
ATOM     21  C   UNL     1       1.171   2.086   0.002  0.00  0.00    +0.000 A 
ATOM     22  C   UNL     1       2.377   1.411  -0.013  0.00  0.00    +0.004 A 
ATOM     23  C   UNL     1       2.396   0.029  -0.020  0.00  0.00    -0.041 A 
ATOM     24  C   UNL     1       1.208  -0.679  -0.012  0.00  0.00    +0.004 A 
ATOM     25  C   UNL     1       0.002  -0.004   0.002  0.00  0.00    +0.000 A 
ENDBRANCH  19  23
ENDBRANCH   1  19
TORSDOF 3
