REMARK  Name = ZINC60497858
REMARK  12 active torsions:
REMARK  status: ('A' for Active; 'I' for Inactive)
REMARK    1  A    between atoms: C_1  and  C_2
REMARK    2  A    between atoms: C_4  and  N_22
REMARK    3  A    between atoms: C_5  and  S_9
REMARK    4  A    between atoms: C_7  and  C_8
REMARK    5  A    between atoms: S_9  and  N_12
REMARK    6  A    between atoms: N_12  and  C_13
REMARK    7  A    between atoms: N_12  and  C_14
REMARK    8  A    between atoms: C_14  and  C_15
REMARK    9  A    between atoms: N_17  and  C_18
REMARK   10  A    between atoms: C_18  and  C_19
REMARK   11  A    between atoms: C_18  and  C_20
REMARK   12  A    between atoms: C_18  and  C_21
REMARK                            x       y       z     vdW  Elec       q    Type
REMARK                         _______ _______ _______ _____ _____    ______ ____
ROOT
ATOM      1  S   UNL     1      -0.851  -4.833   0.303  0.00  0.00    +0.063 S 
ATOM      2  O   UNL     1      -0.006  -5.763  -0.360  0.00  0.00    -0.153 OA
ATOM      3  O   UNL     1      -0.927  -4.749   1.720  0.00  0.00    -0.153 OA
ENDROOT
BRANCH   1   8
ATOM      4  C   UNL     1       0.738   0.644  -1.669  0.00  0.00    +0.044 C 
ATOM      5  C   UNL     1       0.341  -0.724  -1.176  0.00  0.00    -0.045 A 
ATOM      6  C   UNL     1       1.112  -1.367  -0.226  0.00  0.00    +0.038 A 
ATOM      7  C   UNL     1       0.748  -2.622   0.226  0.00  0.00    +0.153 A 
ATOM      8  C   UNL     1      -0.388  -3.233  -0.272  0.00  0.00    +0.136 A 
ATOM      9  C   UNL     1      -1.159  -2.590  -1.220  0.00  0.00    +0.034 A 
ATOM     10  C   UNL     1      -0.798  -1.333  -1.669  0.00  0.00    -0.046 A 
ATOM     11  C   UNL     1      -1.642  -0.629  -2.700  0.00  0.00    +0.044 C 
BRANCH   7  12
ATOM     12  N   UNL     1       1.575  -3.311   1.242  0.00  0.00    +0.058 N 
ATOM     13  O   UNL     1       2.497  -2.731   1.766  0.00  0.00    -0.126 OA
ATOM     14  O   UNL     1       1.329  -4.455   1.547  0.00  0.00    -0.126 OA
ENDBRANCH   7  12
ENDBRANCH   1   8
BRANCH   1  15
ATOM     15  N   UNL     1      -2.389  -5.121  -0.237  0.00  0.00    -0.171 NA
ATOM     16  C   UNL     1      -2.609  -5.588  -1.608  0.00  0.00    +0.132 C 
BRANCH  15  17
ATOM     17  C   UNL     1      -3.531  -4.909   0.656  0.00  0.00    +0.204 C 
BRANCH  17  18
ATOM     18  C   UNL     1      -4.208  -3.609   0.306  0.00  0.00    +0.229 C 
ATOM     19  O   UNL     1      -3.767  -2.917  -0.587  0.00  0.00    -0.274 OA
ATOM     20  N   UNL     1      -5.303  -3.215   0.985  0.00  0.00    -0.309 N 
ATOM     21  H   UNL     1      -5.656  -3.768   1.700  0.00  0.00    +0.149 HD
BRANCH  20  22
ATOM     22  C   UNL     1      -5.962  -1.951   0.645  0.00  0.00    +0.026 C 
ATOM     23  C   UNL     1      -6.426  -1.994  -0.812  0.00  0.00    +0.031 C 
ATOM     24  C   UNL     1      -7.170  -1.743   1.560  0.00  0.00    +0.031 C 
ATOM     25  C   UNL     1      -4.975  -0.796   0.833  0.00  0.00    +0.031 C 
ENDBRANCH  20  22
ENDBRANCH  17  18
ENDBRANCH  15  17
ENDBRANCH   1  15
TORSDOF 6
