REMARK  Name = ZINC08927981
REMARK  12 active torsions:
REMARK  status: ('A' for Active; 'I' for Inactive)
REMARK    1  A    between atoms: C_1  and  C_2
REMARK    2  A    between atoms: C_2  and  C_3
REMARK    3  A    between atoms: C_6  and  O_9
REMARK    4  A    between atoms: O_9  and  C_10
REMARK    5  A    between atoms: C_10  and  C_11
REMARK    6  A    between atoms: C_14  and  C_16
REMARK    7  A    between atoms: N_18  and  CA_19
REMARK    8  A    between atoms: CA_26  and  C_35
REMARK    9  A    between atoms: C_27  and  C_30
REMARK   10  A    between atoms: C_30  and  O_31
REMARK   11  A    between atoms: O_31  and  C_32
REMARK   12  A    between atoms: C_32  and  C_34
REMARK                            x       y       z     vdW  Elec       q    Type
REMARK                         _______ _______ _______ _____ _____    ______ ____
ROOT
ATOM      1  C   UNL     1      -5.761   6.336   8.285  0.00  0.00    +0.280 C 
ATOM      2  O   UNL     1      -6.005   6.531   9.461  0.00  0.00    -0.267 OA
ATOM      3  N   UNL     1      -6.606   6.789   7.337  0.00  0.00    -0.295 N 
ATOM      4  H   UNL     1      -6.411   6.634   6.400  0.00  0.00    +0.150 HD
ENDROOT
BRANCH   3   5
ATOM      5  CA  UNL     1      -7.817   7.516   7.723  0.00  0.00    +0.191 C 
ATOM      6  C   UNL     1      -8.919   7.445   6.679  0.00  0.00    +0.169 C 
ATOM      7  N   UNL     1      -8.457   8.842   6.376  0.00  0.00    -0.249 N 
ATOM      8  C   UNL     1      -7.722   9.007   7.486  0.00  0.00    +0.244 C 
ATOM      9  O   UNL     1      -7.204   9.946   8.053  0.00  0.00    -0.273 OA
ATOM     10  CA  UNL     1      -8.718   9.561   5.194  0.00  0.00    +0.130 C 
ATOM     11  C   UNL     1      -9.074   8.932   4.086  0.00  0.00    +0.006 C 
ATOM     12  C   UNL     1      -9.308   7.470   3.882  0.00  0.00    +0.107 C 
ATOM     13  S   UNL     1      -8.526   6.471   5.187  0.00  0.00    -0.131 S 
BRANCH  10  14
ATOM     14  C   UNL     1      -8.594  11.030   5.190  0.00  0.00    +0.401 C 
ATOM     15  O   UNL     1      -8.380  11.624   6.229  0.00  0.00    -0.239 OA
ATOM     16  OXT UNL     1      -8.717  11.714   4.036  0.00  0.00    -0.239 OA
ENDBRANCH  10  14
BRANCH  11  17
ATOM     17  C   UNL     1      -9.271   9.802   2.872  0.00  0.00    +0.266 C 
BRANCH  17  18
ATOM     18  O   UNL     1      -9.744   8.990   1.766  0.00  0.00    -0.460 OA
BRANCH  18  19
ATOM     19  C   UNL     1      -9.872   9.597   0.575  0.00  0.00    +0.304 C 
ATOM     20  O   UNL     1      -9.686  10.787   0.480  0.00  0.00    -0.251 OA
ATOM     21  C   UNL     1     -10.248   8.793  -0.643  0.00  0.00    +0.136 C 
ENDBRANCH  18  19
ENDBRANCH  17  18
ENDBRANCH  11  17
ENDBRANCH   3   5
BRANCH   1  25
ATOM     22  C   UNL     1      -3.005   4.650   6.667  0.00  0.00    +0.143 A 
ATOM     23  C   UNL     1      -2.630   4.488   7.955  0.00  0.00    +0.049 A 
ATOM     24  C   UNL     1      -3.612   5.098   8.752  0.00  0.00    +0.055 A 
ATOM     25  C   UNL     1      -4.548   5.608   7.898  0.00  0.00    +0.190 A 
ATOM     26  O   UNL     1      -4.158   5.330   6.637  0.00  0.00    -0.452 OA
BRANCH  22  27
ATOM     27  C   UNL     1      -2.246   4.154   5.463  0.00  0.00    +0.303 C 
BRANCH  27  28
ATOM     28  O   UNL     1      -2.686   2.835   5.134  0.00  0.00    -0.484 OA
BRANCH  28  32
ATOM     29  C   UNL     1      -0.901   1.022   1.886  0.00  0.00    -0.047 A 
ATOM     30  C   UNL     1      -0.517   2.296   2.263  0.00  0.00    +0.007 A 
ATOM     31  C   UNL     1      -1.117   2.908   3.346  0.00  0.00    +0.046 A 
ATOM     32  C   UNL     1      -2.098   2.238   4.064  0.00  0.00    +0.121 A 
ATOM     33  C   UNL     1      -2.477   0.958   3.688  0.00  0.00    +0.046 A 
ATOM     34  C   UNL     1      -1.877   0.353   2.600  0.00  0.00    +0.007 A 
BRANCH  29  36
ATOM     35  C   UNL     1      -1.040   0.690  -0.567  0.00  0.00    +0.009 C 
ATOM     36  C   UNL     1      -0.249   0.360   0.700  0.00  0.00    +0.032 C 
ENDBRANCH  29  36
ENDBRANCH  28  32
ENDBRANCH  27  28
ENDBRANCH  22  27
ENDBRANCH   1  25
TORSDOF 10
