REMARK  Name = ZINC45447147
REMARK  19 active torsions:
REMARK  status: ('A' for Active; 'I' for Inactive)
REMARK    1  A    between atoms: C_1  and  C_2
REMARK    2  A    between atoms: C_2  and  C_3
REMARK    3  A    between atoms: C_3  and  C_4
REMARK    4  A    between atoms: C_4  and  N_5
REMARK    5  A    between atoms: N_5  and  C_6
REMARK    6  A    between atoms: C_7  and  N_19
REMARK    7  A    between atoms: N_8  and  C_15
REMARK    8  A    between atoms: C_15  and  C_16
REMARK    9  A    between atoms: C_16  and  C_17
REMARK   10  A    between atoms: C_16  and  C_18
REMARK   11  A    between atoms: C_20  and  C_22
REMARK   12  A    between atoms: C_22  and  S_23
REMARK   13  A    between atoms: S_23  and  C_24
REMARK   14  A    between atoms: C_26  and  C_34
REMARK   15  A    between atoms: C_27  and  C_33
REMARK   16  A    between atoms: N_28  and  C_29
REMARK   17  A    between atoms: C_29  and  C_30
REMARK   18  A    between atoms: C_30  and  C_31
REMARK   19  A    between atoms: C_30  and  C_32
REMARK                            x       y       z     vdW  Elec       q    Type
REMARK                         _______ _______ _______ _____ _____    ______ ____
ROOT
ATOM      1  N   UNL     1      -2.780  -2.572   0.016  0.00  0.00    -0.264 N 
ATOM      2  C   UNL     1      -3.279  -2.904   1.226  0.00  0.00    +0.230 C 
ATOM      3  O   UNL     1      -4.371  -3.425   1.309  0.00  0.00    -0.274 OA
ENDROOT
BRANCH   1   4
ATOM      4  C   UNL     1      -3.572  -2.728  -1.141  0.00  0.00    +0.140 A 
ATOM      5  C   UNL     1      -3.224  -3.645  -2.111  0.00  0.00    +0.127 A 
ATOM      6  N   UNL     1      -4.017  -3.773  -3.228  0.00  0.00    -0.280 N 
ATOM      7  C   UNL     1      -5.118  -3.014  -3.373  0.00  0.00    +0.331 A 
ATOM      8  O   UNL     1      -5.805  -3.143  -4.368  0.00  0.00    -0.246 OA
ATOM      9  N   UNL     1      -5.473  -2.116  -2.437  0.00  0.00    -0.273 N 
ATOM     10  H   UNL     1      -6.271  -1.580  -2.565  0.00  0.00    +0.173 HD
ATOM     11  C   UNL     1      -4.734  -1.954  -1.322  0.00  0.00    +0.277 A 
ATOM     12  O   UNL     1      -5.067  -1.140  -0.477  0.00  0.00    -0.266 OA
BRANCH   5  13
ATOM     13  N   UNL     1      -2.099  -4.420  -1.964  0.00  0.00    -0.343 N 
ATOM     14  H   UNL     1      -1.505  -4.275  -1.211  0.00  0.00    +0.144 HD
ATOM     15  H   UNL     1      -1.899  -5.112  -2.614  0.00  0.00    +0.144 HD
ENDBRANCH   5  13
BRANCH   6  16
ATOM     16  C   UNL     1      -3.659  -4.743  -4.267  0.00  0.00    +0.131 C 
BRANCH  16  17
ATOM     17  C   UNL     1      -4.318  -6.089  -3.957  0.00  0.00    +0.003 C 
ATOM     18  C   UNL     1      -5.838  -5.944  -4.044  0.00  0.00    +0.009 C 
ATOM     19  C   UNL     1      -3.846  -7.133  -4.970  0.00  0.00    +0.009 C 
ENDBRANCH  16  17
ENDBRANCH   6  16
ENDBRANCH   1   4
BRANCH   1  20
ATOM     20  C   UNL     1      -1.415  -2.051  -0.095  0.00  0.00    +0.114 C 
BRANCH  20  21
ATOM     21  C   UNL     1      -1.452  -0.521  -0.090  0.00  0.00    +0.019 C 
BRANCH  21  23
ATOM     22  C   UNL     1      -0.063   1.553  -0.201  0.00  0.00    +0.004 C 
ATOM     23  C   UNL     1      -0.027   0.023  -0.206  0.00  0.00    -0.002 C 
ENDBRANCH  21  23
ENDBRANCH  20  21
ENDBRANCH   1  20
BRANCH   2  24
ATOM     24  C   UNL     1      -2.479  -2.627   2.473  0.00  0.00    +0.173 C 
BRANCH  24  25
ATOM     25  S   UNL     1      -3.413  -3.182   3.925  0.00  0.00    -0.080 S 
BRANCH  25  26
ATOM     26  C   UNL     1      -2.359  -2.794   5.283  0.00  0.00    +0.148 A 
ATOM     27  N   UNL     1      -1.179  -2.225   5.201  0.00  0.00    -0.338 N 
ATOM     28  C   UNL     1      -0.667  -2.084   6.435  0.00  0.00    +0.034 A 
ATOM     29  C   UNL     1      -1.551  -2.578   7.319  0.00  0.00    +0.037 A 
ATOM     30  N   UNL     1      -2.633  -3.027   6.596  0.00  0.00    -0.324 N 
ATOM     31  C   UNL     1      -1.390  -2.627   8.816  0.00  0.00    +0.065 C 
ATOM     32  C   UNL     1       0.670  -1.475   6.771  0.00  0.00    +0.065 C 
ATOM     33  H   UNL     1      -0.745  -1.950   4.378  0.00  0.00    +0.168 HD
BRANCH  30  34
ATOM     34  C   UNL     1      -3.847  -3.643   7.136  0.00  0.00    +0.127 C 
BRANCH  34  35
ATOM     35  C   UNL     1      -3.656  -5.159   7.221  0.00  0.00    +0.003 C 
ATOM     36  C   UNL     1      -2.554  -5.478   8.235  0.00  0.00    +0.009 C 
ATOM     37  C   UNL     1      -4.964  -5.814   7.668  0.00  0.00    +0.009 C 
ENDBRANCH  34  35
ENDBRANCH  30  34
ENDBRANCH  25  26
ENDBRANCH  24  25
ENDBRANCH   2  24
TORSDOF 12
