REMARK  Name = ZINC34912063
REMARK  4 active torsions:
REMARK  status: ('A' for Active; 'I' for Inactive)
REMARK    1  A    between atoms: C_6  and  C_7
REMARK    2  A    between atoms: C_12  and  N_15
REMARK    3  A    between atoms: C_18  and  C_21
REMARK    4  A    between atoms: N_23  and  C_24
REMARK                            x       y       z     vdW  Elec       q    Type
REMARK                         _______ _______ _______ _____ _____    ______ ____
ROOT
ATOM      1  N   UNL     1      -1.146  -5.821  -1.828  0.00  0.00    +0.382 N 
ATOM      2  C   UNL     1       0.090  -6.595  -1.664  0.00  0.00    -0.078 C 
ATOM      3  C   UNL     1       0.198  -7.635  -2.781  0.00  0.00    -0.006 C 
ATOM      4  C   UNL     1      -1.009  -8.576  -2.713  0.00  0.00    +0.072 C 
ATOM      5  C   UNL     1      -2.295  -7.750  -2.811  0.00  0.00    -0.006 C 
ATOM      6  C   UNL     1      -2.309  -6.706  -1.692  0.00  0.00    -0.078 C 
ATOM      7  H   UNL     1      -1.154  -5.394  -2.742  0.00  0.00    -0.081 HD
ENDROOT
BRANCH   1  13
ATOM      8  C   UNL     1      -1.395  -0.747  -0.007  0.00  0.00    +0.247 C 
ATOM      9  O   UNL     1      -0.373  -0.102  -0.138  0.00  0.00    -0.270 OA
ATOM     10  N   UNL     1      -1.337  -2.091   0.086  0.00  0.00    -0.298 N 
ATOM     11  C   UNL     1      -0.042  -2.781   0.156  0.00  0.00    +0.106 C 
ATOM     12  C   UNL     1       0.006  -3.851  -0.940  0.00  0.00    +0.004 C 
ATOM     13  C   UNL     1      -1.206  -4.774  -0.799  0.00  0.00    -0.066 C 
ATOM     14  C   UNL     1      -2.491  -3.961  -0.974  0.00  0.00    +0.004 C 
ATOM     15  C   UNL     1      -2.568  -2.892   0.127  0.00  0.00    +0.106 C 
BRANCH   8  21
ATOM     16  C   UNL     1      -3.731  -0.574   0.837  0.00  0.00    +0.016 A 
ATOM     17  C   UNL     1      -4.948   0.073   0.885  0.00  0.00    +0.039 A 
ATOM     18  C   UNL     1      -5.149   1.233   0.153  0.00  0.00    +0.123 A 
ATOM     19  C   UNL     1      -4.129   1.748  -0.632  0.00  0.00    +0.039 A 
ATOM     20  C   UNL     1      -2.909   1.110  -0.688  0.00  0.00    +0.016 A 
ATOM     21  C   UNL     1      -2.701  -0.059   0.048  0.00  0.00    +0.037 A 
ATOM     22  F   UNL     1      -6.343   1.863   0.204  0.00  0.00    -0.205 F 
ENDBRANCH   8  21
ENDBRANCH   1  13
BRANCH   4  23
ATOM     23  C   UNL     1      -0.950  -9.554  -3.858  0.00  0.00    +0.220 C 
ATOM     24  O   UNL     1      -0.034  -9.504  -4.652  0.00  0.00    -0.275 OA
ATOM     25  N   UNL     1      -1.916 -10.483  -4.000  0.00  0.00    -0.285 N 
ATOM     26  H   UNL     1      -2.687 -10.476  -3.412  0.00  0.00    +0.155 HD
BRANCH  25  27
ATOM     27  C   UNL     1      -1.806 -11.460  -4.998  0.00  0.00    +0.034 A 
ATOM     28  C   UNL     1      -2.950 -12.037  -5.534  0.00  0.00    +0.026 A 
ATOM     29  C   UNL     1      -2.839 -13.000  -6.519  0.00  0.00    +0.040 A 
ATOM     30  C   UNL     1      -1.590 -13.389  -6.971  0.00  0.00    +0.124 A 
ATOM     31  C   UNL     1      -0.448 -12.815  -6.437  0.00  0.00    +0.040 A 
ATOM     32  C   UNL     1      -0.554 -11.847  -5.457  0.00  0.00    +0.026 A 
ATOM     33  F   UNL     1      -1.484 -14.332  -7.933  0.00  0.00    -0.205 F 
ENDBRANCH  25  27
ENDBRANCH   4  23
TORSDOF 4
