REMARK  Name = ZINC04648313
REMARK  11 active torsions:
REMARK  status: ('A' for Active; 'I' for Inactive)
REMARK    1  A    between atoms: C_1  and  C_2
REMARK    2  A    between atoms: C_2  and  O_3
REMARK    3  A    between atoms: O_3  and  C_4
REMARK    4  A    between atoms: C_6  and  C_11
REMARK    5  A    between atoms: C_9  and  O_10
REMARK    6  A    between atoms: C_14  and  C_25
REMARK    7  A    between atoms: C_20  and  N_24
REMARK    8  A    between atoms: C_21  and  C_22
REMARK    9  A    between atoms: C_25  and  C_26
REMARK   10  A    between atoms: C_25  and  C_27
REMARK   11  A    between atoms: C_25  and  C_28
REMARK                            x       y       z     vdW  Elec       q    Type
REMARK                         _______ _______ _______ _____ _____    ______ ____
ROOT
ATOM      1  C   UNL     1      -0.304  -5.419  -0.091  0.00  0.00    +0.101 C 
ATOM      2  C   UNL     1      -1.597  -6.001  -0.602  0.00  0.00    +0.050 A 
ATOM      3  C   UNL     1      -2.804  -5.429  -0.725  0.00  0.00    +0.049 A 
ATOM      4  N   UNL     1      -3.648  -6.356  -1.234  0.00  0.00    -0.277 N 
ATOM      5  H   UNL     1      -4.589  -6.223  -1.430  0.00  0.00    +0.189 HD
ATOM      6  N   UNL     1      -2.925  -7.544  -1.427  0.00  0.00    -0.135 NA
ATOM      7  C   UNL     1      -1.697  -7.337  -1.050  0.00  0.00    +0.245 A 
ATOM      8  O   UNL     1      -0.631  -8.181  -1.044  0.00  0.00    -0.421 OA
ATOM      9  C   UNL     1       0.460  -7.799  -0.351  0.00  0.00    +0.201 C 
ATOM     10  C   UNL     1       0.671  -6.550   0.117  0.00  0.00    +0.098 C 
ENDROOT
BRANCH   1  13
ATOM     11  C   UNL     1       1.216  -2.316  -1.618  0.00  0.00    +0.162 A 
ATOM     12  C   UNL     1       0.707  -3.210  -0.690  0.00  0.00    +0.054 A 
ATOM     13  C   UNL     1       0.250  -4.448  -1.102  0.00  0.00    -0.031 A 
ATOM     14  C   UNL     1       0.302  -4.798  -2.438  0.00  0.00    +0.008 A 
ATOM     15  C   UNL     1       0.810  -3.911  -3.369  0.00  0.00    +0.049 A 
ATOM     16  C   UNL     1       1.263  -2.666  -2.964  0.00  0.00    +0.158 A 
BRANCH  16  17
ATOM     17  O   UNL     1       1.758  -1.790  -3.879  0.00  0.00    -0.503 OA
ATOM     18  H   UNL     1       2.709  -1.873  -4.029  0.00  0.00    +0.292 HD
ENDBRANCH  16  17
BRANCH  11  19
ATOM     19  O   UNL     1       1.665  -1.097  -1.215  0.00  0.00    -0.489 OA
BRANCH  19  21
ATOM     20  C   UNL     1       2.134   0.599   0.442  0.00  0.00    +0.048 C 
ATOM     21  C   UNL     1       1.587  -0.806   0.182  0.00  0.00    +0.226 C 
ENDBRANCH  19  21
ENDBRANCH  11  19
ENDBRANCH   1  13
BRANCH   3  22
ATOM     22  C   UNL     1      -3.156  -4.009  -0.363  0.00  0.00    +0.004 C 
ATOM     23  C   UNL     1      -4.659  -3.793  -0.551  0.00  0.00    +0.017 C 
ATOM     24  C   UNL     1      -2.781  -3.747   1.097  0.00  0.00    +0.017 C 
ATOM     25  C   UNL     1      -2.386  -3.046  -1.269  0.00  0.00    +0.017 C 
ENDBRANCH   3  22
BRANCH   9  26
ATOM     26  N   UNL     1       1.423  -8.745  -0.103  0.00  0.00    -0.328 N 
ATOM     27  H   UNL     1       1.305  -9.652  -0.424  0.00  0.00    +0.145 HD
ATOM     28  H   UNL     1       2.222  -8.505   0.393  0.00  0.00    +0.145 HD
ENDBRANCH   9  26
BRANCH  10  29
ATOM     29  C   UNL     1       1.877  -6.286   0.843  0.00  0.00    +0.101 C 
ATOM     30  N   UNL     1       2.834  -6.077   1.419  0.00  0.00    -0.191 NA
ENDBRANCH  10  29
TORSDOF 7
