REMARK  Name = ZINC65190918
REMARK  7 active torsions:
REMARK  status: ('A' for Active; 'I' for Inactive)
REMARK    1  A    between atoms: C_1  and  C_2
REMARK    2  A    between atoms: C_2  and  N_3
REMARK    3  A    between atoms: N_6  and  N_7
REMARK    4  A    between atoms: C_8  and  C_10
REMARK    5  A    between atoms: C_13  and  S_16
REMARK    6  A    between atoms: S_16  and  N_19
REMARK    7  A    between atoms: C_24  and  C_25
REMARK                            x       y       z     vdW  Elec       q    Type
REMARK                         _______ _______ _______ _____ _____    ______ ____
ROOT
ATOM      1  C   UNL     1       3.401  -0.272  -4.282  0.00  0.00    +0.038 A 
ATOM      2  C   UNL     1       3.015   1.051  -4.501  0.00  0.00    +0.015 A 
ATOM      3  C   UNL     1       3.424   1.706  -5.644  0.00  0.00    +0.029 A 
ATOM      4  C   UNL     1       4.216   1.054  -6.572  0.00  0.00    +0.106 A 
ATOM      5  C   UNL     1       4.602  -0.258  -6.362  0.00  0.00    +0.029 A 
ATOM      6  C   UNL     1       4.205  -0.922  -5.220  0.00  0.00    +0.015 A 
ENDROOT
BRANCH   1   8
ATOM      7  N   UNL     1       2.191  -0.349  -2.155  0.00  0.00    -0.229 N 
ATOM      8  C   UNL     1       2.967  -0.980  -3.059  0.00  0.00    +0.260 C 
ATOM      9  O   UNL     1       3.309  -2.131  -2.869  0.00  0.00    -0.269 OA
ATOM     10  H   UNL     1       1.918   0.569  -2.307  0.00  0.00    +0.173 HD
BRANCH   7  14
ATOM     11  N   UNL     1       0.624   0.886  -0.303  0.00  0.00    -0.298 N 
ATOM     12  C   UNL     1       1.004  -0.390  -0.092  0.00  0.00    +0.316 C 
ATOM     13  O   UNL     1       0.646  -0.972   0.914  0.00  0.00    -0.251 OA
ATOM     14  N   UNL     1       1.779  -1.020  -0.996  0.00  0.00    -0.218 N 
ATOM     15  H   UNL     1       0.909   1.351  -1.105  0.00  0.00    +0.150 HD
ATOM     16  H   UNL     1       2.053  -1.939  -0.844  0.00  0.00    +0.174 HD
BRANCH  11  18
ATOM     17  C   UNL     1      -0.502   2.997   0.202  0.00  0.00    +0.024 C 
ATOM     18  C   UNL     1      -0.219   1.571   0.680  0.00  0.00    +0.102 C 
ENDBRANCH  11  18
ENDBRANCH   7  14
ENDBRANCH   1   8
BRANCH   4  19
ATOM     19  S   UNL     1       4.734   1.898  -8.030  0.00  0.00    +0.061 S 
ATOM     20  O   UNL     1       4.851   0.915  -9.049  0.00  0.00    -0.153 OA
ATOM     21  O   UNL     1       3.893   3.036  -8.161  0.00  0.00    -0.153 OA
BRANCH  19  22
ATOM     22  N   UNL     1       6.263   2.470  -7.747  0.00  0.00    -0.174 NA
ATOM     23  C   UNL     1       7.438   1.740  -8.241  0.00  0.00    +0.110 C 
ATOM     24  C   UNL     1       8.305   2.700  -9.062  0.00  0.00    +0.017 C 
ATOM     25  C   UNL     1       8.639   3.930  -8.214  0.00  0.00    +0.003 C 
ATOM     26  C   UNL     1       7.347   4.654  -7.832  0.00  0.00    +0.020 C 
ATOM     27  C   UNL     1       6.468   3.720  -7.002  0.00  0.00    +0.077 C 
ATOM     28  C   UNL     1       5.118   4.388  -6.739  0.00  0.00    +0.026 C 
ENDBRANCH  19  22
ENDBRANCH   4  19
TORSDOF 5
