REMARK  Name = ZINC28836920
REMARK  13 active torsions:
REMARK  status: ('A' for Active; 'I' for Inactive)
REMARK    1  A    between atoms: C_1  and  C_2
REMARK    2  A    between atoms: C_2  and  N_3
REMARK    3  A    between atoms: N_3  and  C_4
REMARK    4  A    between atoms: N_3  and  S_6
REMARK    5  A    between atoms: C_4  and  C_5
REMARK    6  A    between atoms: S_6  and  C_9
REMARK    7  A    between atoms: C_12  and  O_31
REMARK    8  A    between atoms: C_13  and  N_15
REMARK    9  A    between atoms: C_16  and  C_18
REMARK   10  A    between atoms: C_18  and  C_20
REMARK   11  A    between atoms: C_18  and  S_21
REMARK   12  A    between atoms: S_21  and  C_22
REMARK   13  A    between atoms: C_25  and  N_28
REMARK                            x       y       z     vdW  Elec       q    Type
REMARK                         _______ _______ _______ _____ _____    ______ ____
ROOT
ATOM      1  C   UNL     1      -0.322   0.569  -3.514  0.00  0.00    +0.107 A 
ATOM      2  C   UNL     1      -1.393   1.420  -3.310  0.00  0.00    +0.032 A 
ATOM      3  C   UNL     1      -1.525   2.566  -4.071  0.00  0.00    +0.049 A 
ATOM      4  C   UNL     1      -0.583   2.866  -5.042  0.00  0.00    +0.138 A 
ATOM      5  C   UNL     1       0.496   2.010  -5.248  0.00  0.00    +0.077 A 
ATOM      6  C   UNL     1       0.625   0.864  -4.476  0.00  0.00    +0.055 A 
ENDROOT
BRANCH   5   7
ATOM      7  N   UNL     1       1.452   2.308  -6.228  0.00  0.00    -0.282 N 
ATOM      8  C   UNL     1       2.185   1.319  -6.777  0.00  0.00    +0.230 C 
ATOM      9  O   UNL     1       1.948   0.162  -6.499  0.00  0.00    -0.274 OA
ATOM     10  H   UNL     1       1.587   3.226  -6.511  0.00  0.00    +0.155 HD
BRANCH   8  11
ATOM     11  C   UNL     1       3.298   1.650  -7.738  0.00  0.00    +0.134 C 
ATOM     12  C   UNL     1       2.710   1.932  -9.122  0.00  0.00    +0.029 C 
BRANCH  11  13
ATOM     13  S   UNL     1       4.444   0.248  -7.842  0.00  0.00    -0.113 S 
BRANCH  13  14
ATOM     14  C   UNL     1       5.250   0.239  -6.275  0.00  0.00    +0.009 A 
ATOM     15  C   UNL     1       4.848   1.123  -5.280  0.00  0.00    +0.017 A 
ATOM     16  C   UNL     1       5.482   1.114  -4.053  0.00  0.00    +0.034 A 
ATOM     17  C   UNL     1       6.515   0.225  -3.814  0.00  0.00    +0.126 A 
ATOM     18  C   UNL     1       6.917  -0.655  -4.801  0.00  0.00    +0.034 A 
ATOM     19  C   UNL     1       6.284  -0.656  -6.028  0.00  0.00    +0.017 A 
BRANCH  17  20
ATOM     20  N   UNL     1       7.192   0.218  -2.498  0.00  0.00    +0.056 N 
ATOM     21  O   UNL     1       6.841   0.988  -1.633  0.00  0.00    -0.126 OA
ATOM     22  O   UNL     1       8.094  -0.558  -2.286  0.00  0.00    -0.126 OA
ENDBRANCH  17  20
ENDBRANCH  13  14
ENDBRANCH  11  13
ENDBRANCH   8  11
ENDBRANCH   5   7
BRANCH   1  23
ATOM     23  S   UNL     1      -0.161  -0.890  -2.540  0.00  0.00    +0.061 S 
ATOM     24  O   UNL     1       0.635  -1.795  -3.293  0.00  0.00    -0.153 OA
ATOM     25  O   UNL     1      -1.466  -1.221  -2.085  0.00  0.00    -0.153 OA
BRANCH  23  26
ATOM     26  N   UNL     1       0.721  -0.488  -1.197  0.00  0.00    -0.177 NA
BRANCH  26  28
ATOM     27  C   UNL     1       0.015   1.512   0.020  0.00  0.00    +0.022 C 
ATOM     28  C   UNL     1       0.041  -0.018   0.012  0.00  0.00    +0.106 C 
ENDBRANCH  26  28
BRANCH  26  29
ATOM     29  C   UNL     1       2.182  -0.602  -1.219  0.00  0.00    +0.106 C 
ATOM     30  C   UNL     1       2.596  -1.955  -0.637  0.00  0.00    +0.022 C 
ENDBRANCH  26  29
ENDBRANCH  23  26
ENDBRANCH   1  23
BRANCH   4  31
ATOM     31  O   UNL     1      -0.712   3.993  -5.792  0.00  0.00    -0.505 OA
ATOM     32  H   UNL     1      -0.279   4.769  -5.413  0.00  0.00    +0.292 HD
ENDBRANCH   4  31
TORSDOF 10
