REMARK  Name = ZINC39404750
REMARK  3 active torsions:
REMARK  status: ('A' for Active; 'I' for Inactive)
REMARK    1  A    between atoms: C_4  and  N_19
REMARK    2  A    between atoms: C_5  and  C_7
REMARK    3  A    between atoms: C_20  and  C_22
REMARK                            x       y       z     vdW  Elec       q    Type
REMARK                         _______ _______ _______ _____ _____    ______ ____
ROOT
ATOM      1  C   UNL     1      -0.010   1.391  -0.020  0.00  0.00    +0.000 A 
ATOM      2  C   UNL     1       1.179   2.097  -0.025  0.00  0.00    +0.002 A 
ATOM      3  C   UNL     1       2.384   1.424  -0.031  0.00  0.00    +0.023 A 
ATOM      4  C   UNL     1       2.402   0.035  -0.031  0.00  0.00    +0.039 A 
ATOM      5  C   UNL     1       1.206  -0.672  -0.026  0.00  0.00    +0.005 A 
ATOM      6  C   UNL     1       0.004   0.008  -0.021  0.00  0.00    +0.008 A 
ENDROOT
BRANCH   5   7
ATOM      7  C   UNL     1       1.221  -2.179  -0.026  0.00  0.00    +0.198 C 
ATOM      8  C   UNL     1       1.460  -2.638   1.394  0.00  0.00    +0.244 C 
ATOM      9  O   UNL     1       2.454  -2.285   1.996  0.00  0.00    -0.273 OA
ATOM     10  N   UNL     1       0.563  -3.436   1.978  0.00  0.00    -0.282 N 
ATOM     11  C   UNL     1      -0.528  -3.833   1.345  0.00  0.00    +0.057 A 
ATOM     12  C   UNL     1      -1.457  -4.678   1.992  0.00  0.00    +0.025 A 
ATOM     13  C   UNL     1      -2.575  -5.089   1.348  0.00  0.00    +0.002 A 
ATOM     14  C   UNL     1      -2.874  -4.711   0.029  0.00  0.00    +0.002 A 
ATOM     15  C   UNL     1      -2.054  -3.906  -0.681  0.00  0.00    +0.027 A 
ATOM     16  C   UNL     1      -0.817  -3.416  -0.051  0.00  0.00    +0.058 A 
ATOM     17  N   UNL     1      -0.002  -2.639  -0.702  0.00  0.00    -0.369 N 
ATOM     18  H   UNL     1       0.715  -3.731   2.889  0.00  0.00    +0.155 HD
ATOM     19  H   UNL     1      -0.197  -2.369  -1.613  0.00  0.00    +0.161 HD
ENDBRANCH   5   7
BRANCH   4  20
ATOM     20  N   UNL     1       3.622  -0.651  -0.037  0.00  0.00    -0.278 N 
ATOM     21  C   UNL     1       4.730  -0.058   0.448  0.00  0.00    +0.321 C 
ATOM     22  O   UNL     1       4.653   1.029   0.980  0.00  0.00    -0.266 OA
ATOM     23  H   UNL     1       3.669  -1.553  -0.391  0.00  0.00    +0.155 HD
BRANCH  21  24
ATOM     24  C   UNL     1       6.066  -0.745   0.328  0.00  0.00    +0.470 C 
ATOM     25  F   UNL     1       7.058   0.059   0.900  0.00  0.00    -0.162 F 
ATOM     26  F   UNL     1       6.020  -1.974   0.996  0.00  0.00    -0.162 F 
ATOM     27  F   UNL     1       6.361  -0.960  -1.023  0.00  0.00    -0.162 F 
ENDBRANCH  21  24
ENDBRANCH   4  20
TORSDOF 3
