REMARK  Name = ZINC39445832
REMARK  7 active torsions:
REMARK  status: ('A' for Active; 'I' for Inactive)
REMARK    1  A    between atoms: C_6  and  C_7
REMARK    2  A    between atoms: C_11  and  C_13
REMARK    3  A    between atoms: C_13  and  N_14
REMARK    4  A    between atoms: N_14  and  C_15
REMARK    5  A    between atoms: N_18  and  C_21
REMARK    6  A    between atoms: C_24  and  C_27
REMARK    7  A    between atoms: N_29  and  C_30
REMARK                            x       y       z     vdW  Elec       q    Type
REMARK                         _______ _______ _______ _____ _____    ______ ____
ROOT
ATOM      1  C   UNL     1      -0.240  -4.929   2.364  0.00  0.00    -0.069 C 
ATOM      2  C   UNL     1       1.252  -4.588   2.419  0.00  0.00    +0.003 C 
ATOM      3  C   UNL     1       1.862  -5.190   3.688  0.00  0.00    +0.103 C 
ATOM      4  N   UNL     1       1.571  -6.630   3.717  0.00  0.00    -0.330 N 
ATOM      5  C   UNL     1       0.176  -7.071   3.581  0.00  0.00    +0.103 C 
ATOM      6  C   UNL     1      -0.416  -6.448   2.312  0.00  0.00    +0.003 C 
ENDROOT
BRANCH   4   7
ATOM      7  C   UNL     1       2.595  -7.557   3.870  0.00  0.00    +0.030 A 
ATOM      8  C   UNL     1       3.921  -7.133   3.882  0.00  0.00    +0.024 A 
ATOM      9  C   UNL     1       4.937  -8.048   4.034  0.00  0.00    +0.015 A 
ATOM     10  C   UNL     1       4.636  -9.406   4.176  0.00  0.00    +0.037 A 
ATOM     11  C   UNL     1       3.304  -9.829   4.164  0.00  0.00    +0.015 A 
ATOM     12  C   UNL     1       2.292  -8.908   4.018  0.00  0.00    +0.024 A 
BRANCH  10  13
ATOM     13  C   UNL     1       5.723 -10.390   4.338  0.00  0.00    +0.244 C 
ATOM     14  O   UNL     1       6.882 -10.021   4.348  0.00  0.00    -0.270 OA
ATOM     15  N   UNL     1       5.432 -11.699   4.475  0.00  0.00    -0.308 N 
ATOM     16  H   UNL     1       4.508 -11.994   4.468  0.00  0.00    +0.149 HD
BRANCH  15  17
ATOM     17  C   UNL     1       6.512 -12.676   4.636  0.00  0.00    +0.073 C 
ATOM     18  C   UNL     1       7.003 -13.154   3.254  0.00  0.00    +0.022 C 
ATOM     19  C   UNL     1       7.315 -14.657   3.460  0.00  0.00    +0.002 C 
ATOM     20  C   UNL     1       6.180 -15.114   4.410  0.00  0.00    +0.002 C 
ATOM     21  C   UNL     1       5.989 -13.923   5.372  0.00  0.00    +0.022 C 
ENDBRANCH  15  17
ENDBRANCH  10  13
ENDBRANCH   4   7
BRANCH   1  22
ATOM     22  N   UNL     1      -0.836  -4.325   1.165  0.00  0.00    +0.382 N 
ATOM     23  H   UNL     1      -1.799  -4.616   1.086  0.00  0.00    -0.085 HD
ATOM     24  H   UNL     1      -0.326  -4.626   0.348  0.00  0.00    -0.085 HD
BRANCH  22  25
ATOM     25  C   UNL     1      -0.773  -2.861   1.270  0.00  0.00    -0.067 C 
BRANCH  25  30
ATOM     26  C   UNL     1      -1.234  -0.726   0.045  0.00  0.00    +0.077 C 
ATOM     27  N   UNL     1      -2.445  -0.240   0.047  0.00  0.00    -0.153 NA
ATOM     28  N   UNL     1      -3.412  -1.240   0.033  0.00  0.00    -0.161 NA
ATOM     29  C   UNL     1      -2.898  -2.426   0.020  0.00  0.00    +0.115 C 
ATOM     30  C   UNL     1      -1.394  -2.233   0.021  0.00  0.00    +0.066 C 
BRANCH  26  36
ATOM     31  C   UNL     1       0.006   1.431   0.080  0.00  0.00    +0.011 A 
ATOM     32  C   UNL     1       1.191   2.135   0.091  0.00  0.00    +0.020 A 
ATOM     33  C   UNL     1       2.401   1.460   0.080  0.00  0.00    +0.041 A 
ATOM     34  C   UNL     1       2.430   0.075   0.058  0.00  0.00    +0.020 A 
ATOM     35  C   UNL     1       1.252  -0.641   0.046  0.00  0.00    +0.011 A 
ATOM     36  C   UNL     1       0.027   0.033   0.057  0.00  0.00    -0.001 A 
ATOM     37 CL   UNL     1       3.888   2.355   0.093  0.00  0.00    -0.084 Cl
ENDBRANCH  26  36
ENDBRANCH  25  30
ENDBRANCH  22  25
ENDBRANCH   1  22
TORSDOF 7
