REMARK  Name = ZINC21968173
REMARK  9 active torsions:
REMARK  status: ('A' for Active; 'I' for Inactive)
REMARK    1  A    between atoms: C_1  and  C_2
REMARK    2  A    between atoms: C_2  and  C_4
REMARK    3  A    between atoms: C_2  and  O_27
REMARK    4  A    between atoms: N_6  and  N_7
REMARK    5  A    between atoms: C_8  and  C_10
REMARK    6  A    between atoms: C_13  and  S_16
REMARK    7  A    between atoms: S_16  and  N_19
REMARK    8  A    between atoms: N_19  and  C_20
REMARK    9  A    between atoms: O_27  and  C_28
REMARK                            x       y       z     vdW  Elec       q    Type
REMARK                         _______ _______ _______ _____ _____    ______ ____
ROOT
ATOM      1  N   UNL     1       8.348  -0.220   0.737  0.00  0.00    -0.230 N 
ATOM      2  C   UNL     1       7.755  -1.383   1.072  0.00  0.00    +0.260 C 
ATOM      3  O   UNL     1       8.340  -2.185   1.773  0.00  0.00    -0.269 OA
ATOM      4  H   UNL     1       7.818   0.505   0.102  0.00  0.00    +0.173 HD
ENDROOT
BRANCH   2   5
ATOM      5  C   UNL     1       6.391  -1.684   0.585  0.00  0.00    +0.038 A 
ATOM      6  C   UNL     1       5.774  -2.888   0.930  0.00  0.00    +0.015 A 
ATOM      7  C   UNL     1       4.501  -3.162   0.473  0.00  0.00    +0.029 A 
ATOM      8  C   UNL     1       3.837  -2.248  -0.325  0.00  0.00    +0.109 A 
ATOM      9  C   UNL     1       4.446  -1.055  -0.675  0.00  0.00    +0.029 A 
ATOM     10  C   UNL     1       5.716  -0.766  -0.220  0.00  0.00    +0.015 A 
BRANCH   8  11
ATOM     11  S   UNL     1       2.212  -2.606  -0.904  0.00  0.00    +0.072 S 
ATOM     12  O   UNL     1       2.037  -4.011  -0.779  0.00  0.00    -0.150 OA
ATOM     13  O   UNL     1       2.064  -1.927  -2.143  0.00  0.00    -0.150 OA
BRANCH  11  14
ATOM     14  N   UNL     1       1.149  -1.900   0.152  0.00  0.00    -0.216 N 
ATOM     15  H   UNL     1       0.461  -1.119  -0.201  0.00  0.00    +0.174 HD
BRANCH  14  16
ATOM     16  C   UNL     1       1.128  -2.298   1.492  0.00  0.00    +0.048 A 
ATOM     17  C   UNL     1       1.098  -1.343   2.500  0.00  0.00    +0.026 A 
ATOM     18  C   UNL     1       1.077  -1.739   3.823  0.00  0.00    +0.022 A 
ATOM     19  C   UNL     1       1.085  -3.085   4.144  0.00  0.00    +0.041 A 
ATOM     20  C   UNL     1       1.115  -4.038   3.141  0.00  0.00    +0.022 A 
ATOM     21  C   UNL     1       1.136  -3.648   1.817  0.00  0.00    +0.026 A 
ATOM     22 CL   UNL     1       1.059  -3.579   5.808  0.00  0.00    -0.084 Cl
ENDBRANCH  14  16
ENDBRANCH  11  14
ENDBRANCH   8  11
ENDBRANCH   2   5
BRANCH   1  25
ATOM     23  C   UNL     1      10.234   1.228   0.863  0.00  0.00    +0.270 C 
ATOM     24  O   UNL     1       9.649   2.027   0.163  0.00  0.00    -0.270 OA
ATOM     25  N   UNL     1       9.640   0.065   1.198  0.00  0.00    -0.231 N 
ATOM     26  H   UNL     1      10.170  -0.660   1.833  0.00  0.00    +0.173 HD
BRANCH  23  28
ATOM     27  C   UNL     1      11.604   1.667   2.883  0.00  0.00    +0.062 C 
ATOM     28  C   UNL     1      11.623   1.534   1.359  0.00  0.00    +0.257 C 
BRANCH  28  29
ATOM     29  O   UNL     1      12.076   2.760   0.780  0.00  0.00    -0.480 OA
BRANCH  29  30
ATOM     30  C   UNL     1      13.420   2.950   0.710  0.00  0.00    +0.122 A 
ATOM     31  C   UNL     1      13.927   4.148   0.228  0.00  0.00    +0.048 A 
ATOM     32  C   UNL     1      15.294   4.342   0.163  0.00  0.00    +0.042 A 
ATOM     33  C   UNL     1      16.156   3.338   0.568  0.00  0.00    +0.124 A 
ATOM     34  C   UNL     1      15.651   2.140   1.044  0.00  0.00    +0.042 A 
ATOM     35  C   UNL     1      14.285   1.945   1.116  0.00  0.00    +0.048 A 
ATOM     36  F   UNL     1      17.492   3.527   0.499  0.00  0.00    -0.205 F 
ENDBRANCH  29  30
ENDBRANCH  28  29
ENDBRANCH  23  28
ENDBRANCH   1  25
TORSDOF 8
