REMARK  Name = ZINC59849764
REMARK  6 active torsions:
REMARK  status: ('A' for Active; 'I' for Inactive)
REMARK    1  A    between atoms: C_3  and  C_6
REMARK    2  A    between atoms: C_6  and  C_8
REMARK    3  A    between atoms: C_6  and  N_28
REMARK    4  A    between atoms: C_8  and  C_9
REMARK    5  A    between atoms: C_15  and  C_17
REMARK    6  A    between atoms: N_19  and  C_20
REMARK                            x       y       z     vdW  Elec       q    Type
REMARK                         _______ _______ _______ _____ _____    ______ ____
ROOT
ATOM      1  C   UNL     1       5.683   2.420  -1.487  0.00  0.00    +0.218 C 
ATOM      2  O   UNL     1       6.171   2.871  -0.473  0.00  0.00    -0.276 OA
ATOM      3  N   UNL     1       6.368   2.473  -2.647  0.00  0.00    -0.290 N 
ATOM      4  C   UNL     1       5.893   1.970  -3.949  0.00  0.00    +0.108 C 
ATOM      5  C   UNL     1       6.687   2.783  -5.001  0.00  0.00    +0.021 C 
ATOM      6  C   UNL     1       8.074   2.908  -4.317  0.00  0.00    +0.033 C 
ATOM      7  C   UNL     1       7.709   3.048  -2.824  0.00  0.00    +0.162 C 
ENDROOT
BRANCH   7   8
ATOM      8  C   UNL     1       8.706   2.293  -1.982  0.00  0.00    +0.238 C 
ATOM      9  O   UNL     1       8.339   1.362  -1.297  0.00  0.00    -0.273 OA
ATOM     10  N   UNL     1      10.005   2.653  -1.991  0.00  0.00    -0.284 N 
ATOM     11  H   UNL     1      10.310   3.353  -2.589  0.00  0.00    +0.155 HD
BRANCH  10  12
ATOM     12  C   UNL     1      10.912   2.016  -1.138  0.00  0.00    +0.036 A 
ATOM     13  C   UNL     1      11.959   2.734  -0.576  0.00  0.00    +0.043 A 
ATOM     14  C   UNL     1      12.855   2.103   0.267  0.00  0.00    +0.044 A 
ATOM     15  C   UNL     1      12.709   0.756   0.550  0.00  0.00    +0.040 A 
ATOM     16  C   UNL     1      11.667   0.038  -0.009  0.00  0.00    +0.044 A 
ATOM     17  C   UNL     1      10.765   0.666  -0.848  0.00  0.00    +0.043 A 
ATOM     18 CL   UNL     1      11.487  -1.651   0.348  0.00  0.00    -0.083 Cl
ATOM     19 CL   UNL     1      14.164   3.000   0.971  0.00  0.00    -0.083 Cl
ENDBRANCH  10  12
ENDBRANCH   7   8
BRANCH   1  20
ATOM     20  C   UNL     1       4.310   1.798  -1.450  0.00  0.00    +0.123 C 
BRANCH  20  21
ATOM     21  C   UNL     1       3.758   1.866  -0.025  0.00  0.00    +0.120 C 
BRANCH  21  22
ATOM     22  N   UNL     1       4.582   1.036   0.858  0.00  0.00    -0.292 N 
ATOM     23  C   UNL     1       4.636   1.304   2.177  0.00  0.00    +0.298 C 
ATOM     24  O   UNL     1       4.000   2.233   2.635  0.00  0.00    -0.253 OA
ATOM     25  N   UNL     1       5.394   0.541   2.990  0.00  0.00    -0.313 N 
ATOM     26  H   UNL     1       5.090   0.295   0.492  0.00  0.00    +0.151 HD
ATOM     27  H   UNL     1       5.901  -0.201   2.624  0.00  0.00    +0.146 HD
ATOM     28  H   UNL     1       5.432   0.734   3.939  0.00  0.00    +0.146 HD
ENDBRANCH  21  22
BRANCH  21  31
ATOM     29  C   UNL     1      -0.020   1.375   0.008  0.00  0.00    +0.008 A 
ATOM     30  C   UNL     1       1.181   2.061  -0.003  0.00  0.00    +0.013 A 
ATOM     31  C   UNL     1       2.339   1.357  -0.012  0.00  0.00    +0.010 A 
ATOM     32  S   UNL     1       1.749  -0.327  -0.003  0.00  0.00    -0.100 S 
ATOM     33  C   UNL     1      -0.003   0.020   0.011  0.00  0.00    +0.045 A 
ENDBRANCH  21  31
ENDBRANCH  20  21
ENDBRANCH   1  20
TORSDOF 6
