REMARK  Name = ZINC03533194
REMARK  8 active torsions:
REMARK  status: ('A' for Active; 'I' for Inactive)
REMARK    1  A    between atoms: C_2  and  C_3
REMARK    2  A    between atoms: C_3  and  N_4
REMARK    3  A    between atoms: C_17  and  S_18
REMARK    4  A    between atoms: S_18  and  C_19
REMARK    5  A    between atoms: C_19  and  C_20
REMARK    6  A    between atoms: C_20  and  C_22
REMARK    7  A    between atoms: C_25  and  O_29
REMARK    8  A    between atoms: C_27  and  O_28
REMARK                            x       y       z     vdW  Elec       q    Type
REMARK                         _______ _______ _______ _____ _____    ______ ____
ROOT
ATOM      1  N   UNL     1      -3.270   1.369   1.157  0.00  0.00    -0.273 N 
ATOM      2  C   UNL     1      -3.150   0.728   2.337  0.00  0.00    +0.263 A 
ATOM      3  O   UNL     1      -2.369  -0.197   2.462  0.00  0.00    -0.267 OA
ATOM      4  C   UNL     1      -3.977   1.171   3.474  0.00  0.00    +0.064 A 
ATOM      5  C   UNL     1      -3.890   0.549   4.718  0.00  0.00    +0.015 A 
ATOM      6  C   UNL     1      -4.684   0.988   5.757  0.00  0.00    +0.001 A 
ATOM      7  C   UNL     1      -5.565   2.041   5.568  0.00  0.00    +0.002 A 
ATOM      8  C   UNL     1      -5.660   2.666   4.340  0.00  0.00    +0.027 A 
ATOM      9  C   UNL     1      -4.869   2.237   3.285  0.00  0.00    +0.064 A 
ATOM     10  N   UNL     1      -4.946   2.850   2.036  0.00  0.00    -0.256 N 
ATOM     11  C   UNL     1      -4.161   2.420   1.001  0.00  0.00    +0.240 A 
ATOM     12  N   UNL     1      -4.434   3.165  -0.046  0.00  0.00    -0.109 NA
ATOM     13  N   UNL     1      -5.415   4.093   0.324  0.00  0.00    -0.120 NA
ATOM     14  C   UNL     1      -5.713   3.889   1.583  0.00  0.00    +0.198 A 
ENDROOT
BRANCH   1  15
ATOM     15  C   UNL     1      -2.451   0.944   0.019  0.00  0.00    +0.155 C 
BRANCH  15  17
ATOM     16  C   UNL     1      -0.013   1.076   0.008  0.00  0.00    +0.005 C 
ATOM     17  C   UNL     1      -1.156   1.715   0.017  0.00  0.00    -0.013 C 
ENDBRANCH  15  17
ENDBRANCH   1  15
BRANCH  14  18
ATOM     18  S   UNL     1      -6.894   4.794   2.529  0.00  0.00    -0.078 S 
BRANCH  18  19
ATOM     19  C   UNL     1      -7.550   6.015   1.358  0.00  0.00    +0.157 C 
BRANCH  19  20
ATOM     20  C   UNL     1      -8.584   6.866   2.048  0.00  0.00    +0.177 C 
ATOM     21  O   UNL     1      -8.853   6.668   3.215  0.00  0.00    -0.291 OA
BRANCH  20  22
ATOM     22  C   UNL     1      -9.266   7.932   1.310  0.00  0.00    +0.060 A 
ATOM     23  C   UNL     1      -8.959   8.164  -0.037  0.00  0.00    +0.018 A 
ATOM     24  C   UNL     1      -9.595   9.157  -0.723  0.00  0.00    +0.046 A 
ATOM     25  C   UNL     1     -10.553   9.946  -0.092  0.00  0.00    +0.120 A 
ATOM     26  C   UNL     1     -10.870   9.732   1.242  0.00  0.00    +0.091 A 
ATOM     27  C   UNL     1     -10.236   8.725   1.949  0.00  0.00    +0.131 A 
BRANCH  27  28
ATOM     28  O   UNL     1     -10.546   8.507   3.251  0.00  0.00    -0.506 OA
ATOM     29  H   UNL     1     -10.008   9.014   3.874  0.00  0.00    +0.292 HD
ENDBRANCH  27  28
BRANCH  25  30
ATOM     30  O   UNL     1     -11.180  10.930  -0.784  0.00  0.00    -0.507 OA
ATOM     31  H   UNL     1     -11.991  10.645  -1.227  0.00  0.00    +0.292 HD
ENDBRANCH  25  30
ENDBRANCH  20  22
ENDBRANCH  19  20
ENDBRANCH  18  19
ENDBRANCH  14  18
TORSDOF 8
