REMARK  Name = ZINC58862525
REMARK  9 active torsions:
REMARK  status: ('A' for Active; 'I' for Inactive)
REMARK    1  A    between atoms: C_1  and  C_2
REMARK    2  A    between atoms: C_2  and  O_3
REMARK    3  A    between atoms: O_3  and  C_4
REMARK    4  A    between atoms: C_7  and  S_26
REMARK    5  A    between atoms: C_9  and  N_10
REMARK    6  A    between atoms: N_13  and  C_14
REMARK    7  A    between atoms: C_14  and  C_16
REMARK    8  A    between atoms: C_14  and  C_17
REMARK    9  A    between atoms: S_26  and  N_29
REMARK                            x       y       z     vdW  Elec       q    Type
REMARK                         _______ _______ _______ _____ _____    ______ ____
ROOT
ATOM      1  C   UNL     1       0.764  -1.822  -1.346  0.00  0.00    +0.142 A 
ATOM      2  C   UNL     1       0.225  -2.686  -0.406  0.00  0.00    +0.049 A 
ATOM      3  C   UNL     1       0.334  -4.053  -0.579  0.00  0.00    +0.032 A 
ATOM      4  C   UNL     1       0.981  -4.563  -1.689  0.00  0.00    +0.107 A 
ATOM      5  C   UNL     1       1.522  -3.708  -2.632  0.00  0.00    +0.055 A 
ATOM      6  C   UNL     1       1.410  -2.336  -2.467  0.00  0.00    +0.079 A 
ENDROOT
BRANCH   6   7
ATOM      7  N   UNL     1       1.953  -1.467  -3.425  0.00  0.00    -0.266 N 
ATOM      8  C   UNL     1       3.092  -1.796  -4.065  0.00  0.00    +0.304 C 
ATOM      9  O   UNL     1       3.606  -2.881  -3.872  0.00  0.00    -0.252 OA
ATOM     10  N   UNL     1       3.662  -0.923  -4.918  0.00  0.00    -0.293 N 
ATOM     11  H   UNL     1       1.508  -0.629  -3.626  0.00  0.00    +0.156 HD
ATOM     12  H   UNL     1       3.252  -0.057  -5.072  0.00  0.00    +0.151 HD
BRANCH  10  13
ATOM     13  C   UNL     1       4.901  -1.281  -5.614  0.00  0.00    +0.102 C 
ATOM     14  C   UNL     1       6.099  -0.962  -4.718  0.00  0.00    +0.033 C 
BRANCH  13  15
ATOM     15  C   UNL     1       5.005  -0.491  -6.893  0.00  0.00    -0.024 A 
ATOM     16  C   UNL     1       4.630   0.840  -6.914  0.00  0.00    +0.009 A 
ATOM     17  C   UNL     1       4.724   1.569  -8.085  0.00  0.00    +0.050 A 
ATOM     18  C   UNL     1       5.194   0.967  -9.241  0.00  0.00    +0.166 A 
ATOM     19  C   UNL     1       5.572  -0.373  -9.220  0.00  0.00    +0.167 A 
ATOM     20  C   UNL     1       5.480  -1.096  -8.041  0.00  0.00    +0.055 A 
ATOM     21  O   UNL     1       5.995  -0.727 -10.468  0.00  0.00    -0.453 OA
ATOM     22  C   UNL     1       5.489   0.293 -11.349  0.00  0.00    +0.466 C 
ATOM     23  O   UNL     1       5.381   1.453 -10.503  0.00  0.00    -0.453 OA
ENDBRANCH  13  15
ENDBRANCH  10  13
ENDBRANCH   6   7
BRANCH   4  24
ATOM     24  S   UNL     1       1.118  -6.306  -1.903  0.00  0.00    +0.061 S 
ATOM     25  O   UNL     1       2.243  -6.526  -2.743  0.00  0.00    -0.153 OA
ATOM     26  O   UNL     1       1.010  -6.884  -0.609  0.00  0.00    -0.153 OA
BRANCH  24  27
ATOM     27  N   UNL     1      -0.212  -6.801  -2.755  0.00  0.00    -0.177 NA
ATOM     28  C   UNL     1      -1.442  -7.201  -2.058  0.00  0.00    +0.109 C 
ATOM     29  C   UNL     1      -2.615  -6.393  -2.623  0.00  0.00    +0.017 C 
ATOM     30  C   UNL     1      -2.667  -6.572  -4.142  0.00  0.00    +0.003 C 
ATOM     31  C   UNL     1      -1.372  -6.045  -4.765  0.00  0.00    +0.017 C 
ATOM     32  C   UNL     1      -0.188  -6.843  -4.224  0.00  0.00    +0.109 C 
ENDBRANCH  24  27
ENDBRANCH   4  24
BRANCH   1  33
ATOM     33  O   UNL     1       0.657  -0.477  -1.176  0.00  0.00    -0.490 OA
BRANCH  33  35
ATOM     34  C   UNL     1      -0.040   1.507   0.015  0.00  0.00    +0.048 C 
ATOM     35  C   UNL     1      -0.019  -0.023  -0.002  0.00  0.00    +0.226 C 
ENDBRANCH  33  35
ENDBRANCH   1  33
TORSDOF 7
