REMARK  Name = ZINC36714642
REMARK  7 active torsions:
REMARK  status: ('A' for Active; 'I' for Inactive)
REMARK    1  A    between atoms: C_1  and  C_2
REMARK    2  A    between atoms: C_2  and  C_3
REMARK    3  A    between atoms: C_2  and  C_4
REMARK    4  A    between atoms: C_2  and  C_5
REMARK    5  A    between atoms: N_13  and  C_17
REMARK    6  A    between atoms: C_17  and  C_18
REMARK    7  A    between atoms: N_20  and  C_21
REMARK                            x       y       z     vdW  Elec       q    Type
REMARK                         _______ _______ _______ _____ _____    ______ ____
ROOT
ATOM      1  C   UNL     1       0.711  -0.502  -1.267  0.00  0.00    -0.005 C 
ATOM      2  C   UNL     1       0.735  -2.032  -1.267  0.00  0.00    +0.006 C 
ATOM      3  C   UNL     1       1.443  -2.530  -2.530  0.00  0.00    +0.035 C 
ATOM      4  C   UNL     1       2.866  -1.982  -2.566  0.00  0.00    +0.113 C 
ATOM      5  C   UNL     1       2.857  -0.457  -2.545  0.00  0.00    +0.035 C 
ATOM      6  C   UNL     1       2.144   0.033  -1.282  0.00  0.00    +0.006 C 
ATOM      7  C   UNL     1       3.596  -2.489  -3.788  0.00  0.00    +0.247 C 
ATOM      8  O   UNL     1       3.304  -2.298  -4.949  0.00  0.00    -0.273 OA
ATOM      9  N   UNL     1       4.641  -3.198  -3.315  0.00  0.00    -0.215 N 
ATOM     10  C   UNL     1       4.667  -3.205  -1.976  0.00  0.00    +0.310 C 
ATOM     11  O   UNL     1       5.514  -3.778  -1.320  0.00  0.00    -0.252 OA
ATOM     12  N   UNL     1       3.648  -2.507  -1.440  0.00  0.00    -0.285 N 
ATOM     13  H   UNL     1       3.467  -2.377  -0.496  0.00  0.00    +0.151 HD
ENDROOT
BRANCH   1  15
ATOM     14  C   UNL     1      -0.033   1.525  -0.011  0.00  0.00    +0.011 C 
ATOM     15  C   UNL     1      -0.006  -0.004  -0.010  0.00  0.00    -0.035 C 
ATOM     16  C   UNL     1       0.737  -0.501   1.232  0.00  0.00    +0.011 C 
ATOM     17  C   UNL     1      -1.440  -0.540   0.005  0.00  0.00    +0.011 C 
ENDBRANCH   1  15
BRANCH   9  18
ATOM     18  C   UNL     1       5.626  -3.877  -4.161  0.00  0.00    +0.214 C 
BRANCH  18  19
ATOM     19  C   UNL     1       6.764  -2.936  -4.460  0.00  0.00    +0.235 C 
ATOM     20  O   UNL     1       6.754  -1.809  -4.011  0.00  0.00    -0.274 OA
ATOM     21  N   UNL     1       7.794  -3.346  -5.227  0.00  0.00    -0.284 N 
ATOM     22  H   UNL     1       7.836  -4.266  -5.531  0.00  0.00    +0.155 HD
BRANCH  21  23
ATOM     23  C   UNL     1       8.803  -2.445  -5.585  0.00  0.00    +0.033 A 
ATOM     24  C   UNL     1       9.404  -2.533  -6.834  0.00  0.00    +0.024 A 
ATOM     25  C   UNL     1      10.398  -1.642  -7.185  0.00  0.00    +0.016 A 
ATOM     26  C   UNL     1      10.796  -0.661  -6.294  0.00  0.00    +0.013 A 
ATOM     27  C   UNL     1      10.199  -0.571  -5.050  0.00  0.00    +0.016 A 
ATOM     28  C   UNL     1       9.200  -1.456  -4.695  0.00  0.00    +0.024 A 
ATOM     29  I   UNL     1      12.307   0.688  -6.830  0.00  0.00    -0.044 I 
ENDBRANCH  21  23
ENDBRANCH  18  19
ENDBRANCH   9  18
TORSDOF 4
