REMARK  Name = ZINC39692348
REMARK  10 active torsions:
REMARK  status: ('A' for Active; 'I' for Inactive)
REMARK    1  A    between atoms: C_1  and  C_2
REMARK    2  A    between atoms: C_4  and  C_36
REMARK    3  A    between atoms: C_10  and  C_14
REMARK    4  A    between atoms: C_14  and  S_15
REMARK    5  A    between atoms: S_15  and  C_16
REMARK    6  A    between atoms: C_19  and  C_27
REMARK    7  A    between atoms: N_20  and  C_21
REMARK    8  A    between atoms: C_21  and  C_22
REMARK    9  A    between atoms: C_32  and  O_33
REMARK   10  A    between atoms: O_33  and  C_34
REMARK                            x       y       z     vdW  Elec       q    Type
REMARK                         _______ _______ _______ _____ _____    ______ ____
ROOT
ATOM      1  C   UNL     1       6.497  -0.974  -4.569  0.00  0.00    +0.193 A 
ATOM      2  N   UNL     1       7.675  -1.173  -4.021  0.00  0.00    -0.122 NA
ATOM      3  N   UNL     1       8.554  -1.393  -4.933  0.00  0.00    -0.128 NA
ATOM      4  C   UNL     1       7.991  -1.349  -6.118  0.00  0.00    +0.169 A 
ATOM      5  N   UNL     1       6.656  -1.084  -5.921  0.00  0.00    -0.295 N 
ENDROOT
BRANCH   4   6
ATOM      6  C   UNL     1       8.665  -1.550  -7.418  0.00  0.00    +0.061 A 
ATOM      7  C   UNL     1       8.114  -2.412  -8.367  0.00  0.00    +0.015 A 
ATOM      8  C   UNL     1       8.747  -2.596  -9.579  0.00  0.00    +0.001 A 
ATOM      9  C   UNL     1       9.928  -1.929  -9.857  0.00  0.00    +0.004 A 
ATOM     10  C   UNL     1      10.483  -1.073  -8.925  0.00  0.00    +0.046 A 
ATOM     11  C   UNL     1       9.856  -0.872  -7.706  0.00  0.00    +0.131 A 
BRANCH  11  12
ATOM     12  O   UNL     1      10.397  -0.026  -6.792  0.00  0.00    -0.494 OA
ATOM     13  C   UNL     1      11.613   0.630  -7.155  0.00  0.00    +0.277 C 
ENDBRANCH  11  12
ENDBRANCH   4   6
BRANCH   1  14
ATOM     14  S   UNL     1       4.992  -0.635  -3.717  0.00  0.00    -0.078 S 
BRANCH  14  15
ATOM     15  C   UNL     1       5.472  -0.623  -1.967  0.00  0.00    +0.151 C 
BRANCH  15  23
ATOM     16  C   UNL     1       0.043   2.464  -0.510  0.00  0.00    +0.053 C 
ATOM     17  C   UNL     1      -0.027   0.943  -0.361  0.00  0.00    +0.191 C 
ATOM     18  C   UNL     1       0.710   0.482   0.919  0.00  0.00    +0.183 C 
ATOM     19  C   UNL     1       2.092   0.172   0.386  0.00  0.00    +0.096 A 
ATOM     20  H   UNL     1       5.272  -0.437   0.626  0.00  0.00    +0.170 HD
ATOM     21  C   UNL     1       1.994   0.099  -0.991  0.00  0.00    +0.226 A 
ATOM     22  N   UNL     1       3.110  -0.155  -1.700  0.00  0.00    -0.199 NA
ATOM     23  C   UNL     1       4.260  -0.341  -1.117  0.00  0.00    +0.124 A 
ATOM     24  N   UNL     1       4.402  -0.289   0.223  0.00  0.00    -0.310 N 
ATOM     25  C   UNL     1       3.329  -0.030   1.002  0.00  0.00    +0.259 A 
ATOM     26  O   UNL     1       3.438   0.025   2.217  0.00  0.00    -0.267 OA
ATOM     27  O   UNL     1       0.715   0.293  -1.408  0.00  0.00    -0.472 OA
BRANCH  18  28
ATOM     28  C   UNL     1       0.760   1.589   1.941  0.00  0.00    +0.367 C 
ATOM     29  O   UNL     1       0.594   1.336   3.122  0.00  0.00    -0.246 OA
ATOM     30  O   UNL     1       0.967   2.736   1.586  0.00  0.00    -0.246 OA
ENDBRANCH  18  28
ENDBRANCH  15  23
ENDBRANCH  14  15
ENDBRANCH   1  14
BRANCH   5  31
ATOM     31  C   UNL     1       5.620  -0.947  -6.948  0.00  0.00    +0.200 C 
BRANCH  31  32
ATOM     32  C   UNL     1       5.505   0.500  -7.355  0.00  0.00    +0.125 A 
ATOM     33  C   UNL     1       6.190   1.095  -8.348  0.00  0.00    +0.046 A 
ATOM     34  C   UNL     1       5.775   2.446  -8.381  0.00  0.00    +0.041 A 
ATOM     35  C   UNL     1       4.860   2.596  -7.405  0.00  0.00    +0.195 A 
ATOM     36  O   UNL     1       4.697   1.413  -6.792  0.00  0.00    -0.466 OA
ENDBRANCH  31  32
ENDBRANCH   5  31
TORSDOF 8
