REMARK  Name = ZINC36803464
REMARK  8 active torsions:
REMARK  status: ('A' for Active; 'I' for Inactive)
REMARK    1  A    between atoms: C_1  and  C_2
REMARK    2  A    between atoms: C_2  and  C_4
REMARK    3  A    between atoms: C_2  and  S_16
REMARK    4  A    between atoms: N_6  and  C_7
REMARK    5  A    between atoms: C_11  and  N_13
REMARK    6  A    between atoms: S_16  and  C_17
REMARK    7  A    between atoms: C_20  and  C_23
REMARK    8  A    between atoms: N_21  and  C_22
REMARK                            x       y       z     vdW  Elec       q    Type
REMARK                         _______ _______ _______ _____ _____    ______ ____
ROOT
ATOM      1  C   UNL     1       0.029   1.547   0.152  0.00  0.00    +0.029 C 
ATOM      2  C   UNL     1       0.110   0.019   0.141  0.00  0.00    +0.137 C 
ENDROOT
BRANCH   2   3
ATOM      3  C   UNL     1       0.707  -0.444  -1.163  0.00  0.00    +0.230 C 
ATOM      4  O   UNL     1      -0.017  -0.764  -2.081  0.00  0.00    -0.274 OA
ATOM      5  N   UNL     1       2.046  -0.501  -1.308  0.00  0.00    -0.285 N 
ATOM      6  H   UNL     1       2.625  -0.186  -0.597  0.00  0.00    +0.155 HD
BRANCH   5   7
ATOM      7  C   UNL     1       2.600  -1.015  -2.486  0.00  0.00    +0.036 A 
ATOM      8  C   UNL     1       3.778  -1.749  -2.437  0.00  0.00    +0.023 A 
ATOM      9  C   UNL     1       4.323  -2.254  -3.601  0.00  0.00    +0.004 A 
ATOM     10  C   UNL     1       3.697  -2.031  -4.814  0.00  0.00    +0.033 A 
ATOM     11  C   UNL     1       2.524  -1.300  -4.865  0.00  0.00    +0.128 A 
ATOM     12  C   UNL     1       1.971  -0.796  -3.704  0.00  0.00    +0.056 A 
BRANCH  11  13
ATOM     13  N   UNL     1       1.858  -1.062  -6.165  0.00  0.00    +0.056 N 
ATOM     14  O   UNL     1       2.339  -1.506  -7.181  0.00  0.00    -0.126 OA
ATOM     15  O   UNL     1       0.833  -0.423  -6.211  0.00  0.00    -0.126 OA
ENDBRANCH  11  13
ENDBRANCH   5   7
ENDBRANCH   2   3
BRANCH   2  16
ATOM     16  S   UNL     1      -1.556  -0.676   0.324  0.00  0.00    -0.074 S 
BRANCH  16  17
ATOM     17  C   UNL     1      -2.053  -0.173   1.938  0.00  0.00    +0.192 A 
ATOM     18  N   UNL     1      -1.348   0.546   2.781  0.00  0.00    -0.122 NA
ATOM     19  N   UNL     1      -2.012   0.729   3.867  0.00  0.00    -0.128 NA
ATOM     20  C   UNL     1      -3.180   0.137   3.783  0.00  0.00    +0.167 A 
ATOM     21  N   UNL     1      -3.245  -0.455   2.542  0.00  0.00    -0.305 N 
ATOM     22  C   UNL     1      -4.359  -1.227   1.987  0.00  0.00    +0.153 C 
BRANCH  20  23
ATOM     23  C   UNL     1      -4.231   0.115   4.823  0.00  0.00    +0.054 A 
ATOM     24  C   UNL     1      -4.821  -1.093   5.197  0.00  0.00    +0.014 A 
ATOM     25  C   UNL     1      -5.801  -1.108   6.168  0.00  0.00    +0.001 A 
ATOM     26  C   UNL     1      -6.200   0.072   6.772  0.00  0.00    +0.003 A 
ATOM     27  C   UNL     1      -5.620   1.273   6.407  0.00  0.00    +0.039 A 
ATOM     28  C   UNL     1      -4.633   1.302   5.440  0.00  0.00    +0.134 A 
ATOM     29  F   UNL     1      -4.063   2.475   5.089  0.00  0.00    -0.205 F 
ENDBRANCH  20  23
ENDBRANCH  16  17
ENDBRANCH   2  16
TORSDOF 6
