REMARK  Name = ZINC59513653
REMARK  4 active torsions:
REMARK  status: ('A' for Active; 'I' for Inactive)
REMARK    1  A    between atoms: C_6  and  C_7
REMARK    2  A    between atoms: N_8  and  C_9
REMARK    3  A    between atoms: C_12  and  N_16
REMARK    4  A    between atoms: C_14  and  O_15
REMARK                            x       y       z     vdW  Elec       q    Type
REMARK                         _______ _______ _______ _____ _____    ______ ____
ROOT
ATOM      1  C   UNL     1      -2.374  -2.823   0.088  0.00  0.00    +0.105 A 
ATOM      2  C   UNL     1      -3.630  -2.212   0.088  0.00  0.00    +0.033 A 
ATOM      3  C   UNL     1      -4.770  -2.984   0.174  0.00  0.00    +0.035 A 
ATOM      4  C   UNL     1      -4.674  -4.362   0.261  0.00  0.00    +0.130 A 
ATOM      5  C   UNL     1      -3.437  -4.979   0.263  0.00  0.00    +0.080 A 
ATOM      6  C   UNL     1      -2.283  -4.219   0.171  0.00  0.00    +0.144 A 
ENDROOT
BRANCH   4   7
ATOM      7  N   UNL     1      -5.904  -5.181   0.353  0.00  0.00    +0.057 N 
ATOM      8  O   UNL     1      -6.988  -4.645   0.352  0.00  0.00    -0.126 OA
ATOM      9  O   UNL     1      -5.825  -6.385   0.430  0.00  0.00    -0.126 OA
ENDBRANCH   4   7
BRANCH   1  11
ATOM     10  C   UNL     1      -1.095  -1.021   0.771  0.00  0.00    +0.119 C 
ATOM     11  N   UNL     1      -1.240  -2.063   0.003  0.00  0.00    -0.251 NA
BRANCH  10  17
ATOM     12  C   UNL     1       0.230   0.982   1.423  0.00  0.00    +0.010 A 
ATOM     13  C   UNL     1       1.324   1.804   1.258  0.00  0.00    +0.016 A 
ATOM     14  C   UNL     1       2.264   1.524   0.280  0.00  0.00    +0.018 A 
ATOM     15  C   UNL     1       2.113   0.417  -0.538  0.00  0.00    +0.016 A 
ATOM     16  C   UNL     1       1.024  -0.415  -0.384  0.00  0.00    +0.010 A 
ATOM     17  C   UNL     1       0.071  -0.138   0.601  0.00  0.00    -0.007 A 
ATOM     18 BR   UNL     1       3.761   2.659   0.062  0.00  0.00    -0.050 Br
ENDBRANCH  10  17
ENDBRANCH   1  11
BRANCH   6  19
ATOM     19  O   UNL     1      -1.066  -4.824   0.167  0.00  0.00    -0.505 OA
ATOM     20  H   UNL     1      -0.684  -4.945   1.047  0.00  0.00    +0.292 HD
ENDBRANCH   6  19
TORSDOF 4
