REMARK  Name = ZINC63271571
REMARK  5 active torsions:
REMARK  status: ('A' for Active; 'I' for Inactive)
REMARK    1  A    between atoms: C_7  and  C_10
REMARK    2  A    between atoms: C_10  and  C_11
REMARK    3  A    between atoms: C_11  and  C_12
REMARK    4  A    between atoms: C_20  and  C_22
REMARK    5  A    between atoms: C_22  and  C_23
REMARK                            x       y       z     vdW  Elec       q    Type
REMARK                         _______ _______ _______ _____ _____    ______ ____
ROOT
ATOM      1  C   UNL     1      -0.484  -4.830  -1.460  0.00  0.00    +0.216 C 
ATOM      2  O   UNL     1      -0.925  -5.254  -0.412  0.00  0.00    -0.276 OA
ATOM      3  N   UNL     1      -0.837  -5.413  -2.623  0.00  0.00    -0.298 N 
ATOM      4  C   UNL     1      -0.307  -4.915  -3.900  0.00  0.00    +0.126 C 
ATOM      5  C   UNL     1       0.368  -6.078  -4.638  0.00  0.00    +0.126 C 
ATOM      6  N   UNL     1      -0.553  -7.223  -4.652  0.00  0.00    -0.298 N 
ATOM      7  C   UNL     1      -1.083  -7.721  -3.375  0.00  0.00    +0.126 C 
ATOM      8  C   UNL     1      -1.754  -6.562  -2.637  0.00  0.00    +0.126 C 
ATOM      9  C   UNL     1      -0.905  -7.806  -5.815  0.00  0.00    +0.220 C 
ATOM     10  O   UNL     1      -0.461  -7.386  -6.862  0.00  0.00    -0.275 OA
ENDROOT
BRANCH   1  11
ATOM     11  C   UNL     1       0.457  -3.653  -1.462  0.00  0.00    +0.100 C 
BRANCH  11  12
ATOM     12  C   UNL     1       0.691  -3.186  -0.024  0.00  0.00    +0.042 C 
BRANCH  12  19
ATOM     13  C   UNL     1      -0.016   1.348   0.009  0.00  0.00    +0.001 A 
ATOM     14  C   UNL     1       1.166   2.101   0.002  0.00  0.00    +0.002 A 
ATOM     15  C   UNL     1       2.391   1.535  -0.013  0.00  0.00    +0.026 A 
ATOM     16  C   UNL     1       2.529   0.120  -0.022  0.00  0.00    +0.043 A 
ATOM     17  N   UNL     1       3.587  -0.654  -0.037  0.00  0.00    -0.380 N 
ATOM     18  C   UNL     1       3.143  -2.053  -0.041  0.00  0.00    +0.144 C 
ATOM     19  C   UNL     1       1.631  -2.008  -0.025  0.00  0.00    -0.041 C 
ATOM     20  C   UNL     1       1.295  -0.698  -0.014  0.00  0.00    -0.001 A 
ATOM     21  C   UNL     1       0.002  -0.004   0.002  0.00  0.00    +0.010 A 
ATOM     22  H   UNL     1       4.509  -0.353  -0.045  0.00  0.00    +0.160 HD
ENDBRANCH  12  19
ENDBRANCH  11  12
ENDBRANCH   1  11
BRANCH   9  23
ATOM     23  C   UNL     1      -1.851  -8.979  -5.814  0.00  0.00    +0.129 C 
BRANCH  23  24
ATOM     24  C   UNL     1      -2.080  -9.441  -7.230  0.00  0.00    -0.033 C 
ATOM     25  C   UNL     1      -1.429 -10.434  -7.877  0.00  0.00    -0.001 A 
ATOM     26  C   UNL     1      -0.354 -11.347  -7.471  0.00  0.00    +0.010 A 
ATOM     27  C   UNL     1       0.103 -12.258  -8.360  0.00  0.00    +0.001 A 
ATOM     28  C   UNL     1      -0.424 -12.353  -9.656  0.00  0.00    +0.002 A 
ATOM     29  C   UNL     1      -1.413 -11.549 -10.101  0.00  0.00    +0.026 A 
ATOM     30  C   UNL     1      -1.969 -10.555  -9.250  0.00  0.00    +0.043 A 
ATOM     31  N   UNL     1      -2.916  -9.669  -9.444  0.00  0.00    -0.380 N 
ATOM     32  C   UNL     1      -3.089  -8.891  -8.213  0.00  0.00    +0.145 C 
ATOM     33  H   UNL     1      -3.421  -9.552 -10.264  0.00  0.00    +0.160 HD
ENDBRANCH  23  24
ENDBRANCH   9  23
TORSDOF 5
