REMARK  Name = ZINC30607227
REMARK  5 active torsions:
REMARK  status: ('A' for Active; 'I' for Inactive)
REMARK    1  A    between atoms: C_1  and  C_2
REMARK    2  A    between atoms: C_3  and  C_25
REMARK    3  A    between atoms: C_8  and  C_10
REMARK    4  A    between atoms: N_12  and  C_19
REMARK    5  A    between atoms: C_13  and  C_16
REMARK                            x       y       z     vdW  Elec       q    Type
REMARK                         _______ _______ _______ _____ _____    ______ ____
ROOT
ATOM      1  C   UNL     1      -4.940  -9.604   0.099  0.00  0.00    +0.054 C 
ATOM      2  C   UNL     1      -4.308  -8.237   0.048  0.00  0.00    +0.016 A 
ATOM      3  C   UNL     1      -4.897  -7.004   0.013  0.00  0.00    +0.083 A 
ATOM      4  N   UNL     1      -4.136  -5.921  -0.025  0.00  0.00    -0.224 NA
ATOM      5  C   UNL     1      -2.818  -6.009  -0.041  0.00  0.00    +0.165 A 
ATOM      6  S   UNL     1      -2.579  -7.779   0.016  0.00  0.00    -0.057 S 
ATOM      7  N   UNL     1      -1.871  -4.995  -0.083  0.00  0.00    -0.260 N 
ATOM      8  C   UNL     1      -0.558  -5.300  -0.085  0.00  0.00    +0.265 C 
ATOM      9  O   UNL     1      -0.203  -6.464  -0.050  0.00  0.00    -0.268 OA
ATOM     10  H   UNL     1      -2.191  -3.944  -0.114  0.00  0.00    +0.157 HD
ENDROOT
BRANCH   3  11
ATOM     11  C   UNL     1      -6.375  -6.880   0.023  0.00  0.00    +0.001 A 
ATOM     12  C   UNL     1      -7.006  -5.966  -0.819  0.00  0.00    +0.013 A 
ATOM     13  C   UNL     1      -8.382  -5.859  -0.810  0.00  0.00    +0.039 A 
ATOM     14  C   UNL     1      -9.135  -6.650   0.042  0.00  0.00    +0.123 A 
ATOM     15  C   UNL     1      -8.511  -7.556   0.885  0.00  0.00    +0.039 A 
ATOM     16  C   UNL     1      -7.137  -7.674   0.879  0.00  0.00    +0.013 A 
ATOM     17  F   UNL     1     -10.481  -6.538   0.051  0.00  0.00    -0.205 F 
ENDBRANCH   3  11
BRANCH   8  18
ATOM     18  C   UNL     1       0.440  -4.233  -0.130  0.00  0.00    +0.123 C 
ATOM     19  N   UNL     1       0.179  -2.965  -0.164  0.00  0.00    -0.178 NA
ATOM     20  N   UNL     1       1.311  -2.154  -0.207  0.00  0.00    -0.212 N 
ATOM     21  C   UNL     1       2.510  -3.007  -0.191  0.00  0.00    +0.189 C 
ATOM     22  C   UNL     1       1.938  -4.438  -0.137  0.00  0.00    +0.096 C 
BRANCH  20  23
ATOM     23  C   UNL     1       1.308  -0.759  -0.253  0.00  0.00    +0.052 A 
ATOM     24  C   UNL     1       0.105  -0.065  -0.265  0.00  0.00    +0.025 A 
ATOM     25  C   UNL     1       0.106   1.315  -0.310  0.00  0.00    +0.002 A 
ATOM     26  C   UNL     1       1.303   2.007  -0.344  0.00  0.00    +0.000 A 
ATOM     27  C   UNL     1       2.503   1.319  -0.332  0.00  0.00    +0.002 A 
ATOM     28  C   UNL     1       2.510  -0.061  -0.287  0.00  0.00    +0.025 A 
ENDBRANCH  20  23
BRANCH  21  29
ATOM     29  C   UNL     1       3.322  -2.804  -1.443  0.00  0.00    +0.233 C 
ATOM     30  O   UNL     1       2.813  -2.299  -2.421  0.00  0.00    -0.274 OA
ATOM     31  N   UNL     1       4.615  -3.183  -1.477  0.00  0.00    -0.328 N 
ATOM     32  H   UNL     1       5.208  -3.035  -2.391  0.00  0.00    +0.145 HD
ATOM     33  H   UNL     1       5.077  -3.641  -0.590  0.00  0.00    +0.145 HD
ENDBRANCH  21  29
ENDBRANCH   8  18
TORSDOF 4
