REMARK  Name = ZINC33644115
REMARK  8 active torsions:
REMARK  status: ('A' for Active; 'I' for Inactive)
REMARK    1  A    between atoms: C_4  and  O_7
REMARK    2  A    between atoms: O_7  and  C_8
REMARK    3  A    between atoms: C_11  and  C_14
REMARK    4  A    between atoms: N_22  and  C_25
REMARK    5  A    between atoms: C_25  and  C_26
REMARK    6  A    between atoms: C_36  and  C_38
REMARK    7  A    between atoms: C_36  and  C_40
REMARK    8  A    between atoms: C_38  and  O_39
REMARK                            x       y       z     vdW  Elec       q    Type
REMARK                         _______ _______ _______ _____ _____    ______ ____
ROOT
ATOM      1  C   UNL     1       1.265  -2.229  -0.277  0.00  0.00    -0.027 C 
ATOM      2  C   UNL     1       1.543  -2.785   1.072  0.00  0.00    +0.077 C 
ATOM      3  C   UNL     1       3.120  -2.702   1.116  0.00  0.00    +0.088 C 
ATOM      4  C   UNL     1       3.309  -3.297   2.458  0.00  0.00    +0.225 C 
ATOM      5  O   UNL     1       4.209  -4.024   2.820  0.00  0.00    -0.275 OA
ATOM      6  N   UNL     1       2.249  -2.853   3.203  0.00  0.00    -0.237 N 
ATOM      7  C   UNL     1       1.240  -2.338   2.429  0.00  0.00    +0.225 C 
ATOM      8  O   UNL     1       0.302  -1.660   2.791  0.00  0.00    -0.275 OA
ATOM      9  C   UNL     1       3.400  -3.368  -0.210  0.00  0.00    +0.071 C 
ATOM     10  N   UNL     1       2.412  -2.699  -1.122  0.00  0.00    +0.397 N 
ATOM     11  H   UNL     1       2.043  -3.409  -1.877  0.00  0.00    -0.083 HD
ATOM     12  H   UNL     1       2.874  -1.837  -1.624  0.00  0.00    -0.083 HD
ENDROOT
BRANCH   1  16
ATOM     13  C   UNL     1       1.170   2.041  -0.138  0.00  0.00    +0.128 A 
ATOM     14  C   UNL     1      -0.014   1.322  -0.211  0.00  0.00    +0.046 A 
ATOM     15  C   UNL     1       0.019  -0.059  -0.256  0.00  0.00    +0.005 A 
ATOM     16  C   UNL     1       1.232  -0.723  -0.227  0.00  0.00    -0.060 A 
ATOM     17  C   UNL     1       2.413  -0.008  -0.154  0.00  0.00    +0.005 A 
ATOM     18  C   UNL     1       2.385   1.372  -0.110  0.00  0.00    +0.046 A 
BRANCH  13  19
ATOM     19  O   UNL     1       1.139   3.399  -0.095  0.00  0.00    -0.456 OA
BRANCH  19  23
ATOM     20  C   UNL     1      -2.538   5.245   0.200  0.00  0.00    +0.000 A 
ATOM     21  C   UNL     1      -2.057   4.492   1.256  0.00  0.00    +0.004 A 
ATOM     22  C   UNL     1      -0.826   3.873   1.159  0.00  0.00    +0.046 A 
ATOM     23  C   UNL     1      -0.072   4.007   0.003  0.00  0.00    +0.128 A 
ATOM     24  C   UNL     1      -0.554   4.769  -1.053  0.00  0.00    +0.046 A 
ATOM     25  C   UNL     1      -1.788   5.381  -0.954  0.00  0.00    +0.004 A 
ENDBRANCH  19  23
ENDBRANCH  13  19
ENDBRANCH   1  16
BRANCH   9  26
ATOM     26  C   UNL     1       3.137  -4.850  -0.130  0.00  0.00    +0.348 C 
ATOM     27  O   UNL     1       3.299  -5.437   0.913  0.00  0.00    -0.248 OA
ATOM     28  O   UNL     1       2.724  -5.518  -1.219  0.00  0.00    -0.248 OA
ENDBRANCH   9  26
BRANCH   6  29
ATOM     29  C   UNL     1       2.198  -2.920   4.666  0.00  0.00    +0.152 C 
BRANCH  29  30
ATOM     30  C   UNL     1       2.885  -1.712   5.248  0.00  0.00    -0.022 A 
ATOM     31  C   UNL     1       3.337  -0.721   4.431  0.00  0.00    +0.006 A 
ATOM     32  C   UNL     1       3.974   0.404   4.952  0.00  0.00    +0.001 A 
ATOM     33  C   UNL     1       4.163   0.545   6.292  0.00  0.00    +0.008 A 
ATOM     34  C   UNL     1       3.711  -0.457   7.167  0.00  0.00    -0.018 A 
ATOM     35  C   UNL     1       3.058  -1.599   6.638  0.00  0.00    -0.013 A 
ATOM     36  C   UNL     1       2.600  -2.598   7.514  0.00  0.00    +0.009 A 
ATOM     37  C   UNL     1       2.784  -2.455   8.855  0.00  0.00    +0.001 A 
ATOM     38  C   UNL     1       3.422  -1.330   9.375  0.00  0.00    +0.001 A 
ATOM     39  C   UNL     1       3.888  -0.347   8.557  0.00  0.00    +0.008 A 
ENDBRANCH  29  30
ENDBRANCH   6  29
BRANCH   9  40
ATOM     40  C   UNL     1       4.834  -3.092  -0.665  0.00  0.00    +0.155 C 
BRANCH  40  41
ATOM     41  O   UNL     1       4.994  -3.520  -2.019  0.00  0.00    -0.396 OA
ATOM     42  H   UNL     1       5.965  -3.401  -2.522  0.00  0.00    +0.209 HD
ENDBRANCH  40  41
ENDBRANCH   9  40
TORSDOF 8
