REMARK  Name = ZINC33068154
REMARK  9 active torsions:
REMARK  status: ('A' for Active; 'I' for Inactive)
REMARK    1  A    between atoms: C_1  and  C_2
REMARK    2  A    between atoms: C_7  and  C_13
REMARK    3  A    between atoms: C_13  and  O_14
REMARK    4  A    between atoms: O_14  and  C_15
REMARK    5  A    between atoms: C_19  and  N_21
REMARK    6  A    between atoms: C_22  and  C_24
REMARK    7  A    between atoms: C_24  and  C_26
REMARK    8  A    between atoms: C_24  and  O_27
REMARK    9  A    between atoms: O_27  and  C_28
REMARK                            x       y       z     vdW  Elec       q    Type
REMARK                         _______ _______ _______ _____ _____    ______ ____
ROOT
ATOM      1  C   UNL     1      -5.476   6.049  -1.317  0.00  0.00    +0.123 A 
ATOM      2  C   UNL     1      -6.031   6.498  -0.127  0.00  0.00    +0.046 A 
ATOM      3  C   UNL     1      -7.381   6.781  -0.055  0.00  0.00    +0.005 A 
ATOM      4  C   UNL     1      -8.186   6.608  -1.165  0.00  0.00    +0.023 A 
ATOM      5  C   UNL     1      -7.637   6.153  -2.357  0.00  0.00    +0.037 A 
ATOM      6  C   UNL     1      -6.280   5.873  -2.432  0.00  0.00    +0.069 A 
ENDROOT
BRANCH   5   7
ATOM      7  N   UNL     1      -8.452   5.976  -3.481  0.00  0.00    -0.282 N 
ATOM      8  C   UNL     1      -8.184   4.990  -4.359  0.00  0.00    +0.258 C 
ATOM      9  O   UNL     1      -7.295   4.197  -4.129  0.00  0.00    -0.271 OA
ATOM     10  H   UNL     1      -9.312   6.642  -3.647  0.00  0.00    +0.155 HD
BRANCH   8  11
ATOM     11  C   UNL     1      -8.988   4.872  -5.629  0.00  0.00    +0.256 C 
ATOM     12  C   UNL     1      -8.735   6.098  -6.508  0.00  0.00    +0.062 C 
BRANCH  11  13
ATOM     13  O   UNL     1      -8.597   3.692  -6.333  0.00  0.00    -0.480 OA
BRANCH  13  14
ATOM     14  C   UNL     1      -9.509   3.149  -7.182  0.00  0.00    +0.122 A 
ATOM     15  C   UNL     1     -10.712   3.799  -7.417  0.00  0.00    +0.045 A 
ATOM     16  C   UNL     1     -11.634   3.248  -8.285  0.00  0.00    +0.004 A 
ATOM     17  C   UNL     1     -11.365   2.045  -8.910  0.00  0.00    +0.000 A 
ATOM     18  C   UNL     1     -10.169   1.393  -8.673  0.00  0.00    +0.004 A 
ATOM     19  C   UNL     1      -9.240   1.942  -7.810  0.00  0.00    +0.045 A 
ENDBRANCH  13  14
ENDBRANCH  11  13
ENDBRANCH   8  11
ENDBRANCH   5   7
BRANCH   1  20
ATOM     20  O   UNL     1      -4.147   5.776  -1.387  0.00  0.00    -0.486 OA
BRANCH  20  21
ATOM     21  C   UNL     1      -3.379   5.979  -0.200  0.00  0.00    +0.284 C 
BRANCH  21  28
ATOM     22  C   UNL     1       3.702   2.956  -1.758  0.00  0.00    +0.045 C 
ATOM     23  C   UNL     1       2.267   3.331  -1.488  0.00  0.00    -0.034 A 
ATOM     24  C   UNL     1       1.267   2.351  -1.537  0.00  0.00    +0.008 A 
ATOM     25  C   UNL     1      -0.029   2.699  -1.297  0.00  0.00    +0.047 A 
ATOM     26  C   UNL     1      -0.340   4.037  -0.992  0.00  0.00    +0.141 A 
ATOM     27  N   UNL     1      -1.604   4.379  -0.752  0.00  0.00    -0.231 NA
ATOM     28  C   UNL     1      -1.938   5.627  -0.466  0.00  0.00    +0.086 A 
ATOM     29  C   UNL     1      -0.967   6.608  -0.412  0.00  0.00    +0.097 A 
ATOM     30  C   UNL     1       0.365   6.256  -0.663  0.00  0.00    +0.259 A 
ATOM     31  O   UNL     1       1.247   7.100  -0.623  0.00  0.00    -0.267 OA
ATOM     32  N   UNL     1       0.658   4.970  -0.950  0.00  0.00    -0.268 N 
ATOM     33  C   UNL     1       1.949   4.613  -1.197  0.00  0.00    +0.099 A 
ENDBRANCH  21  28
ENDBRANCH  20  21
ENDBRANCH   1  20
TORSDOF 7
