REMARK  Name = ZINC36398781
REMARK  10 active torsions:
REMARK  status: ('A' for Active; 'I' for Inactive)
REMARK    1  A    between atoms: C_1  and  C_2
REMARK    2  A    between atoms: C_4  and  C_30
REMARK    3  A    between atoms: C_11  and  S_19
REMARK    4  A    between atoms: N_12  and  C_13
REMARK    5  A    between atoms: C_13  and  C_14
REMARK    6  A    between atoms: S_19  and  C_20
REMARK    7  A    between atoms: C_20  and  C_21
REMARK    8  A    between atoms: C_20  and  C_24
REMARK    9  A    between atoms: C_21  and  C_22
REMARK   10  A    between atoms: C_21  and  C_23
REMARK                            x       y       z     vdW  Elec       q    Type
REMARK                         _______ _______ _______ _____ _____    ______ ____
ROOT
ATOM      1  C   UNL     1      -2.081  -1.174   0.007  0.00  0.00    +0.009 C 
ATOM      2  C   UNL     1      -1.337  -1.835   1.169  0.00  0.00    +0.004 C 
ATOM      3  C   UNL     1      -1.887  -1.306   2.495  0.00  0.00    +0.009 C 
ATOM      4  C   UNL     1      -1.166  -1.992   3.658  0.00  0.00    +0.004 C 
ATOM      5  C   UNL     1       0.330  -1.665   3.590  0.00  0.00    +0.111 C 
ATOM      6  N   UNL     1       0.835  -2.039   2.262  0.00  0.00    -0.299 N 
ATOM      7  C   UNL     1       0.156  -1.507   1.073  0.00  0.00    +0.111 C 
ATOM      8  C   UNL     1       1.934  -2.878   2.134  0.00  0.00    +0.221 A 
ATOM      9  N   UNL     1       1.907  -4.188   2.141  0.00  0.00    -0.112 NA
ATOM     10  N   UNL     1       3.221  -4.649   1.986  0.00  0.00    -0.121 NA
ATOM     11  C   UNL     1       4.008  -3.605   1.889  0.00  0.00    +0.194 A 
ATOM     12  N   UNL     1       3.232  -2.483   1.972  0.00  0.00    -0.283 N 
ATOM     13  C   UNL     1      -1.363  -3.506   3.560  0.00  0.00    +0.009 C 
ENDROOT
BRANCH  12  14
ATOM     14  C   UNL     1       3.708  -1.099   1.903  0.00  0.00    +0.201 C 
BRANCH  14  15
ATOM     15  C   UNL     1       4.112  -0.638   3.280  0.00  0.00    +0.125 A 
ATOM     16  C   UNL     1       5.340  -0.751   3.819  0.00  0.00    +0.046 A 
ATOM     17  C   UNL     1       5.271  -0.194   5.116  0.00  0.00    +0.041 A 
ATOM     18  C   UNL     1       4.006   0.227   5.293  0.00  0.00    +0.195 A 
ATOM     19  O   UNL     1       3.310  -0.040   4.175  0.00  0.00    -0.466 OA
ENDBRANCH  14  15
ENDBRANCH  12  14
BRANCH  11  20
ATOM     20  S   UNL     1       5.757  -3.641   1.681  0.00  0.00    -0.073 S 
BRANCH  20  21
ATOM     21  C   UNL     1       6.141  -5.405   1.501  0.00  0.00    +0.143 C 
BRANCH  21  22
ATOM     22  C   UNL     1       5.570  -5.913   0.202  0.00  0.00    +0.234 C 
ATOM     23  O   UNL     1       5.378  -5.146  -0.717  0.00  0.00    -0.274 OA
ATOM     24  N   UNL     1       5.273  -7.220   0.062  0.00  0.00    -0.239 N 
ATOM     25  C   UNL     1       4.762  -7.674  -1.100  0.00  0.00    +0.303 C 
ATOM     26  O   UNL     1       4.569  -6.905  -2.021  0.00  0.00    -0.253 OA
ATOM     27  N   UNL     1       4.465  -8.981  -1.240  0.00  0.00    -0.313 N 
ATOM     28  H   UNL     1       5.427  -7.834   0.797  0.00  0.00    +0.159 HD
ATOM     29  H   UNL     1       4.619  -9.595  -0.505  0.00  0.00    +0.146 HD
ATOM     30  H   UNL     1       4.097  -9.308  -2.076  0.00  0.00    +0.146 HD
ENDBRANCH  21  22
BRANCH  21  31
ATOM     31  C   UNL     1       7.659  -5.599   1.501  0.00  0.00    +0.005 C 
ATOM     32  C   UNL     1       8.237  -5.095   2.825  0.00  0.00    +0.009 C 
ATOM     33  C   UNL     1       7.983  -7.086   1.336  0.00  0.00    +0.009 C 
ENDBRANCH  21  31
ENDBRANCH  20  21
ENDBRANCH  11  20
TORSDOF 6
