REMARK  Name = ZINC64640173
REMARK  5 active torsions:
REMARK  status: ('A' for Active; 'I' for Inactive)
REMARK    1  A    between atoms: C_7  and  C_10
REMARK    2  A    between atoms: C_10  and  N_11
REMARK    3  A    between atoms: C_14  and  N_17
REMARK    4  A    between atoms: C_20  and  C_23
REMARK    5  A    between atoms: N_25  and  C_26
REMARK                            x       y       z     vdW  Elec       q    Type
REMARK                         _______ _______ _______ _____ _____    ______ ____
ROOT
ATOM      1  N   UNL     1       0.466  -3.635  -1.404  0.00  0.00    -0.298 NA
ATOM      2  C   UNL     1      -0.247  -2.612  -2.181  0.00  0.00    +0.083 C 
ATOM      3  C   UNL     1      -0.334  -3.051  -3.645  0.00  0.00    +0.000 C 
ATOM      4  C   UNL     1      -1.074  -4.389  -3.728  0.00  0.00    -0.066 C 
ATOM      5  C   UNL     1      -0.338  -5.424  -2.872  0.00  0.00    +0.000 C 
ATOM      6  C   UNL     1      -0.250  -4.916  -1.431  0.00  0.00    +0.083 C 
ENDROOT
BRANCH   4   7
ATOM      7  N   UNL     1      -1.110  -4.844  -5.125  0.00  0.00    +0.382 N 
ATOM      8  C   UNL     1      -1.811  -6.131  -5.200  0.00  0.00    -0.078 C 
ATOM      9  C   UNL     1      -1.781  -6.648  -6.640  0.00  0.00    -0.006 C 
ATOM     10  C   UNL     1      -2.472  -5.634  -7.556  0.00  0.00    +0.071 C 
ATOM     11  C   UNL     1      -1.778  -4.276  -7.413  0.00  0.00    -0.006 C 
ATOM     12  C   UNL     1      -1.809  -3.846  -5.944  0.00  0.00    -0.078 C 
ATOM     13  H   UNL     1      -0.167  -4.956  -5.465  0.00  0.00    -0.081 HD
BRANCH  10  14
ATOM     14  C   UNL     1      -2.377  -6.100  -8.986  0.00  0.00    +0.216 C 
ATOM     15  O   UNL     1      -1.813  -7.140  -9.249  0.00  0.00    -0.276 OA
ATOM     16  N   UNL     1      -2.920  -5.359  -9.973  0.00  0.00    -0.312 N 
ATOM     17  H   UNL     1      -3.371  -4.527  -9.763  0.00  0.00    +0.149 HD
BRANCH  16  18
ATOM     18  C   UNL     1      -2.828  -5.812 -11.363  0.00  0.00    +0.073 C 
ATOM     19  C   UNL     1      -2.468  -4.770 -12.424  0.00  0.00    +0.024 C 
ATOM     20  C   UNL     1      -3.895  -5.315 -12.341  0.00  0.00    +0.024 C 
ENDBRANCH  16  18
ENDBRANCH  10  14
ENDBRANCH   4   7
BRANCH   1  21
ATOM     21  C   UNL     1       0.691  -3.186  -0.024  0.00  0.00    +0.117 C 
BRANCH  21  28
ATOM     22  C   UNL     1      -0.016   1.348   0.009  0.00  0.00    +0.001 A 
ATOM     23  C   UNL     1       1.166   2.101   0.002  0.00  0.00    +0.002 A 
ATOM     24  C   UNL     1       2.391   1.535  -0.013  0.00  0.00    +0.026 A 
ATOM     25  C   UNL     1       2.529   0.120  -0.022  0.00  0.00    +0.043 A 
ATOM     26  N   UNL     1       3.587  -0.654  -0.037  0.00  0.00    -0.380 N 
ATOM     27  C   UNL     1       3.143  -2.053  -0.041  0.00  0.00    +0.146 C 
ATOM     28  C   UNL     1       1.631  -2.008  -0.025  0.00  0.00    -0.028 C 
ATOM     29  C   UNL     1       1.295  -0.698  -0.014  0.00  0.00    +0.000 A 
ATOM     30  C   UNL     1       0.002  -0.004   0.002  0.00  0.00    +0.010 A 
ATOM     31  H   UNL     1       4.509  -0.353  -0.045  0.00  0.00    +0.160 HD
ENDBRANCH  21  28
ENDBRANCH   1  21
TORSDOF 5
