REMARK  Name = ZINC23038207
REMARK  11 active torsions:
REMARK  status: ('A' for Active; 'I' for Inactive)
REMARK    1  A    between atoms: C_1  and  C_2
REMARK    2  A    between atoms: C_2  and  C_26
REMARK    3  A    between atoms: N_5  and  N_9
REMARK    4  A    between atoms: C_10  and  C_12
REMARK    5  A    between atoms: C_12  and  N_13
REMARK    6  A    between atoms: N_13  and  C_14
REMARK    7  A    between atoms: N_13  and  C_15
REMARK    8  A    between atoms: C_15  and  C_16
REMARK    9  A    between atoms: N_18  and  C_19
REMARK   10  A    between atoms: C_26  and  C_27
REMARK   11  A    between atoms: C_27  and  C_28
REMARK                            x       y       z     vdW  Elec       q    Type
REMARK                         _______ _______ _______ _____ _____    ______ ____
ROOT
ATOM      1  N   UNL     1       3.516   1.032  -0.017  0.00  0.00    -0.225 N 
ATOM      2  C   UNL     1       4.146   1.395  -1.151  0.00  0.00    +0.213 C 
ATOM      3  O   UNL     1       3.506   1.606  -2.159  0.00  0.00    -0.276 OA
ATOM      4  H   UNL     1       4.097   0.841   0.898  0.00  0.00    +0.173 HD
ENDROOT
BRANCH   1   9
ATOM      5  C   UNL     1      -0.671  -0.487   1.285  0.00  0.00    +0.041 C 
ATOM      6  C   UNL     1      -0.002   0.056   0.021  0.00  0.00    +0.112 C 
ATOM      7  C   UNL     1       1.475  -0.285   0.007  0.00  0.00    +0.263 C 
ATOM      8  O   UNL     1       1.972  -1.391   0.004  0.00  0.00    -0.271 OA
ATOM      9  N   UNL     1       2.122   0.898  -0.002  0.00  0.00    -0.137 N 
ATOM     10  C   UNL     1       1.268   1.927   0.005  0.00  0.00    +0.326 C 
ATOM     11  O   UNL     1       1.614   3.092  -0.001  0.00  0.00    -0.251 OA
ATOM     12  N   UNL     1      -0.017   1.529   0.018  0.00  0.00    -0.284 N 
ATOM     13  H   UNL     1      -0.976   2.069   0.027  0.00  0.00    +0.151 HD
BRANCH   6  14
ATOM     14  C   UNL     1      -0.692  -0.492  -1.229  0.00  0.00    +0.040 C 
BRANCH  14  15
ATOM     15  C   UNL     1      -2.117   0.059  -1.308  0.00  0.00    +0.038 C 
BRANCH  15  16
ATOM     16  C   UNL     1      -2.798  -0.480  -2.539  0.00  0.00    -0.047 A 
ATOM     17  C   UNL     1      -2.717   0.212  -3.733  0.00  0.00    +0.003 A 
ATOM     18  C   UNL     1      -3.338  -0.285  -4.864  0.00  0.00    +0.000 A 
ATOM     19  C   UNL     1      -4.047  -1.470  -4.799  0.00  0.00    +0.000 A 
ATOM     20  C   UNL     1      -4.131  -2.160  -3.604  0.00  0.00    +0.000 A 
ATOM     21  C   UNL     1      -3.507  -1.665  -2.474  0.00  0.00    +0.003 A 
ENDBRANCH  15  16
ENDBRANCH  14  15
ENDBRANCH   6  14
ENDBRANCH   1   9
BRANCH   2  22
ATOM     22  C   UNL     1       5.646   1.540  -1.167  0.00  0.00    +0.020 C 
BRANCH  22  23
ATOM     23  N   UNL     1       6.086   1.941  -2.510  0.00  0.00    +0.389 N 
ATOM     24  C   UNL     1       5.601   3.288  -2.842  0.00  0.00    -0.095 C 
ATOM     25  H   UNL     1       5.648   1.237  -3.233  0.00  0.00    -0.081 HD
BRANCH  23  26
ATOM     26  C   UNL     1       7.548   1.863  -2.631  0.00  0.00    +0.019 C 
BRANCH  26  27
ATOM     27  C   UNL     1       7.942   2.041  -4.075  0.00  0.00    +0.201 C 
ATOM     28  O   UNL     1       7.089   2.215  -4.920  0.00  0.00    -0.278 OA
ATOM     29  N   UNL     1       9.242   2.006  -4.427  0.00  0.00    -0.286 N 
ATOM     30  H   UNL     1      10.020   1.921  -3.654  0.00  0.00    +0.155 HD
BRANCH  29  31
ATOM     31  C   UNL     1       9.604   2.076  -5.778  0.00  0.00    +0.052 A 
ATOM     32  C   UNL     1       8.860   2.852  -6.657  0.00  0.00    +0.025 A 
ATOM     33  C   UNL     1       9.223   2.924  -7.988  0.00  0.00    +0.002 A 
ATOM     34  C   UNL     1      10.318   2.216  -8.448  0.00  0.00    +0.002 A 
ATOM     35  C   UNL     1      11.058   1.438  -7.577  0.00  0.00    +0.022 A 
ATOM     36  C   UNL     1      10.704   1.366  -6.242  0.00  0.00    +0.062 A 
ATOM     37 CL   UNL     1      11.633   0.389  -5.149  0.00  0.00    -0.082 Cl
ENDBRANCH  29  31
ENDBRANCH  26  27
ENDBRANCH  23  26
ENDBRANCH  22  23
ENDBRANCH   2  22
TORSDOF 9
