REMARK  Name = ZINC36587056
REMARK  12 active torsions:
REMARK  status: ('A' for Active; 'I' for Inactive)
REMARK    1  A    between atoms: C_1  and  C_2
REMARK    2  A    between atoms: C_3  and  C_4
REMARK    3  A    between atoms: C_4  and  C_6
REMARK    4  A    between atoms: C_4  and  N_15
REMARK    5  A    between atoms: N_8  and  C_9
REMARK    6  A    between atoms: N_15  and  C_26
REMARK    7  A    between atoms: C_16  and  C_18
REMARK    8  A    between atoms: C_22  and  O_25
REMARK    9  A    between atoms: C_23  and  O_24
REMARK   10  A    between atoms: C_26  and  C_27
REMARK   11  A    between atoms: C_26  and  C_28
REMARK   12  A    between atoms: C_26  and  C_29
REMARK                            x       y       z     vdW  Elec       q    Type
REMARK                         _______ _______ _______ _____ _____    ______ ____
ROOT
ATOM      1  N   UNL     1      -1.016  -2.393   0.909  0.00  0.00    -0.277 N 
ATOM      2  C   UNL     1      -1.728  -2.131   2.023  0.00  0.00    +0.252 C 
ATOM      3  O   UNL     1      -1.160  -2.006   3.092  0.00  0.00    -0.270 OA
ENDROOT
BRANCH   2   4
ATOM      4  C   UNL     1      -3.195  -1.996   1.947  0.00  0.00    +0.082 A 
ATOM      5  C   UNL     1      -3.819  -1.799   0.712  0.00  0.00    +0.017 A 
ATOM      6  C   UNL     1      -5.189  -1.674   0.645  0.00  0.00    +0.005 A 
ATOM      7  C   UNL     1      -5.956  -1.743   1.797  0.00  0.00    +0.049 A 
ATOM      8  C   UNL     1      -5.352  -1.938   3.028  0.00  0.00    +0.159 A 
ATOM      9  C   UNL     1      -3.969  -2.072   3.111  0.00  0.00    +0.171 A 
BRANCH   9  10
ATOM     10  O   UNL     1      -3.374  -2.269   4.315  0.00  0.00    -0.503 OA
ATOM     11  H   UNL     1      -3.127  -1.452   4.770  0.00  0.00    +0.292 HD
ENDBRANCH   9  10
BRANCH   8  12
ATOM     12  O   UNL     1      -6.111  -2.004   4.154  0.00  0.00    -0.503 OA
ATOM     13  H   UNL     1      -6.405  -2.898   4.378  0.00  0.00    +0.292 HD
ENDBRANCH   8  12
ENDBRANCH   2   4
BRANCH   1  14
ATOM     14  C   UNL     1      -1.622  -2.196  -0.410  0.00  0.00    +0.030 C 
ATOM     15  C   UNL     1      -0.602  -2.542  -1.497  0.00  0.00    +0.031 C 
ATOM     16  C   UNL     1      -2.845  -3.106  -0.550  0.00  0.00    +0.031 C 
ATOM     17  C   UNL     1      -2.053  -0.736  -0.561  0.00  0.00    +0.031 C 
ENDBRANCH   1  14
BRANCH   1  18
ATOM     18  C   UNL     1       0.363  -2.874   1.017  0.00  0.00    +0.186 C 
BRANCH  18  19
ATOM     19  C   UNL     1       0.451  -4.275   0.468  0.00  0.00    +0.238 C 
ATOM     20  O   UNL     1      -0.562  -4.886   0.199  0.00  0.00    -0.273 OA
ATOM     21  N   UNL     1       1.655  -4.850   0.277  0.00  0.00    -0.311 N 
ATOM     22  H   UNL     1       2.465  -4.362   0.492  0.00  0.00    +0.149 HD
BRANCH  21  23
ATOM     23  C   UNL     1       1.740  -6.212  -0.257  0.00  0.00    +0.073 C 
ATOM     24  C   UNL     1       1.606  -7.217   0.889  0.00  0.00    +0.022 C 
ATOM     25  C   UNL     1       1.695  -8.639   0.332  0.00  0.00    +0.002 C 
ATOM     26  C   UNL     1       3.045  -8.832  -0.361  0.00  0.00    +0.000 C 
ATOM     27  C   UNL     1       3.179  -7.827  -1.506  0.00  0.00    +0.002 C 
ATOM     28  C   UNL     1       3.091  -6.405  -0.949  0.00  0.00    +0.022 C 
ENDBRANCH  21  23
ENDBRANCH  18  19
BRANCH  18  31
ATOM     29  C   UNL     1       1.788   0.147  -0.877  0.00  0.00    +0.035 C 
ATOM     30  C   UNL     1       0.853  -0.790  -0.156  0.00  0.00    -0.032 C 
ATOM     31  C   UNL     1       1.274  -1.969   0.229  0.00  0.00    +0.000 C 
ENDBRANCH  18  31
ENDBRANCH   1  18
TORSDOF 8
