REMARK  Name = ZINC48876399
REMARK  13 active torsions:
REMARK  status: ('A' for Active; 'I' for Inactive)
REMARK    1  A    between atoms: C_1  and  C_2
REMARK    2  A    between atoms: C_2  and  C_3
REMARK    3  A    between atoms: C_2  and  C_4
REMARK    4  A    between atoms: C_4  and  N_5
REMARK    5  A    between atoms: N_13  and  C_26
REMARK    6  A    between atoms: C_16  and  C_17
REMARK    7  A    between atoms: N_20  and  C_22
REMARK    8  A    between atoms: C_22  and  C_23
REMARK    9  A    between atoms: C_22  and  C_24
REMARK   10  A    between atoms: C_22  and  C_25
REMARK   11  A    between atoms: C_26  and  C_27
REMARK   12  A    between atoms: C_27  and  C_28
REMARK   13  A    between atoms: C_27  and  C_29
REMARK                            x       y       z     vdW  Elec       q    Type
REMARK                         _______ _______ _______ _____ _____    ______ ____
ROOT
ATOM      1  N   UNL     1      -1.444  -1.851  -0.283  0.00  0.00    -0.318 N 
ATOM      2  C   UNL     1      -1.413  -2.471  -1.520  0.00  0.00    +0.152 A 
ATOM      3  C   UNL     1      -1.329  -2.014  -2.850  0.00  0.00    +0.280 A 
ATOM      4  O   UNL     1      -1.264  -0.821  -3.088  0.00  0.00    -0.265 OA
ATOM      5  N   UNL     1      -1.322  -2.911  -3.857  0.00  0.00    -0.273 N 
ATOM      6  H   UNL     1      -1.264  -2.600  -4.774  0.00  0.00    +0.173 HD
ATOM      7  C   UNL     1      -1.393  -4.231  -3.609  0.00  0.00    +0.331 A 
ATOM      8  O   UNL     1      -1.384  -5.010  -4.543  0.00  0.00    -0.246 OA
ATOM      9  N   UNL     1      -1.474  -4.710  -2.354  0.00  0.00    -0.276 N 
ATOM     10  C   UNL     1      -1.486  -3.839  -1.276  0.00  0.00    +0.169 A 
ATOM     11  N   UNL     1      -1.557  -4.010   0.043  0.00  0.00    -0.209 NA
ATOM     12  C   UNL     1      -1.528  -2.839   0.650  0.00  0.00    +0.147 A 
ENDROOT
BRANCH  12  13
ATOM     13  C   UNL     1      -1.582  -2.632   2.111  0.00  0.00    +0.055 A 
ATOM     14  C   UNL     1      -1.222  -1.456   2.804  0.00  0.00    +0.146 A 
ATOM     15  N   UNL     1      -1.408  -1.665   4.080  0.00  0.00    -0.178 NA
ATOM     16  N   UNL     1      -1.890  -2.966   4.260  0.00  0.00    -0.265 N 
ATOM     17  C   UNL     1      -1.999  -3.549   3.052  0.00  0.00    +0.120 A 
BRANCH  16  18
ATOM     18  C   UNL     1      -2.224  -3.586   5.544  0.00  0.00    +0.055 C 
ATOM     19  C   UNL     1      -1.129  -4.583   5.929  0.00  0.00    +0.036 C 
ATOM     20  C   UNL     1      -2.328  -2.504   6.621  0.00  0.00    +0.036 C 
ATOM     21  C   UNL     1      -3.562  -4.318   5.425  0.00  0.00    +0.036 C 
ENDBRANCH  16  18
ENDBRANCH  12  13
BRANCH   1  22
ATOM     22  C   UNL     1      -1.391  -0.409  -0.027  0.00  0.00    +0.127 C 
BRANCH  22  24
ATOM     23  C   UNL     1      -2.751   1.609   0.539  0.00  0.00    +0.009 C 
ATOM     24  C   UNL     1      -2.811   0.129   0.155  0.00  0.00    +0.003 C 
ATOM     25  C   UNL     1      -3.587  -0.026  -1.155  0.00  0.00    +0.009 C 
ENDBRANCH  22  24
ENDBRANCH   1  22
BRANCH   9  26
ATOM     26  C   UNL     1      -1.549  -6.156  -2.127  0.00  0.00    +0.131 C 
BRANCH  26  27
ATOM     27  C   UNL     1      -0.136  -6.723  -1.980  0.00  0.00    +0.003 C 
ATOM     28  C   UNL     1      -0.217  -8.208  -1.619  0.00  0.00    +0.009 C 
ATOM     29  C   UNL     1       0.620  -6.560  -3.300  0.00  0.00    +0.009 C 
ENDBRANCH  26  27
ENDBRANCH   9  26
TORSDOF 6
