REMARK  Name = ZINC52911724
REMARK  5 active torsions:
REMARK  status: ('A' for Active; 'I' for Inactive)
REMARK    1  A    between atoms: C_3  and  N_23
REMARK    2  A    between atoms: C_4  and  N_8
REMARK    3  A    between atoms: C_9  and  C_11
REMARK    4  A    between atoms: C_11  and  S_12
REMARK    5  A    between atoms: S_12  and  C_13
REMARK                            x       y       z     vdW  Elec       q    Type
REMARK                         _______ _______ _______ _____ _____    ______ ____
ROOT
ATOM      1  N   UNL     1       3.565  -0.641  -0.023  0.00  0.00    -0.283 N 
ATOM      2  C   UNL     1       3.558  -1.986  -0.113  0.00  0.00    +0.228 C 
ATOM      3  O   UNL     1       2.511  -2.577  -0.276  0.00  0.00    -0.275 OA
ATOM      4  H   UNL     1       4.408  -0.163   0.030  0.00  0.00    +0.155 HD
ENDROOT
BRANCH   1   8
ATOM      5  C   UNL     1      -0.030   1.465   0.025  0.00  0.00    +0.022 A 
ATOM      6  C   UNL     1       1.079   2.006  -0.599  0.00  0.00    +0.036 A 
ATOM      7  C   UNL     1       2.272   1.311  -0.616  0.00  0.00    +0.147 A 
ATOM      8  C   UNL     1       2.358   0.066  -0.006  0.00  0.00    +0.065 A 
ATOM      9  C   UNL     1       1.243  -0.476   0.619  0.00  0.00    +0.045 A 
ATOM     10  C   UNL     1       0.051   0.225   0.633  0.00  0.00    +0.043 A 
ATOM     11 CL   UNL     1      -1.343  -0.452   1.415  0.00  0.00    -0.083 Cl
BRANCH   7  12
ATOM     12  N   UNL     1       3.458   1.892  -1.285  0.00  0.00    +0.058 N 
ATOM     13  O   UNL     1       3.361   2.932  -1.892  0.00  0.00    -0.126 OA
ATOM     14  O   UNL     1       4.524   1.325  -1.223  0.00  0.00    -0.126 OA
ENDBRANCH   7  12
ENDBRANCH   1   8
BRANCH   2  15
ATOM     15  C   UNL     1       4.849  -2.755  -0.012  0.00  0.00    +0.172 C 
BRANCH  15  16
ATOM     16  S   UNL     1       4.510  -4.530  -0.170  0.00  0.00    -0.088 S 
BRANCH  16  17
ATOM     17  C   UNL     1       6.098  -5.281  -0.032  0.00  0.00    +0.160 A 
ATOM     18  N   UNL     1       7.277  -4.718   0.150  0.00  0.00    -0.133 NA
ATOM     19  N   UNL     1       8.405  -5.501   0.231  0.00  0.00    -0.125 NA
ATOM     20  C   UNL     1       8.303  -6.811   0.125  0.00  0.00    +0.185 A 
ATOM     21  S   UNL     1       6.541  -7.011  -0.095  0.00  0.00    -0.024 S 
ATOM     22  N   UNL     1       9.299  -7.779   0.176  0.00  0.00    -0.308 N 
ATOM     23  C   UNL     1       9.093  -9.229   0.041  0.00  0.00    +0.107 C 
ATOM     24  C   UNL     1      10.473  -9.903   0.189  0.00  0.00    +0.020 C 
ATOM     25  C   UNL     1      11.298  -8.841   0.963  0.00  0.00    +0.020 C 
ATOM     26  C   UNL     1      10.738  -7.522   0.369  0.00  0.00    +0.107 C 
ENDBRANCH  16  17
ENDBRANCH  15  16
ENDBRANCH   2  15
TORSDOF 5
