REMARK  Name = ZINC09046705
REMARK  12 active torsions:
REMARK  status: ('A' for Active; 'I' for Inactive)
REMARK    1  A    between atoms: C_1  and  C_2
REMARK    2  A    between atoms: C_5  and  C_7
REMARK    3  A    between atoms: C_10  and  C_11
REMARK    4  A    between atoms: C_10  and  O_23
REMARK    5  A    between atoms: C_14  and  S_17
REMARK    6  A    between atoms: S_17  and  N_20
REMARK    7  A    between atoms: N_20  and  C_21
REMARK    8  A    between atoms: N_20  and  C_22
REMARK    9  A    between atoms: N_28  and  C_29
REMARK   10  A    between atoms: C_29  and  C_30
REMARK   11  A    between atoms: C_30  and  C_31
REMARK   12  A    between atoms: C_31  and  N_67
REMARK                            x       y       z     vdW  Elec       q    Type
REMARK                         _______ _______ _______ _____ _____    ______ ____
ROOT
ATOM      1  C   UNL     1      -4.392   2.322   7.795  0.00  0.00    +0.180 C 
ATOM      2  C   UNL     1      -3.827   2.210   6.398  0.00  0.00    +0.074 C 
ATOM      3  C   UNL     1      -2.984   3.104   5.771  0.00  0.00    +0.133 C 
ATOM      4  C   UNL     1      -4.338   1.016   5.865  0.00  0.00    +0.249 C 
ATOM      5  O   UNL     1      -4.115   0.577   4.751  0.00  0.00    -0.282 OA
ATOM      6  C   UNL     1      -5.198   0.377   6.899  0.00  0.00    +0.288 C 
ATOM      7  O   UNL     1      -5.790  -0.673   6.759  0.00  0.00    -0.266 OA
ATOM      8  N   UNL     1      -5.228   1.137   8.007  0.00  0.00    -0.281 N 
ENDROOT
BRANCH   1  13
ATOM      9  C   UNL     1      -8.270   5.524   7.409  0.00  0.00    +0.086 C 
ATOM     10  C   UNL     1      -6.913   4.964   7.748  0.00  0.00    +0.102 A 
ATOM     11  C   UNL     1      -5.926   5.621   8.384  0.00  0.00    +0.045 A 
ATOM     12  C   UNL     1      -4.841   4.722   8.497  0.00  0.00    +0.047 A 
ATOM     13  C   UNL     1      -5.226   3.571   7.916  0.00  0.00    +0.130 A 
ATOM     14  O   UNL     1      -6.483   3.722   7.467  0.00  0.00    -0.463 OA
ENDBRANCH   1  13
BRANCH   3  15
ATOM     15  C   UNL     1      -2.416   2.779   4.451  0.00  0.00    +0.017 A 
ATOM     16  C   UNL     1      -2.518   3.693   3.397  0.00  0.00    +0.013 A 
ATOM     17  C   UNL     1      -1.983   3.381   2.165  0.00  0.00    +0.029 A 
ATOM     18  C   UNL     1      -1.346   2.168   1.970  0.00  0.00    +0.105 A 
ATOM     19  C   UNL     1      -1.246   1.256   3.006  0.00  0.00    +0.029 A 
ATOM     20  C   UNL     1      -1.771   1.555   4.245  0.00  0.00    +0.013 A 
BRANCH  18  21
ATOM     21  S   UNL     1      -0.665   1.779   0.392  0.00  0.00    +0.060 S 
ATOM     22  O   UNL     1      -1.372   2.564  -0.560  0.00  0.00    -0.153 OA
ATOM     23  O   UNL     1      -0.603   0.362   0.314  0.00  0.00    -0.153 OA
BRANCH  21  24
ATOM     24  N   UNL     1       0.899   2.323   0.386  0.00  0.00    -0.183 NA
ATOM     25  C   UNL     1       1.982   1.442   0.828  0.00  0.00    +0.131 C 
ATOM     26  C   UNL     1       1.199   3.684  -0.068  0.00  0.00    +0.131 C 
ENDBRANCH  21  24
ENDBRANCH  18  21
ENDBRANCH   3  15
BRANCH   3  27
ATOM     27  O   UNL     1      -2.680   4.277   6.366  0.00  0.00    -0.506 OA
ATOM     28  H   UNL     1      -2.063   4.799   5.778  0.00  0.00    +0.292 HD
ENDBRANCH   3  27
BRANCH   8  29
ATOM     29  C   UNL     1      -5.975   0.830   9.229  0.00  0.00    +0.107 C 
BRANCH  29  30
ATOM     30  C   UNL     1      -7.377   1.435   9.135  0.00  0.00    +0.000 C 
BRANCH  30  31
ATOM     31  C   UNL     1      -8.158   1.114  10.411  0.00  0.00    -0.077 C 
BRANCH  31  37
ATOM     32  C   UNL     1      -9.444   3.164  10.315  0.00  0.00    -0.050 C 
ATOM     33  C   UNL     1     -10.859   3.727  10.161  0.00  0.00    +0.141 C 
ATOM     34  O   UNL     1     -11.685   3.223  11.214  0.00  0.00    -0.383 OA
ATOM     35  C   UNL     1     -11.766   1.795  11.248  0.00  0.00    +0.141 C 
ATOM     36  C   UNL     1     -10.360   1.213  11.414  0.00  0.00    -0.050 C 
ATOM     37  N   UNL     1      -9.516   1.688  10.298  0.00  0.00    +0.383 N 
ATOM     38  H   UNL     1      -9.934   1.384   9.411  0.00  0.00    -0.082 HD
ENDBRANCH  31  37
ENDBRANCH  30  31
ENDBRANCH  29  30
ENDBRANCH   8  29
TORSDOF 9
