REMARK  Name = ZINC22635135
REMARK  9 active torsions:
REMARK  status: ('A' for Active; 'I' for Inactive)
REMARK    1  A    between atoms: C_1  and  C_2
REMARK    2  A    between atoms: C_2  and  C_3
REMARK    3  A    between atoms: C_2  and  N_4
REMARK    4  A    between atoms: C_12  and  O_27
REMARK    5  A    between atoms: C_14  and  C_17
REMARK    6  A    between atoms: C_20  and  O_25
REMARK    7  A    between atoms: C_22  and  O_23
REMARK    8  A    between atoms: O_23  and  C_24
REMARK    9  A    between atoms: O_25  and  C_26
REMARK                            x       y       z     vdW  Elec       q    Type
REMARK                         _______ _______ _______ _____ _____    ______ ____
ROOT
ATOM      1  N   UNL     1       0.002  -0.004   0.002  0.00  0.00    +0.384 N 
ATOM      2  C   UNL     1      -1.356  -0.550   0.132  0.00  0.00    -0.073 C 
ATOM      3  C   UNL     1      -1.367  -2.032  -0.252  0.00  0.00    +0.018 C 
ATOM      4  C   UNL     1      -0.272  -2.737   0.543  0.00  0.00    -0.027 A 
ATOM      5  C   UNL     1       0.717  -2.013   1.119  0.00  0.00    -0.021 A 
ATOM      6  S   UNL     1       1.746  -3.210   1.924  0.00  0.00    -0.080 S 
ATOM      7  C   UNL     1       0.883  -4.628   1.505  0.00  0.00    +0.080 A 
ATOM      8  C   UNL     1      -0.198  -4.172   0.739  0.00  0.00    +0.067 A 
ATOM      9  C   UNL     1      -1.149  -5.194   0.231  0.00  0.00    +0.220 C 
ATOM     10  N   UNL     1      -0.808  -6.449   0.340  0.00  0.00    -0.223 NA
ATOM     11  C   UNL     1       0.479  -6.919   0.838  0.00  0.00    +0.227 C 
ATOM     12  N   UNL     1       1.080  -5.959   1.782  0.00  0.00    -0.313 N 
ATOM     13  C   UNL     1       0.878  -0.527   1.068  0.00  0.00    -0.035 C 
ATOM     14  H   UNL     1       1.649  -6.324   2.650  0.00  0.00    +0.149 HD
ATOM     15  H   UNL     1       0.407  -0.327  -0.968  0.00  0.00    -0.081 HD
ENDROOT
BRANCH  11  16
ATOM     16  C   UNL     1       1.415  -7.116  -0.327  0.00  0.00    +0.036 A 
ATOM     17  C   UNL     1       2.768  -6.883  -0.172  0.00  0.00    +0.014 A 
ATOM     18  C   UNL     1       3.629  -7.068  -1.237  0.00  0.00    +0.046 A 
ATOM     19  C   UNL     1       3.135  -7.477  -2.468  0.00  0.00    +0.124 A 
ATOM     20  C   UNL     1       1.777  -7.705  -2.627  0.00  0.00    +0.091 A 
ATOM     21  C   UNL     1       0.916  -7.524  -1.556  0.00  0.00    +0.130 A 
BRANCH  21  22
ATOM     22  O   UNL     1      -0.416  -7.747  -1.709  0.00  0.00    -0.495 OA
ATOM     23  C   UNL     1      -0.859  -8.166  -3.001  0.00  0.00    +0.277 C 
ENDBRANCH  21  22
BRANCH  19  24
ATOM     24  O   UNL     1       3.982  -7.653  -3.516  0.00  0.00    -0.495 OA
ATOM     25  C   UNL     1       5.368  -7.399  -3.279  0.00  0.00    +0.277 C 
ENDBRANCH  19  24
ENDBRANCH  11  16
BRANCH   1  27
ATOM     26  C   UNL     1       1.417   1.994  -0.001  0.00  0.00    -0.014 C 
ATOM     27  C   UNL     1      -0.018   1.465   0.010  0.00  0.00    -0.074 C 
ATOM     28  C   UNL     1      -0.758   1.972  -1.229  0.00  0.00    -0.014 C 
ENDBRANCH   1  27
BRANCH   9  29
ATOM     29  O   UNL     1      -2.329  -4.836  -0.326  0.00  0.00    -0.492 OA
ATOM     30  H   UNL     1      -3.019  -5.609  -0.696  0.00  0.00    +0.294 HD
ENDBRANCH   9  29
TORSDOF 5
