REMARK  Name = ZINC09452289
REMARK  5 active torsions:
REMARK  status: ('A' for Active; 'I' for Inactive)
REMARK    1  A    between atoms: C_6  and  C_7
REMARK    2  A    between atoms: C_14  and  O_18
REMARK    3  A    between atoms: O_18  and  C_19
REMARK    4  A    between atoms: C_19  and  C_20
REMARK    5  A    between atoms: C_25  and  C_28
REMARK                            x       y       z     vdW  Elec       q    Type
REMARK                         _______ _______ _______ _____ _____    ______ ____
ROOT
ATOM      1  C   UNL     1       2.473   1.079  -0.016  0.00  0.00    +0.058 C 
ATOM      2  C   UNL     1       2.498  -0.275   0.080  0.00  0.00    +0.176 C 
ATOM      3  C   UNL     1       3.699  -1.117   0.175  0.00  0.00    +0.231 C 
ATOM      4  O   UNL     1       4.863  -0.757   0.185  0.00  0.00    -0.283 OA
ATOM      5  C   UNL     1       3.179  -2.494   0.258  0.00  0.00    +0.068 A 
ATOM      6  C   UNL     1       3.795  -3.742   0.367  0.00  0.00    +0.019 A 
ATOM      7  C   UNL     1       3.033  -4.875   0.418  0.00  0.00    +0.046 A 
ATOM      8  C   UNL     1       1.645  -4.787   0.361  0.00  0.00    +0.125 A 
ATOM      9  C   UNL     1       1.020  -3.555   0.255  0.00  0.00    +0.092 A 
ATOM     10  C   UNL     1       1.780  -2.393   0.201  0.00  0.00    +0.143 A 
ATOM     11  O   UNL     1       1.421  -1.095   0.098  0.00  0.00    -0.451 OA
ENDROOT
BRANCH   1  17
ATOM     12  C   UNL     1       1.166   3.193   0.036  0.00  0.00    +0.012 A 
ATOM     13  C   UNL     1      -0.039   3.859   0.062  0.00  0.00    +0.050 A 
ATOM     14  C   UNL     1      -1.232   3.149   0.046  0.00  0.00    +0.166 A 
ATOM     15  C   UNL     1      -1.216   1.753   0.015  0.00  0.00    +0.167 A 
ATOM     16  C   UNL     1      -0.013   1.077  -0.005  0.00  0.00    +0.057 A 
ATOM     17  C   UNL     1       1.190   1.793   0.005  0.00  0.00    -0.018 A 
ATOM     18  O   UNL     1      -2.505   1.303   0.010  0.00  0.00    -0.453 OA
ATOM     19  C   UNL     1      -3.302   2.418   0.452  0.00  0.00    +0.466 C 
ATOM     20  O   UNL     1      -2.530   3.568   0.060  0.00  0.00    -0.453 OA
ENDBRANCH   1  17
BRANCH   8  21
ATOM     21  O   UNL     1       0.897  -5.919   0.412  0.00  0.00    -0.483 OA
BRANCH  21  22
ATOM     22  C   UNL     1       1.601  -7.157   0.524  0.00  0.00    +0.324 C 
BRANCH  22  23
ATOM     23  C   UNL     1       0.613  -8.295   0.566  0.00  0.00    +0.253 C 
ATOM     24  O   UNL     1      -0.577  -8.067   0.507  0.00  0.00    -0.272 OA
ATOM     25  N   UNL     1       1.052  -9.565   0.670  0.00  0.00    -0.299 N 
ATOM     26  C   UNL     1       2.490  -9.857   0.736  0.00  0.00    +0.108 C 
ATOM     27  C   UNL     1       2.841 -10.876  -0.346  0.00  0.00    +0.034 C 
ATOM     28  C   UNL     1       1.942 -12.105  -0.198  0.00  0.00    +0.105 C 
ATOM     29  C   UNL     1       0.479 -11.694  -0.375  0.00  0.00    +0.034 C 
ATOM     30  C   UNL     1       0.101 -10.684   0.713  0.00  0.00    +0.108 C 
BRANCH  28  31
ATOM     31  C   UNL     1       2.308 -13.125  -1.245  0.00  0.00    +0.359 C 
ATOM     32  O   UNL     1       1.484 -13.485  -2.051  0.00  0.00    -0.246 OA
ATOM     33  O   UNL     1       3.550 -13.632  -1.283  0.00  0.00    -0.246 OA
ENDBRANCH  28  31
ENDBRANCH  22  23
ENDBRANCH  21  22
ENDBRANCH   8  21
TORSDOF 5
