REMARK  Name = ZINC13502489
REMARK  14 active torsions:
REMARK  status: ('A' for Active; 'I' for Inactive)
REMARK    1  A    between atoms: C_1  and  C_2
REMARK    2  A    between atoms: C_2  and  C_3
REMARK    3  A    between atoms: C_2  and  C_4
REMARK    4  A    between atoms: C_7  and  C_10
REMARK    5  A    between atoms: C_10  and  C_12
REMARK    6  A    between atoms: C_10  and  N_21
REMARK    7  A    between atoms: N_14  and  C_15
REMARK    8  A    between atoms: C_15  and  C_16
REMARK    9  A    between atoms: N_21  and  C_22
REMARK   10  A    between atoms: C_22  and  C_23
REMARK   11  A    between atoms: C_23  and  O_24
REMARK   12  A    between atoms: O_24  and  C_25
REMARK   13  A    between atoms: C_26  and  C_28
REMARK   14  A    between atoms: C_28  and  N_29
REMARK                            x       y       z     vdW  Elec       q    Type
REMARK                         _______ _______ _______ _____ _____    ______ ____
ROOT
ATOM      1  C   UNL     1      -2.448   3.180   4.695  0.00  0.00    +0.192 C 
ENDROOT
BRANCH   1   5
ATOM      2  C   UNL     1      -1.269   6.672   2.535  0.00  0.00    -0.045 A 
ATOM      3  C   UNL     1      -1.502   6.746   3.896  0.00  0.00    +0.004 A 
ATOM      4  C   UNL     1      -1.888   5.617   4.594  0.00  0.00    +0.006 A 
ATOM      5  C   UNL     1      -2.032   4.412   3.933  0.00  0.00    -0.018 A 
ATOM      6  C   UNL     1      -1.794   4.336   2.573  0.00  0.00    +0.006 A 
ATOM      7  C   UNL     1      -1.412   5.466   1.875  0.00  0.00    +0.004 A 
BRANCH   2   9
ATOM      8  C   UNL     1       0.459   8.441   2.350  0.00  0.00    +0.012 C 
ATOM      9  C   UNL     1      -0.853   7.904   1.774  0.00  0.00    +0.013 C 
ATOM     10  C   UNL     1      -1.940   8.973   1.899  0.00  0.00    +0.012 C 
ENDBRANCH   2   9
ENDBRANCH   1   5
BRANCH   1  11
ATOM     11  C   UNL     1      -3.951   3.069   4.688  0.00  0.00    +0.238 C 
ATOM     12  O   UNL     1      -4.621   3.872   5.300  0.00  0.00    -0.273 OA
ATOM     13  N   UNL     1      -4.550   2.076   4.000  0.00  0.00    -0.306 N 
ATOM     14  H   UNL     1      -4.014   1.434   3.510  0.00  0.00    +0.149 HD
BRANCH  13  15
ATOM     15  C   UNL     1      -6.011   1.968   3.993  0.00  0.00    +0.178 C 
BRANCH  15  16
ATOM     16  C   UNL     1      -6.423   0.784   3.158  0.00  0.00    +0.122 A 
ATOM     17  C   UNL     1      -6.595  -0.473   3.605  0.00  0.00    +0.046 A 
ATOM     18  C   UNL     1      -6.979  -1.256   2.492  0.00  0.00    +0.041 A 
ATOM     19  C   UNL     1      -7.018  -0.430   1.431  0.00  0.00    +0.195 A 
ATOM     20  O   UNL     1      -6.686   0.805   1.841  0.00  0.00    -0.466 OA
ENDBRANCH  15  16
ENDBRANCH  13  15
ENDBRANCH   1  11
BRANCH   1  21
ATOM     21  N   UNL     1      -1.972   3.276   6.077  0.00  0.00    -0.282 N 
ATOM     22  C   UNL     1      -0.878   2.591   6.462  0.00  0.00    +0.238 C 
ATOM     23  O   UNL     1      -0.287   1.894   5.665  0.00  0.00    -0.274 OA
BRANCH  21  24
ATOM     24  C   UNL     1      -2.686   4.118   7.040  0.00  0.00    +0.137 C 
BRANCH  24  25
ATOM     25  C   UNL     1      -3.650   3.254   7.856  0.00  0.00    +0.178 C 
BRANCH  25  26
ATOM     26  O   UNL     1      -2.905   2.357   8.681  0.00  0.00    -0.381 OA
ATOM     27  C   UNL     1      -3.715   1.500   9.488  0.00  0.00    +0.194 C 
ENDBRANCH  25  26
ENDBRANCH  24  25
ENDBRANCH  21  24
BRANCH  22  28
ATOM     28  C   UNL     1      -0.388   2.690   7.884  0.00  0.00    +0.241 C 
BRANCH  28  29
ATOM     29  N   UNL     1       0.807   1.858   8.048  0.00  0.00    -0.235 N 
ATOM     30  C   UNL     1       0.844   0.536   8.424  0.00  0.00    +0.090 A 
ATOM     31  C   UNL     1      -0.129  -0.406   8.739  0.00  0.00    +0.029 A 
ATOM     32  C   UNL     1       0.241  -1.678   9.075  0.00  0.00    +0.002 A 
ATOM     33  C   UNL     1       1.581  -2.041   9.099  0.00  0.00    +0.002 A 
ATOM     34  C   UNL     1       2.554  -1.137   8.788  0.00  0.00    +0.032 A 
ATOM     35  C   UNL     1       2.202   0.174   8.440  0.00  0.00    +0.113 A 
ATOM     36  N   UNL     1       2.920   1.260   8.093  0.00  0.00    -0.129 NA
ATOM     37  N   UNL     1       2.139   2.256   7.859  0.00  0.00    -0.064 NA
ENDBRANCH  28  29
ENDBRANCH  22  28
ENDBRANCH   1  21
TORSDOF 11
