REMARK  Name = ZINC13041925
REMARK  14 active torsions:
REMARK  status: ('A' for Active; 'I' for Inactive)
REMARK    1  A    between atoms: C_1  and  C_2
REMARK    2  A    between atoms: C_2  and  C_3
REMARK    3  A    between atoms: C_3  and  C_5
REMARK    4  A    between atoms: C_3  and  N_6
REMARK    5  A    between atoms: N_6  and  C_7
REMARK    6  A    between atoms: C_15  and  C_17
REMARK    7  A    between atoms: C_17  and  S_18
REMARK    8  A    between atoms: S_18  and  C_19
REMARK    9  A    between atoms: C_22  and  C_25
REMARK   10  A    between atoms: N_23  and  N_24
REMARK   11  A    between atoms: C_28  and  C_31
REMARK   12  A    between atoms: C_31  and  C_32
REMARK   13  A    between atoms: C_31  and  C_33
REMARK   14  A    between atoms: C_31  and  C_34
REMARK                            x       y       z     vdW  Elec       q    Type
REMARK                         _______ _______ _______ _____ _____    ______ ____
ROOT
ATOM      1  C   UNL     1       0.594  -4.014  -4.365  0.00  0.00    +0.209 A 
ATOM      2  N   UNL     1       0.969  -3.404  -5.468  0.00  0.00    -0.121 NA
ATOM      3  N   UNL     1       1.339  -4.266  -6.346  0.00  0.00    -0.127 NA
ATOM      4  C   UNL     1       1.224  -5.479  -5.858  0.00  0.00    +0.182 A 
ATOM      5  N   UNL     1       0.748  -5.355  -4.573  0.00  0.00    -0.224 N 
ENDROOT
BRANCH   4   6
ATOM      6  C   UNL     1       1.548  -6.741  -6.557  0.00  0.00    +0.021 A 
ATOM      7  C   UNL     1       1.098  -7.960  -6.047  0.00  0.00    +0.012 A 
ATOM      8  C   UNL     1       1.399  -9.134  -6.707  0.00  0.00    +0.005 A 
ATOM      9  C   UNL     1       2.157  -9.105  -7.865  0.00  0.00    -0.042 A 
ATOM     10  C   UNL     1       2.611  -7.901  -8.372  0.00  0.00    +0.005 A 
ATOM     11  C   UNL     1       2.312  -6.719  -7.725  0.00  0.00    +0.012 A 
BRANCH   9  12
ATOM     12  C   UNL     1       2.488 -10.391  -8.577  0.00  0.00    -0.013 C 
ATOM     13  C   UNL     1       4.007 -10.563  -8.639  0.00  0.00    +0.015 C 
ATOM     14  C   UNL     1       1.872 -11.568  -7.817  0.00  0.00    +0.015 C 
ATOM     15  C   UNL     1       1.921 -10.348  -9.997  0.00  0.00    +0.015 C 
ENDBRANCH   9  12
ENDBRANCH   4   6
BRANCH   5  16
ATOM     16  N   UNL     1       0.483  -6.363  -3.690  0.00  0.00    -0.295 N 
ATOM     17  H   UNL     1      -0.470  -6.681  -3.780  0.00  0.00    +0.163 HD
ATOM     18  H   UNL     1       1.132  -7.126  -3.807  0.00  0.00    +0.163 HD
ENDBRANCH   5  16
BRANCH   1  19
ATOM     19  S   UNL     1       0.009  -3.245  -2.892  0.00  0.00    -0.075 S 
BRANCH  19  20
ATOM     20  C   UNL     1       0.099  -1.506  -3.388  0.00  0.00    +0.173 C 
BRANCH  20  22
ATOM     21  N   UNL     1       0.145   0.602  -2.095  0.00  0.00    -0.293 N 
ATOM     22  C   UNL     1      -0.367  -0.635  -2.250  0.00  0.00    +0.226 C 
ATOM     23  O   UNL     1      -1.204  -1.046  -1.475  0.00  0.00    -0.275 OA
BRANCH  21  24
ATOM     24  C   UNL     1       1.033   1.161  -3.117  0.00  0.00    +0.099 C 
ATOM     25  C   UNL     1       0.441   0.907  -4.514  0.00  0.00    +0.046 C 
ATOM     26  C   UNL     1       1.506   1.199  -5.598  0.00  0.00    +0.168 C 
ATOM     27  S   UNL     1       3.084   0.857  -4.719  0.00  0.00    -0.029 S 
ATOM     28  O   UNL     1       3.841   2.057  -4.645  0.00  0.00    -0.174 OA
ATOM     29  O   UNL     1       3.677  -0.311  -5.269  0.00  0.00    -0.174 OA
ATOM     30  C   UNL     1       2.421   0.462  -3.046  0.00  0.00    +0.188 C 
ENDBRANCH  21  24
BRANCH  21  31
ATOM     31  C   UNL     1      -0.185   1.387  -0.903  0.00  0.00    +0.073 C 
ATOM     32  C   UNL     1       0.199   0.599   0.350  0.00  0.00    +0.028 C 
BRANCH  31  34
ATOM     33  C   UNL     1      -2.045   2.600  -2.049  0.00  0.00    +0.005 C 
ATOM     34  C   UNL     1      -1.688   1.676  -0.883  0.00  0.00    +0.019 C 
ENDBRANCH  31  34
ENDBRANCH  21  31
ENDBRANCH  20  22
ENDBRANCH  19  20
ENDBRANCH   1  19
TORSDOF 9
