REMARK  Name = ZINC02197539
REMARK  12 active torsions:
REMARK  status: ('A' for Active; 'I' for Inactive)
REMARK    1  A    between atoms: C_1  and  C_2
REMARK    2  A    between atoms: C_5  and  N_8
REMARK    3  A    between atoms: N_8  and  C_9
REMARK    4  A    between atoms: N_8  and  S_23
REMARK    5  A    between atoms: C_9  and  C_10
REMARK    6  A    between atoms: C_10  and  C_12
REMARK    7  A    between atoms: C_10  and  O_22
REMARK    8  A    between atoms: C_12  and  N_13
REMARK    9  A    between atoms: C_16  and  C_20
REMARK   10  A    between atoms: C_16  and  C_21
REMARK   11  A    between atoms: S_23  and  C_26
REMARK   12  A    between atoms: C_29  and  N_32
REMARK                            x       y       z     vdW  Elec       q    Type
REMARK                         _______ _______ _______ _____ _____    ______ ____
ROOT
ATOM      1  N   UNL     1       0.096  -4.454   0.109  0.00  0.00    -0.200 N 
ENDROOT
BRANCH   1   6
ATOM      2  C   UNL     1       1.128   1.082   0.772  0.00  0.00    +0.044 C 
ATOM      3  C   UNL     1       0.854  -0.389   0.596  0.00  0.00    -0.050 A 
ATOM      4  C   UNL     1       0.735  -0.921  -0.675  0.00  0.00    +0.005 A 
ATOM      5  C   UNL     1       0.483  -2.269  -0.840  0.00  0.00    +0.025 A 
ATOM      6  C   UNL     1       0.350  -3.091   0.272  0.00  0.00    +0.051 A 
ATOM      7  C   UNL     1       0.471  -2.553   1.547  0.00  0.00    +0.025 A 
ATOM      8  C   UNL     1       0.728  -1.205   1.705  0.00  0.00    +0.005 A 
ENDBRANCH   1   6
BRANCH   1   9
ATOM      9  S   UNL     1      -0.654  -4.998  -1.264  0.00  0.00    +0.075 S 
ATOM     10  O   UNL     1      -1.267  -6.236  -0.929  0.00  0.00    -0.150 OA
ATOM     11  O   UNL     1      -1.390  -3.901  -1.786  0.00  0.00    -0.150 OA
BRANCH   9  12
ATOM     12  C   UNL     1       0.608  -5.362  -2.438  0.00  0.00    +0.109 A 
ATOM     13  C   UNL     1       0.954  -4.426  -3.394  0.00  0.00    +0.031 A 
ATOM     14  C   UNL     1       1.945  -4.712  -4.315  0.00  0.00    +0.034 A 
ATOM     15  C   UNL     1       2.590  -5.934  -4.279  0.00  0.00    +0.126 A 
ATOM     16  C   UNL     1       2.244  -6.870  -3.323  0.00  0.00    +0.034 A 
ATOM     17  C   UNL     1       1.257  -6.583  -2.399  0.00  0.00    +0.031 A 
BRANCH  15  18
ATOM     18  N   UNL     1       3.649  -6.240  -5.266  0.00  0.00    +0.056 N 
ATOM     19  O   UNL     1       3.951  -5.422  -6.103  0.00  0.00    -0.126 OA
ATOM     20  O   UNL     1       4.213  -7.309  -5.235  0.00  0.00    -0.126 OA
ENDBRANCH  15  18
ENDBRANCH   9  12
ENDBRANCH   1   9
BRANCH   1  21
ATOM     21  C   UNL     1       0.492  -5.404   1.152  0.00  0.00    +0.164 C 
BRANCH  21  22
ATOM     22  C   UNL     1      -0.603  -5.476   2.218  0.00  0.00    +0.151 C 
BRANCH  22  23
ATOM     23  O   UNL     1      -1.792  -6.021   1.643  0.00  0.00    -0.389 OA
ATOM     24  H   UNL     1      -1.683  -6.913   1.285  0.00  0.00    +0.210 HD
ENDBRANCH  22  23
BRANCH  22  25
ATOM     25  C   UNL     1      -0.136  -6.371   3.368  0.00  0.00    +0.151 C 
BRANCH  25  26
ATOM     26  N   UNL     1      -1.185  -6.441   4.389  0.00  0.00    -0.222 N 
ATOM     27  C   UNL     1      -1.290  -5.586   5.426  0.00  0.00    +0.246 C 
ATOM     28  O   UNL     1      -0.563  -4.650   5.680  0.00  0.00    -0.273 OA
ATOM     29  C   UNL     1      -2.508  -6.038   6.207  0.00  0.00    +0.107 C 
ATOM     30  N   UNL     1      -2.992  -7.204   5.449  0.00  0.00    -0.285 N 
ATOM     31  C   UNL     1      -2.159  -7.357   4.404  0.00  0.00    +0.309 C 
ATOM     32  O   UNL     1      -2.276  -8.232   3.569  0.00  0.00    -0.252 OA
ATOM     33  C   UNL     1      -2.114  -6.445   7.628  0.00  0.00    +0.041 C 
ATOM     34  C   UNL     1      -3.568  -4.936   6.236  0.00  0.00    +0.041 C 
ATOM     35  H   UNL     1      -3.764  -7.753   5.660  0.00  0.00    +0.151 HD
ENDBRANCH  25  26
ENDBRANCH  22  25
ENDBRANCH  21  22
ENDBRANCH   1  21
TORSDOF 9
