REMARK  Name = ZINC20332085
REMARK  3 active torsions:
REMARK  status: ('A' for Active; 'I' for Inactive)
REMARK    1  A    between atoms: C_12  and  C_15
REMARK    2  A    between atoms: C_15  and  C_16
REMARK    3  A    between atoms: N_21  and  C_24
REMARK                            x       y       z     vdW  Elec       q    Type
REMARK                         _______ _______ _______ _____ _____    ______ ____
ROOT
ATOM      1  C   UNL     1      -0.235   1.043   0.962  0.00  0.00    +0.000 A 
ATOM      2  C   UNL     1       0.928   1.767   1.152  0.00  0.00    +0.002 A 
ATOM      3  C   UNL     1       2.157   1.149   1.054  0.00  0.00    +0.023 A 
ATOM      4  C   UNL     1       2.237  -0.211   0.763  0.00  0.00    +0.039 A 
ATOM      5  C   UNL     1       1.060  -0.929   0.574  0.00  0.00    +0.003 A 
ATOM      6  C   UNL     1      -0.165  -0.308   0.672  0.00  0.00    +0.008 A 
ATOM      7  C   UNL     1       1.483  -2.341   0.281  0.00  0.00    +0.136 C 
ATOM      8  C   UNL     1       0.973  -2.808  -1.088  0.00  0.00    +0.123 C 
ATOM      9  C   UNL     1       0.635  -4.311  -0.888  0.00  0.00    +0.108 C 
ATOM     10  C   UNL     1       1.009  -4.610   0.579  0.00  0.00    +0.076 C 
ATOM     11  N   UNL     1       0.925  -3.287   1.265  0.00  0.00    -0.295 NA
ATOM     12  C   UNL     1      -0.866  -4.357  -1.057  0.00  0.00    +0.232 C 
ATOM     13  O   UNL     1      -1.551  -5.353  -0.965  0.00  0.00    -0.274 OA
ATOM     14  N   UNL     1      -1.321  -3.127  -1.322  0.00  0.00    -0.210 N 
ATOM     15  C   UNL     1      -0.367  -2.169  -1.375  0.00  0.00    +0.233 C 
ATOM     16  O   UNL     1      -0.547  -0.993  -1.608  0.00  0.00    -0.274 OA
ATOM     17  C   UNL     1       2.986  -2.317   0.330  0.00  0.00    +0.243 C 
ATOM     18  O   UNL     1       3.731  -3.257   0.150  0.00  0.00    -0.273 OA
ATOM     19  N   UNL     1       3.343  -1.050   0.613  0.00  0.00    -0.283 N 
ATOM     20  H   UNL     1       1.471  -3.289   2.114  0.00  0.00    +0.124 HD
ATOM     21  H   UNL     1       4.263  -0.754   0.703  0.00  0.00    +0.155 HD
ENDROOT
BRANCH  14  22
ATOM     22  C   UNL     1      -2.679  -2.851  -1.536  0.00  0.00    +0.044 A 
ATOM     23  C   UNL     1      -3.587  -2.973  -0.493  0.00  0.00    +0.025 A 
ATOM     24  C   UNL     1      -4.924  -2.700  -0.706  0.00  0.00    +0.022 A 
ATOM     25  C   UNL     1      -5.359  -2.307  -1.959  0.00  0.00    +0.041 A 
ATOM     26  C   UNL     1      -4.457  -2.185  -3.001  0.00  0.00    +0.022 A 
ATOM     27  C   UNL     1      -3.118  -2.450  -2.791  0.00  0.00    +0.025 A 
ATOM     28 CL   UNL     1      -7.041  -1.965  -2.224  0.00  0.00    -0.084 Cl
ENDBRANCH  14  22
BRANCH  10  29
ATOM     29  C   UNL     1       0.001  -5.581   1.198  0.00  0.00    +0.115 C 
BRANCH  29  30
ATOM     30  C   UNL     1       0.450  -5.955   2.587  0.00  0.00    +0.212 C 
ATOM     31  O   UNL     1       1.476  -5.490   3.037  0.00  0.00    -0.276 OA
ATOM     32  N   UNL     1      -0.287  -6.804   3.328  0.00  0.00    -0.329 N 
ATOM     33  H   UNL     1      -1.108  -7.176   2.967  0.00  0.00    +0.145 HD
ATOM     34  H   UNL     1       0.002  -7.045   4.222  0.00  0.00    +0.145 HD
ENDBRANCH  29  30
ENDBRANCH  10  29
TORSDOF 3
