REMARK  Name = ZINC55703541
REMARK  8 active torsions:
REMARK  status: ('A' for Active; 'I' for Inactive)
REMARK    1  A    between atoms: C_1  and  C_2
REMARK    2  A    between atoms: C_2  and  S_3
REMARK    3  A    between atoms: S_3  and  C_4
REMARK    4  A    between atoms: C_9  and  N_10
REMARK    5  A    between atoms: C_11  and  C_13
REMARK    6  A    between atoms: C_13  and  C_15
REMARK    7  A    between atoms: C_13  and  N_16
REMARK    8  A    between atoms: C_23  and  N_27
REMARK                            x       y       z     vdW  Elec       q    Type
REMARK                         _______ _______ _______ _____ _____    ______ ____
ROOT
ATOM      1  C   UNL     1       3.381  -2.678  -5.491  0.00  0.00    +0.168 C 
ATOM      2  C   UNL     1       2.426  -1.828  -6.332  0.00  0.00    +0.038 C 
ENDROOT
BRANCH   1   3
ATOM      3  N   UNL     1       3.978  -3.719  -6.331  0.00  0.00    -0.222 N 
ATOM      4  C   UNL     1       3.278  -4.662  -6.987  0.00  0.00    +0.255 C 
ATOM      5  O   UNL     1       2.069  -4.783  -6.977  0.00  0.00    -0.270 OA
ATOM      6  C   UNL     1       4.225  -5.525  -7.723  0.00  0.00    +0.052 A 
ATOM      7  C   UNL     1       4.087  -6.630  -8.548  0.00  0.00    +0.014 A 
ATOM      8  C   UNL     1       5.214  -7.224  -9.095  0.00  0.00    +0.003 A 
ATOM      9  C   UNL     1       6.473  -6.723  -8.821  0.00  0.00    +0.033 A 
ATOM     10  C   UNL     1       6.626  -5.619  -7.997  0.00  0.00    +0.139 A 
ATOM     11  C   UNL     1       5.509  -5.014  -7.444  0.00  0.00    +0.080 A 
ATOM     12  C   UNL     1       5.298  -3.854  -6.553  0.00  0.00    +0.257 C 
ATOM     13  O   UNL     1       6.170  -3.143  -6.096  0.00  0.00    -0.269 OA
BRANCH  10  14
ATOM     14  N   UNL     1       7.978  -5.088  -7.710  0.00  0.00    +0.057 N 
ATOM     15  O   UNL     1       8.951  -5.617  -8.194  0.00  0.00    -0.126 OA
ATOM     16  O   UNL     1       8.108  -4.125  -6.991  0.00  0.00    -0.126 OA
ENDBRANCH  10  14
ENDBRANCH   1   3
BRANCH   1  18
ATOM     17  N   UNL     1       1.982  -2.551  -3.455  0.00  0.00    -0.283 N 
ATOM     18  C   UNL     1       2.618  -3.320  -4.361  0.00  0.00    +0.238 C 
ATOM     19  O   UNL     1       2.577  -4.529  -4.266  0.00  0.00    -0.273 OA
ATOM     20  H   UNL     1       1.960  -1.588  -3.566  0.00  0.00    +0.155 HD
BRANCH  17  26
ATOM     21  C   UNL     1       1.340  -2.492  -1.119  0.00  0.00    +0.029 A 
ATOM     22  C   UNL     1       0.709  -3.082  -0.033  0.00  0.00    +0.016 A 
ATOM     23  C   UNL     1       0.101  -4.315  -0.173  0.00  0.00    +0.001 A 
ATOM     24  C   UNL     1       0.118  -4.964  -1.395  0.00  0.00    +0.002 A 
ATOM     25  C   UNL     1       0.744  -4.383  -2.482  0.00  0.00    +0.024 A 
ATOM     26  C   UNL     1       1.352  -3.144  -2.352  0.00  0.00    +0.047 A 
BRANCH  21  27
ATOM     27  S   UNL     1       2.116  -0.920  -0.943  0.00  0.00    -0.124 S 
BRANCH  27  29
ATOM     28  C   UNL     1       2.474   0.875   1.089  0.00  0.00    +0.015 C 
ATOM     29  C   UNL     1       1.842  -0.487   0.797  0.00  0.00    +0.071 C 
ENDBRANCH  27  29
ENDBRANCH  21  27
ENDBRANCH  17  26
ENDBRANCH   1  18
TORSDOF 6
