REMARK  Name = ZINC00741909
REMARK  8 active torsions:
REMARK  status: ('A' for Active; 'I' for Inactive)
REMARK    1  A    between atoms: C_3  and  N_34
REMARK    2  A    between atoms: C_6  and  C_7
REMARK    3  A    between atoms: C_8  and  C_9
REMARK    4  A    between atoms: N_11  and  C_12
REMARK    5  A    between atoms: C_15  and  N_28
REMARK    6  A    between atoms: C_16  and  C_18
REMARK    7  A    between atoms: N_20  and  C_21
REMARK    8  A    between atoms: C_21  and  C_22
REMARK                            x       y       z     vdW  Elec       q    Type
REMARK                         _______ _______ _______ _____ _____    ______ ____
ROOT
ATOM      1  C   UNL     1      -8.438   2.583   0.617  0.00  0.00    +0.034 A 
ATOM      2  C   UNL     1      -9.567   2.103  -0.041  0.00  0.00    +0.025 A 
ATOM      3  C   UNL     1      -9.444   1.153  -1.032  0.00  0.00    +0.026 A 
ATOM      4  C   UNL     1      -8.191   0.666  -1.382  0.00  0.00    +0.042 A 
ATOM      5  C   UNL     1      -7.049   1.145  -0.723  0.00  0.00    +0.059 A 
ATOM      6  C   UNL     1      -7.183   2.104   0.284  0.00  0.00    +0.038 A 
ENDROOT
BRANCH   4   7
ATOM      7  N   UNL     1      -8.069  -0.292  -2.382  0.00  0.00    -0.329 N 
ATOM      8  C   UNL     1      -8.502   0.242  -3.679  0.00  0.00    +0.105 C 
ATOM      9  C   UNL     1      -8.219  -0.786  -4.777  0.00  0.00    +0.019 C 
ATOM     10  C   UNL     1      -8.970  -2.083  -4.461  0.00  0.00    +0.003 C 
ATOM     11  C   UNL     1      -8.536  -2.592  -3.084  0.00  0.00    +0.019 C 
ATOM     12  C   UNL     1      -8.810  -1.512  -2.035  0.00  0.00    +0.105 C 
ENDBRANCH   4   7
BRANCH   1  15
ATOM     13  C   UNL     1      -7.613   4.479   1.796  0.00  0.00    +0.241 C 
ATOM     14  O   UNL     1      -6.677   4.540   1.021  0.00  0.00    -0.270 OA
ATOM     15  N   UNL     1      -8.573   3.548   1.622  0.00  0.00    -0.282 N 
ATOM     16  H   UNL     1      -9.462   3.547   2.270  0.00  0.00    +0.155 HD
BRANCH  13  18
ATOM     17  C   UNL     1      -6.737   6.346   3.093  0.00  0.00    +0.013 C 
ATOM     18  C   UNL     1      -7.697   5.415   2.918  0.00  0.00    +0.068 C 
BRANCH  17  24
ATOM     19  C   UNL     1      -7.898   7.224   5.111  0.00  0.00    +0.010 A 
ATOM     20  C   UNL     1      -7.968   8.107   6.168  0.00  0.00    +0.033 A 
ATOM     21  C   UNL     1      -6.980   9.061   6.343  0.00  0.00    +0.126 A 
ATOM     22  C   UNL     1      -5.914   9.134   5.464  0.00  0.00    +0.033 A 
ATOM     23  C   UNL     1      -5.828   8.255   4.405  0.00  0.00    +0.010 A 
ATOM     24  C   UNL     1      -6.821   7.288   4.221  0.00  0.00    -0.025 A 
BRANCH  21  25
ATOM     25  N   UNL     1      -7.065  10.008   7.478  0.00  0.00    +0.056 N 
ATOM     26  O   UNL     1      -6.198  10.849   7.635  0.00  0.00    -0.126 OA
ATOM     27  O   UNL     1      -8.002   9.947   8.254  0.00  0.00    -0.126 OA
ENDBRANCH  21  25
ENDBRANCH  17  24
ENDBRANCH  13  18
ENDBRANCH   1  15
BRANCH   5  28
ATOM     28  C   UNL     1      -5.714   0.635  -1.087  0.00  0.00    +0.246 C 
ATOM     29  O   UNL     1      -5.602  -0.204  -1.960  0.00  0.00    -0.270 OA
ATOM     30  N   UNL     1      -4.619   1.097  -0.452  0.00  0.00    -0.309 N 
ATOM     31  H   UNL     1      -4.721   1.855   0.339  0.00  0.00    +0.149 HD
BRANCH  30  32
ATOM     32  C   UNL     1      -3.293   0.590  -0.813  0.00  0.00    +0.136 C 
BRANCH  32  33
ATOM     33  C   UNL     1      -2.232   1.273   0.052  0.00  0.00    +0.135 C 
ATOM     34  C   UNL     1      -0.826   0.840  -0.405  0.00  0.00    +0.035 C 
ATOM     35  C   UNL     1      -0.196   0.203   0.858  0.00  0.00    +0.031 C 
ATOM     36  C   UNL     1      -1.056   0.813   1.994  0.00  0.00    +0.160 C 
ATOM     37  O   UNL     1      -2.381   0.864   1.422  0.00  0.00    -0.375 OA
ENDBRANCH  32  33
ENDBRANCH  30  32
ENDBRANCH   5  28
TORSDOF 8
