REMARK  Name = ZINC13943794
REMARK  6 active torsions:
REMARK  status: ('A' for Active; 'I' for Inactive)
REMARK    1  A    between atoms: C_4  and  N_7
REMARK    2  A    between atoms: C_11  and  C_12
REMARK    3  A    between atoms: C_15  and  O_18
REMARK    4  A    between atoms: O_18  and  C_19
REMARK    5  A    between atoms: C_19  and  C_20
REMARK    6  A    between atoms: C_24  and  N_26
REMARK                            x       y       z     vdW  Elec       q    Type
REMARK                         _______ _______ _______ _____ _____    ______ ____
ROOT
ATOM      1  C   UNL     1      -6.593   2.892  -0.018  0.00  0.00    -0.023 A 
ATOM      2  C   UNL     1      -5.765   1.762  -0.030  0.00  0.00    +0.011 A 
ATOM      3  C   UNL     1      -6.320   0.506  -0.116  0.00  0.00    +0.046 A 
ATOM      4  C   UNL     1      -7.699   0.357  -0.204  0.00  0.00    +0.121 A 
ATOM      5  C   UNL     1      -8.526   1.474  -0.199  0.00  0.00    +0.046 A 
ATOM      6  C   UNL     1      -7.982   2.736  -0.106  0.00  0.00    +0.011 A 
ENDROOT
BRANCH   1  11
ATOM      7  N   UNL     1      -3.315   4.168   2.428  0.00  0.00    -0.189 N 
ATOM      8  C   UNL     1      -4.346   3.514   1.856  0.00  0.00    +0.273 C 
ATOM      9  O   UNL     1      -4.714   2.378   2.093  0.00  0.00    -0.268 OA
ATOM     10  C   UNL     1      -4.940   4.451   0.890  0.00  0.00    +0.099 C 
ATOM     11  C   UNL     1      -6.007   4.234   0.081  0.00  0.00    +0.036 C 
ATOM     12  N   UNL     1      -4.164   5.615   0.983  0.00  0.00    -0.264 N 
ATOM     13  C   UNL     1      -3.212   5.400   1.907  0.00  0.00    +0.318 C 
ATOM     14  O   UNL     1      -2.368   6.215   2.230  0.00  0.00    -0.251 OA
ATOM     15  H   UNL     1      -4.291   6.429   0.471  0.00  0.00    +0.157 HD
BRANCH   7  19
ATOM     16  C   UNL     1      -0.810   2.588   5.362  0.00  0.00    +0.000 A 
ATOM     17  C   UNL     1      -1.843   1.823   4.852  0.00  0.00    +0.002 A 
ATOM     18  C   UNL     1      -2.671   2.342   3.876  0.00  0.00    +0.024 A 
ATOM     19  C   UNL     1      -2.473   3.637   3.415  0.00  0.00    +0.046 A 
ATOM     20  C   UNL     1      -1.435   4.402   3.929  0.00  0.00    +0.024 A 
ATOM     21  C   UNL     1      -0.607   3.876   4.901  0.00  0.00    +0.002 A 
ENDBRANCH   7  19
ENDBRANCH   1  11
BRANCH   4  22
ATOM     22  O   UNL     1      -8.241  -0.885  -0.295  0.00  0.00    -0.487 OA
BRANCH  22  23
ATOM     23  C   UNL     1      -7.335  -1.990  -0.295  0.00  0.00    +0.264 C 
BRANCH  23  24
ATOM     24  C   UNL     1      -8.112  -3.276  -0.402  0.00  0.00    -0.008 A 
ATOM     25  C   UNL     1      -8.399  -3.809  -1.645  0.00  0.00    +0.007 A 
ATOM     26  C   UNL     1      -9.112  -4.990  -1.743  0.00  0.00    +0.003 A 
ATOM     27  C   UNL     1      -9.537  -5.638  -0.598  0.00  0.00    +0.033 A 
ATOM     28  C   UNL     1      -9.249  -5.105   0.644  0.00  0.00    +0.127 A 
ATOM     29  C   UNL     1      -8.533  -3.927   0.742  0.00  0.00    +0.039 A 
BRANCH  28  30
ATOM     30  N   UNL     1      -9.704  -5.799   1.870  0.00  0.00    +0.056 N 
ATOM     31  O   UNL     1     -10.332  -6.839   1.784  0.00  0.00    -0.126 OA
ATOM     32  O   UNL     1      -9.450  -5.330   2.965  0.00  0.00    -0.126 OA
ENDBRANCH  28  30
ENDBRANCH  23  24
ENDBRANCH  22  23
ENDBRANCH   4  22
TORSDOF 6
