REMARK  Name = ZINC23029834
REMARK  6 active torsions:
REMARK  status: ('A' for Active; 'I' for Inactive)
REMARK    1  A    between atoms: C_1  and  C_2
REMARK    2  A    between atoms: C_2  and  C_4
REMARK    3  A    between atoms: C_2  and  N_14
REMARK    4  A    between atoms: C_15  and  C_17
REMARK    5  A    between atoms: C_17  and  N_18
REMARK    6  A    between atoms: C_21  and  N_29
REMARK                            x       y       z     vdW  Elec       q    Type
REMARK                         _______ _______ _______ _____ _____    ______ ____
ROOT
ATOM      1  N   UNL     1       1.624   3.311   0.004  0.00  0.00    -0.311 N 
ATOM      2  C   UNL     1       1.396   1.982  -0.001  0.00  0.00    +0.231 C 
ATOM      3  O   UNL     1       2.328   1.207  -0.014  0.00  0.00    -0.274 OA
ATOM      4  H   UNL     1       0.779   4.014   0.016  0.00  0.00    +0.149 HD
ENDROOT
BRANCH   1   6
ATOM      5  C   UNL     1       3.507   3.884  -1.448  0.00  0.00    +0.028 C 
ATOM      6  C   UNL     1       2.999   3.818  -0.006  0.00  0.00    +0.076 C 
BRANCH   6   7
ATOM      7  C   UNL     1       3.030   5.218   0.611  0.00  0.00    -0.010 C 
ATOM      8  C   UNL     1       2.522   5.151   2.052  0.00  0.00    +0.012 C 
ATOM      9  C   UNL     1       2.554   6.551   2.669  0.00  0.00    -0.010 C 
ATOM     10  C   UNL     1       3.990   7.081   2.658  0.00  0.00    +0.007 C 
ATOM     11  C   UNL     1       4.498   7.147   1.217  0.00  0.00    -0.010 C 
ATOM     12  C   UNL     1       4.466   5.747   0.600  0.00  0.00    +0.012 C 
ATOM     13  C   UNL     1       3.603   8.083   0.403  0.00  0.00    +0.007 C 
ATOM     14  C   UNL     1       2.167   7.554   0.414  0.00  0.00    -0.010 C 
ATOM     15  C   UNL     1       1.659   7.487   1.855  0.00  0.00    +0.007 C 
ATOM     16  C   UNL     1       2.135   6.154  -0.203  0.00  0.00    +0.012 C 
ENDBRANCH   6   7
ENDBRANCH   1   6
BRANCH   2  17
ATOM     17  C   UNL     1      -0.018   1.461   0.010  0.00  0.00    +0.209 C 
BRANCH  17  18
ATOM     18  N   UNL     1       0.002  -0.004   0.002  0.00  0.00    -0.256 N 
ATOM     19  C   UNL     1      -0.006  -0.709  -1.210  0.00  0.00    +0.081 A 
ATOM     20  C   UNL     1       0.296  -0.069  -2.402  0.00  0.00    +0.060 A 
ATOM     21  C   UNL     1       0.287  -0.783  -3.586  0.00  0.00    +0.128 A 
ATOM     22  C   UNL     1      -0.015  -2.133  -3.583  0.00  0.00    +0.036 A 
ATOM     23  C   UNL     1      -0.312  -2.777  -2.396  0.00  0.00    +0.050 A 
ATOM     24  C   UNL     1      -0.305  -2.069  -1.206  0.00  0.00    +0.143 A 
ATOM     25  O   UNL     1      -0.594  -2.687  -0.030  0.00  0.00    -0.481 OA
ATOM     26  C   UNL     1       0.081  -2.202   1.133  0.00  0.00    +0.325 C 
ATOM     27  C   UNL     1       0.022  -0.696   1.162  0.00  0.00    +0.258 C 
ATOM     28  O   UNL     1      -0.006  -0.108   2.222  0.00  0.00    -0.271 OA
BRANCH  21  29
ATOM     29  N   UNL     1       0.603  -0.101  -4.861  0.00  0.00    +0.056 N 
ATOM     30  O   UNL     1       0.596  -0.728  -5.906  0.00  0.00    -0.126 OA
ATOM     31  O   UNL     1       0.870   1.087  -4.867  0.00  0.00    -0.126 OA
ENDBRANCH  21  29
ENDBRANCH  17  18
ENDBRANCH   2  17
TORSDOF 5
