REMARK  Name = ZINC23223795
REMARK  9 active torsions:
REMARK  status: ('A' for Active; 'I' for Inactive)
REMARK    1  A    between atoms: C_1  and  O_2
REMARK    2  A    between atoms: O_2  and  C_3
REMARK    3  A    between atoms: C_6  and  C_9
REMARK    4  A    between atoms: C_12  and  C_15
REMARK    5  A    between atoms: C_20  and  C_22
REMARK    6  A    between atoms: C_22  and  O_23
REMARK    7  A    between atoms: O_23  and  C_24
REMARK    8  A    between atoms: C_24  and  C_26
REMARK    9  A    between atoms: C_29  and  C_32
REMARK                            x       y       z     vdW  Elec       q    Type
REMARK                         _______ _______ _______ _____ _____    ______ ____
ROOT
ATOM      1  C   UNL     1      -1.944   2.383   0.620  0.00  0.00    +0.069 C 
ATOM      2  N   UNL     1      -1.865   2.330  -0.665  0.00  0.00    -0.181 NA
ATOM      3  N   UNL     1      -0.778   1.600  -1.139  0.00  0.00    -0.179 N 
ATOM      4  C   UNL     1      -0.013   1.086   0.008  0.00  0.00    +0.173 C 
ATOM      5  C   UNL     1      -0.791   1.611   1.231  0.00  0.00    +0.090 C 
ATOM      6  C   UNL     1      -0.476   1.397  -2.437  0.00  0.00    +0.273 C 
ATOM      7  O   UNL     1       0.499   0.741  -2.737  0.00  0.00    -0.270 OA
ENDROOT
BRANCH   1  11
ATOM      8  C   UNL     1      -4.963   4.412   2.809  0.00  0.00    +0.120 A 
ATOM      9  C   UNL     1      -4.986   4.426   1.420  0.00  0.00    +0.046 A 
ATOM     10  C   UNL     1      -4.008   3.769   0.706  0.00  0.00    +0.013 A 
ATOM     11  C   UNL     1      -2.992   3.087   1.380  0.00  0.00    -0.002 A 
ATOM     12  C   UNL     1      -2.976   3.070   2.777  0.00  0.00    +0.013 A 
ATOM     13  C   UNL     1      -3.955   3.735   3.484  0.00  0.00    +0.046 A 
BRANCH   8  15
ATOM     14  C   UNL     1      -5.845   5.005   4.935  0.00  0.00    +0.277 C 
ATOM     15  O   UNL     1      -5.929   5.061   3.509  0.00  0.00    -0.495 OA
ENDBRANCH   8  15
ENDBRANCH   1  11
BRANCH   4  16
ATOM     16  C   UNL     1       1.391   1.634  -0.003  0.00  0.00    +0.128 A 
ATOM     17  C   UNL     1       2.499   0.967   0.369  0.00  0.00    +0.046 A 
ATOM     18  C   UNL     1       3.587   1.854   0.201  0.00  0.00    +0.041 A 
ATOM     19  C   UNL     1       3.079   3.010  -0.263  0.00  0.00    +0.195 A 
ATOM     20  O   UNL     1       1.749   2.869  -0.390  0.00  0.00    -0.466 OA
ENDBRANCH   4  16
BRANCH   6  21
ATOM     21  C   UNL     1      -1.350   1.984  -3.515  0.00  0.00    +0.330 C 
BRANCH  21  22
ATOM     22  O   UNL     1      -0.819   1.626  -4.818  0.00  0.00    -0.452 OA
BRANCH  22  23
ATOM     23  C   UNL     1      -1.489   2.076  -5.896  0.00  0.00    +0.340 C 
ATOM     24  O   UNL     1      -2.490   2.749  -5.752  0.00  0.00    -0.245 OA
BRANCH  23  25
ATOM     25  C   UNL     1      -1.006   1.751  -7.256  0.00  0.00    +0.059 A 
ATOM     26  C   UNL     1       0.148   0.982  -7.422  0.00  0.00    +0.016 A 
ATOM     27  C   UNL     1       0.595   0.675  -8.688  0.00  0.00    +0.014 A 
ATOM     28  C   UNL     1      -0.100   1.141  -9.806  0.00  0.00    +0.037 A 
ATOM     29  C   UNL     1      -1.250   1.914  -9.640  0.00  0.00    +0.014 A 
ATOM     30  C   UNL     1      -1.700   2.217  -8.373  0.00  0.00    +0.016 A 
BRANCH  28  31
ATOM     31  C   UNL     1       0.384   0.816 -11.167  0.00  0.00    +0.242 C 
ATOM     32  O   UNL     1      -0.220   1.222 -12.139  0.00  0.00    -0.270 OA
ATOM     33  N   UNL     1       1.495   0.069 -11.326  0.00  0.00    -0.325 N 
ATOM     34  H   UNL     1       1.854  -0.172 -12.338  0.00  0.00    +0.145 HD
ATOM     35  H   UNL     1       2.042  -0.299 -10.446  0.00  0.00    +0.145 HD
ENDBRANCH  28  31
ENDBRANCH  23  25
ENDBRANCH  22  23
ENDBRANCH  21  22
ENDBRANCH   6  21
TORSDOF 8
