REMARK  Name = ZINC18022913
REMARK  8 active torsions:
REMARK  status: ('A' for Active; 'I' for Inactive)
REMARK    1  A    between atoms: C_1  and  C_2
REMARK    2  A    between atoms: C_4  and  C_27
REMARK    3  A    between atoms: C_5  and  O_9
REMARK    4  A    between atoms: C_6  and  C_8
REMARK    5  A    between atoms: O_9  and  C_10
REMARK    6  A    between atoms: C_10  and  C_11
REMARK    7  A    between atoms: N_13  and  N_14
REMARK    8  A    between atoms: C_20  and  C_23
REMARK                            x       y       z     vdW  Elec       q    Type
REMARK                         _______ _______ _______ _____ _____    ______ ____
ROOT
ATOM      1  C   UNL     1      -1.187   1.624   0.017  0.00  0.00    +0.267 C 
ATOM      2  O   UNL     1      -1.204   2.837   0.023  0.00  0.00    -0.271 OA
ATOM      3  N   UNL     1      -0.011   0.966   0.007  0.00  0.00    -0.221 N 
ATOM      4  H   UNL     1       0.002  -0.004   0.002  0.00  0.00    +0.174 HD
ENDROOT
BRANCH   3   5
ATOM      5  N   UNL     1       1.193   1.683  -0.000  0.00  0.00    -0.137 N 
ATOM      6  C   UNL     1       2.002   1.817   1.071  0.00  0.00    +0.263 C 
ATOM      7  O   UNL     1       1.834   1.358   2.180  0.00  0.00    -0.271 OA
ATOM      8  C   UNL     1       3.164   2.659   0.596  0.00  0.00    +0.114 C 
ATOM      9  C   UNL     1       4.469   1.881   0.716  0.00  0.00    +0.035 C 
ATOM     10  C   UNL     1       5.628   2.740   0.204  0.00  0.00    +0.006 C 
ATOM     11  C   UNL     1       5.707   4.029   1.024  0.00  0.00    -0.014 C 
ATOM     12  C   UNL     1       4.400   4.811   0.874  0.00  0.00    +0.006 C 
ATOM     13  C   UNL     1       3.236   3.960   1.388  0.00  0.00    +0.035 C 
ATOM     14  C   UNL     1       6.872   4.883   0.522  0.00  0.00    +0.007 C 
ATOM     15  N   UNL     1       2.854   2.931  -0.814  0.00  0.00    -0.284 N 
ATOM     16  C   UNL     1       1.685   2.315  -1.073  0.00  0.00    +0.326 C 
ATOM     17  O   UNL     1       1.137   2.333  -2.157  0.00  0.00    -0.251 OA
ATOM     18  H   UNL     1       3.388   3.449  -1.437  0.00  0.00    +0.151 HD
ENDBRANCH   3   5
BRANCH   1  19
ATOM     19  C   UNL     1      -2.482   0.853   0.018  0.00  0.00    +0.326 C 
BRANCH  19  20
ATOM     20  O   UNL     1      -3.581   1.766   0.029  0.00  0.00    -0.482 OA
BRANCH  20  25
ATOM     21  C   UNL     1      -8.756  -0.457   0.041  0.00  0.00    +0.044 C 
ATOM     22  C   UNL     1      -7.371   0.138   0.038  0.00  0.00    -0.050 A 
ATOM     23  C   UNL     1      -6.731   0.404   1.234  0.00  0.00    +0.010 A 
ATOM     24  C   UNL     1      -5.462   0.949   1.234  0.00  0.00    -0.008 A 
ATOM     25  C   UNL     1      -4.829   1.230   0.032  0.00  0.00    +0.127 A 
ATOM     26  C   UNL     1      -5.476   0.967  -1.167  0.00  0.00    -0.008 A 
ATOM     27  C   UNL     1      -6.742   0.416  -1.162  0.00  0.00    +0.010 A 
ATOM     28  C   UNL     1      -4.794   1.277  -2.475  0.00  0.00    +0.047 C 
ATOM     29  C   UNL     1      -4.765   1.238   2.538  0.00  0.00    +0.047 C 
ENDBRANCH  20  25
ENDBRANCH  19  20
ENDBRANCH   1  19
TORSDOF 4
