REMARK  Name = ZINC09809078
REMARK  10 active torsions:
REMARK  status: ('A' for Active; 'I' for Inactive)
REMARK    1  A    between atoms: C_1  and  O_2
REMARK    2  A    between atoms: O_2  and  C_3
REMARK    3  A    between atoms: C_3  and  C_5
REMARK    4  A    between atoms: C_5  and  N_6
REMARK    5  A    between atoms: C_10  and  S_27
REMARK    6  A    between atoms: N_15  and  C_16
REMARK    7  A    between atoms: C_16  and  C_18
REMARK    8  A    between atoms: C_18  and  O_19
REMARK    9  A    between atoms: O_19  and  C_20
REMARK   10  A    between atoms: S_27  and  N_30
REMARK                            x       y       z     vdW  Elec       q    Type
REMARK                         _______ _______ _______ _____ _____    ______ ____
ROOT
ATOM      1  N   UNL     1       1.093   3.137   0.164  0.00  0.00    -0.310 N 
ATOM      2  C   UNL     1       2.369   3.379   0.636  0.00  0.00    +0.058 A 
ATOM      3  C   UNL     1       2.937   4.602   1.027  0.00  0.00    +0.029 A 
ATOM      4  C   UNL     1       4.234   4.663   1.477  0.00  0.00    +0.030 A 
ATOM      5  C   UNL     1       5.020   3.525   1.559  0.00  0.00    +0.106 A 
ATOM      6  C   UNL     1       4.486   2.306   1.180  0.00  0.00    +0.045 A 
ATOM      7  C   UNL     1       3.189   2.244   0.730  0.00  0.00    +0.041 A 
ATOM      8  S   UNL     1       2.133   0.933   0.167  0.00  0.00    -0.052 S 
ATOM      9  C   UNL     1       0.716   1.875  -0.168  0.00  0.00    +0.167 A 
ATOM     10  N   UNL     1      -0.460   1.459  -0.633  0.00  0.00    -0.153 NA
ENDROOT
BRANCH   5  11
ATOM     11  S   UNL     1       6.681   3.629   2.139  0.00  0.00    +0.056 S 
ATOM     12  O   UNL     1       7.369   2.508   1.602  0.00  0.00    -0.153 OA
ATOM     13  O   UNL     1       7.107   4.965   1.911  0.00  0.00    -0.153 OA
BRANCH  11  14
ATOM     14  N   UNL     1       6.640   3.418   3.781  0.00  0.00    -0.204 NA
ATOM     15  H   UNL     1       7.396   3.016   4.237  0.00  0.00    +0.144 HD
ATOM     16  H   UNL     1       5.861   3.697   4.286  0.00  0.00    +0.144 HD
ENDBRANCH  11  14
ENDBRANCH   5  11
BRANCH  10  17
ATOM     17  C   UNL     1      -0.650   0.173  -0.906  0.00  0.00    +0.276 C 
ATOM     18  O   UNL     1       0.251  -0.625  -0.731  0.00  0.00    -0.270 OA
BRANCH  17  19
ATOM     19  C   UNL     1      -1.982  -0.297  -1.432  0.00  0.00    +0.326 C 
BRANCH  19  20
ATOM     20  O   UNL     1      -1.938  -1.709  -1.647  0.00  0.00    -0.483 OA
BRANCH  20  21
ATOM     21  C   UNL     1      -3.067  -2.297  -2.123  0.00  0.00    +0.121 A 
ATOM     22  C   UNL     1      -4.196  -1.530  -2.374  0.00  0.00    +0.047 A 
ATOM     23  C   UNL     1      -5.341  -2.128  -2.863  0.00  0.00    +0.023 A 
ATOM     24  C   UNL     1      -5.366  -3.493  -3.094  0.00  0.00    +0.041 A 
ATOM     25  C   UNL     1      -4.242  -4.260  -2.839  0.00  0.00    +0.023 A 
ATOM     26  C   UNL     1      -3.094  -3.664  -2.355  0.00  0.00    +0.047 A 
ATOM     27 CL   UNL     1      -6.808  -4.243  -3.702  0.00  0.00    -0.084 Cl
ENDBRANCH  20  21
ENDBRANCH  19  20
ENDBRANCH  17  19
ENDBRANCH  10  17
BRANCH   1  28
ATOM     28  C   UNL     1       0.144   4.245   0.022  0.00  0.00    +0.244 C 
BRANCH  28  29
ATOM     29  C   UNL     1      -0.631   4.081  -1.260  0.00  0.00    +0.327 C 
ATOM     30  O   UNL     1      -0.304   3.236  -2.060  0.00  0.00    -0.249 OA
BRANCH  29  32
ATOM     31  C   UNL     1      -2.384   4.659  -2.767  0.00  0.00    +0.280 C 
ATOM     32  O   UNL     1      -1.685   4.873  -1.513  0.00  0.00    -0.467 OA
ENDBRANCH  29  32
ENDBRANCH  28  29
ENDBRANCH   1  28
TORSDOF 9
