REMARK  Name = ZINC66606335
REMARK  9 active torsions:
REMARK  status: ('A' for Active; 'I' for Inactive)
REMARK    1  A    between atoms: C_1  and  C_2
REMARK    2  A    between atoms: C_8  and  C_20
REMARK    3  A    between atoms: C_12  and  C_13
REMARK    4  A    between atoms: C_13  and  O_15
REMARK    5  A    between atoms: O_15  and  C_16
REMARK    6  A    between atoms: C_16  and  C_17
REMARK    7  A    between atoms: C_17  and  O_18
REMARK    8  A    between atoms: O_18  and  C_19
REMARK    9  A    between atoms: C_24  and  N_26
REMARK                            x       y       z     vdW  Elec       q    Type
REMARK                         _______ _______ _______ _____ _____    ______ ____
ROOT
ATOM      1  C   UNL     1      -0.018   1.503   0.010  0.00  0.00    +0.046 C 
ATOM      2  C   UNL     1       0.002  -0.004   0.002  0.00  0.00    -0.015 A 
ATOM      3  C   UNL     1       0.005  -0.697  -1.210  0.00  0.00    +0.076 A 
ATOM      4  C   UNL     1      -0.009  -0.162  -2.590  0.00  0.00    +0.260 A 
ATOM      5  O   UNL     1      -0.026   1.039  -2.794  0.00  0.00    -0.267 OA
ATOM      6  N   UNL     1      -0.002  -1.035  -3.616  0.00  0.00    -0.306 N 
ATOM      7  H   UNL     1      -0.011  -0.700  -4.527  0.00  0.00    +0.170 HD
ATOM      8  C   UNL     1       0.018  -2.383  -3.399  0.00  0.00    +0.142 A 
ATOM      9  N   UNL     1       0.032  -2.885  -2.183  0.00  0.00    -0.222 NA
ATOM     10  C   UNL     1       0.025  -2.109  -1.112  0.00  0.00    +0.117 A 
ATOM     11  S   UNL     1       0.038  -2.396   0.640  0.00  0.00    -0.062 S 
ATOM     12  C   UNL     1       0.023  -0.694   1.180  0.00  0.00    +0.102 A 
ENDROOT
BRANCH   8  13
ATOM     13  C   UNL     1       0.025  -3.299  -4.557  0.00  0.00    +0.020 A 
ATOM     14  C   UNL     1       0.017  -2.787  -5.856  0.00  0.00    +0.011 A 
ATOM     15  C   UNL     1       0.024  -3.649  -6.934  0.00  0.00    +0.003 A 
ATOM     16  C   UNL     1       0.040  -5.018  -6.729  0.00  0.00    +0.033 A 
ATOM     17  C   UNL     1       0.048  -5.531  -5.444  0.00  0.00    +0.127 A 
ATOM     18  C   UNL     1       0.046  -4.681  -4.358  0.00  0.00    +0.044 A 
BRANCH  17  19
ATOM     19  N   UNL     1       0.063  -6.997  -5.235  0.00  0.00    +0.056 N 
ATOM     20  O   UNL     1       0.069  -7.743  -6.186  0.00  0.00    -0.126 OA
ATOM     21  O   UNL     1       0.071  -7.447  -4.113  0.00  0.00    -0.126 OA
ENDBRANCH  17  19
ENDBRANCH   8  13
BRANCH  12  22
ATOM     22  C   UNL     1       0.029  -0.169   2.547  0.00  0.00    +0.346 C 
ATOM     23  O   UNL     1       0.014   1.032   2.737  0.00  0.00    -0.244 OA
BRANCH  22  24
ATOM     24  O   UNL     1       0.051  -1.018   3.595  0.00  0.00    -0.458 OA
BRANCH  24  25
ATOM     25  C   UNL     1       0.056  -0.436   4.900  0.00  0.00    +0.260 C 
BRANCH  25  26
ATOM     26  C   UNL     1       0.081  -1.546   5.953  0.00  0.00    +0.200 C 
BRANCH  26  27
ATOM     27  O   UNL     1       1.312  -2.267   5.856  0.00  0.00    -0.380 OA
ATOM     28  C   UNL     1       1.438  -3.332   6.801  0.00  0.00    +0.194 C 
ENDBRANCH  26  27
ENDBRANCH  25  26
ENDBRANCH  24  25
ENDBRANCH  22  24
ENDBRANCH  12  22
TORSDOF 7
