REMARK  Name = ZINC35456192
REMARK  10 active torsions:
REMARK  status: ('A' for Active; 'I' for Inactive)
REMARK    1  A    between atoms: C_1  and  O_2
REMARK    2  A    between atoms: O_2  and  C_3
REMARK    3  A    between atoms: C_3  and  C_4
REMARK    4  A    between atoms: C_5  and  C_17
REMARK    5  A    between atoms: N_7  and  C_9
REMARK    6  A    between atoms: N_21  and  C_25
REMARK    7  A    between atoms: C_25  and  C_26
REMARK    8  A    between atoms: C_30  and  C_32
REMARK    9  A    between atoms: C_32  and  O_34
REMARK   10  A    between atoms: O_34  and  C_35
REMARK                            x       y       z     vdW  Elec       q    Type
REMARK                         _______ _______ _______ _____ _____    ______ ____
ROOT
ATOM      1  C   UNL     1      -1.573  -2.508   2.266  0.00  0.00    +0.044 C 
ATOM      2  C   UNL     1      -2.799  -2.965   1.893  0.00  0.00    +0.099 C 
ATOM      3  C   UNL     1      -4.048  -2.652   2.493  0.00  0.00    +0.269 C 
ATOM      4  O   UNL     1      -4.228  -1.916   3.446  0.00  0.00    -0.268 OA
ATOM      5  N   UNL     1      -4.995  -3.322   1.808  0.00  0.00    -0.216 N 
ATOM      6  C   UNL     1      -4.422  -4.032   0.822  0.00  0.00    +0.313 C 
ATOM      7  O   UNL     1      -5.019  -4.739   0.032  0.00  0.00    -0.252 OA
ATOM      8  N   UNL     1      -3.089  -3.840   0.833  0.00  0.00    -0.265 N 
ATOM      9  H   UNL     1      -2.447  -4.234   0.223  0.00  0.00    +0.157 HD
ENDROOT
BRANCH   1  11
ATOM     10  C   UNL     1       0.633  -2.085   1.012  0.00  0.00    +0.100 A 
ATOM     11  C   UNL     1      -0.380  -2.929   1.530  0.00  0.00    +0.068 A 
ATOM     12  C   UNL     1      -0.024  -4.236   1.205  0.00  0.00    +0.281 A 
ATOM     13  N   UNL     1       1.143  -4.174   0.528  0.00  0.00    -0.196 N 
ATOM     14  N   UNL     1       1.522  -2.832   0.419  0.00  0.00    -0.165 NA
ATOM     15  O   UNL     1      -0.718  -5.358   1.511  0.00  0.00    -0.265 OA
BRANCH  13  16
ATOM     16  C   UNL     1       1.852  -5.269   0.015  0.00  0.00    +0.069 A 
ATOM     17  C   UNL     1       1.856  -6.477   0.700  0.00  0.00    +0.029 A 
ATOM     18  C   UNL     1       2.555  -7.554   0.193  0.00  0.00    +0.022 A 
ATOM     19  C   UNL     1       3.251  -7.431  -0.997  0.00  0.00    +0.041 A 
ATOM     20  C   UNL     1       3.249  -6.229  -1.681  0.00  0.00    +0.022 A 
ATOM     21  C   UNL     1       2.546  -5.150  -1.181  0.00  0.00    +0.029 A 
ATOM     22 CL   UNL     1       4.129  -8.788  -1.631  0.00  0.00    -0.084 Cl
ENDBRANCH  13  16
BRANCH  10  23
ATOM     23  C   UNL     1       0.673  -0.582   1.123  0.00  0.00    +0.217 C 
BRANCH  23  25
ATOM     24  C   UNL     1      -0.017   1.425   0.010  0.00  0.00    +0.194 C 
ATOM     25  O   UNL     1       0.002  -0.004   0.002  0.00  0.00    -0.377 OA
ENDBRANCH  23  25
ENDBRANCH  10  23
ENDBRANCH   1  11
BRANCH   5  26
ATOM     26  C   UNL     1      -6.431  -3.282   2.095  0.00  0.00    +0.153 C 
BRANCH  26  27
ATOM     27  C   UNL     1      -7.069  -2.163   1.313  0.00  0.00    -0.029 A 
ATOM     28  C   UNL     1      -7.153  -0.897   1.865  0.00  0.00    +0.005 A 
ATOM     29  C   UNL     1      -7.737   0.137   1.154  0.00  0.00    +0.001 A 
ATOM     30  C   UNL     1      -8.240  -0.090  -0.110  0.00  0.00    +0.015 A 
ATOM     31  C   UNL     1      -8.159  -1.365  -0.673  0.00  0.00    +0.059 A 
ATOM     32  C   UNL     1      -7.562  -2.402   0.048  0.00  0.00    +0.020 A 
BRANCH  31  33
ATOM     33  C   UNL     1      -8.695  -1.615  -2.026  0.00  0.00    +0.339 C 
ATOM     34  O   UNL     1      -8.623  -2.725  -2.513  0.00  0.00    -0.245 OA
BRANCH  33  35
ATOM     35  O   UNL     1      -9.265  -0.611  -2.721  0.00  0.00    -0.464 OA
ATOM     36  C   UNL     1      -9.762  -0.924  -4.023  0.00  0.00    +0.280 C 
ENDBRANCH  33  35
ENDBRANCH  31  33
ENDBRANCH  26  27
ENDBRANCH   5  26
TORSDOF 8
