REMARK  Name = ZINC36625988
REMARK  6 active torsions:
REMARK  status: ('A' for Active; 'I' for Inactive)
REMARK    1  A    between atoms: C_1  and  C_2
REMARK    2  A    between atoms: C_5  and  C_8
REMARK    3  A    between atoms: C_8  and  C_26
REMARK    4  A    between atoms: N_11  and  C_15
REMARK    5  A    between atoms: C_15  and  C_16
REMARK    6  A    between atoms: N_18  and  C_19
REMARK                            x       y       z     vdW  Elec       q    Type
REMARK                         _______ _______ _______ _____ _____    ______ ____
ROOT
ATOM      1  C   UNL     1       0.062  -4.279  -0.018  0.00  0.00    +0.135 C 
ATOM      2  C   UNL     1      -0.726  -4.834   1.152  0.00  0.00    +0.251 C 
ATOM      3  O   UNL     1      -0.498  -4.671   2.331  0.00  0.00    -0.272 OA
ATOM      4  N   UNL     1      -1.734  -5.545   0.608  0.00  0.00    -0.215 N 
ATOM      5  C   UNL     1      -1.692  -5.517  -0.729  0.00  0.00    +0.310 C 
ATOM      6  O   UNL     1      -2.496  -6.085  -1.442  0.00  0.00    -0.252 OA
ATOM      7  N   UNL     1      -0.660  -4.790  -1.196  0.00  0.00    -0.281 N 
ATOM      8  C   UNL     1       1.500  -4.803   0.000  0.00  0.00    +0.047 C 
ATOM      9  H   UNL     1      -0.436  -4.633  -2.126  0.00  0.00    +0.152 HD
ENDROOT
BRANCH   1  14
ATOM     10  C   UNL     1       0.006   1.499   0.050  0.00  0.00    +0.044 C 
ATOM     11  C   UNL     1       0.021  -0.008   0.032  0.00  0.00    -0.050 A 
ATOM     12  C   UNL     1       0.021  -0.685  -1.173  0.00  0.00    +0.004 A 
ATOM     13  C   UNL     1       0.034  -2.067  -1.189  0.00  0.00    +0.006 A 
ATOM     14  C   UNL     1       0.049  -2.773  -0.000  0.00  0.00    -0.015 A 
ATOM     15  C   UNL     1       0.050  -2.096   1.205  0.00  0.00    +0.006 A 
ATOM     16  C   UNL     1       0.041  -0.713   1.221  0.00  0.00    +0.004 A 
ENDBRANCH   1  14
BRANCH   4  17
ATOM     17  C   UNL     1      -2.749  -6.261   1.385  0.00  0.00    +0.214 C 
BRANCH  17  18
ATOM     18  C   UNL     1      -3.916  -5.345   1.651  0.00  0.00    +0.235 C 
ATOM     19  O   UNL     1      -3.901  -4.207   1.233  0.00  0.00    -0.274 OA
ATOM     20  N   UNL     1      -4.976  -5.791   2.354  0.00  0.00    -0.284 N 
ATOM     21  H   UNL     1      -5.018  -6.720   2.631  0.00  0.00    +0.155 HD
BRANCH  20  22
ATOM     22  C   UNL     1      -6.015  -4.914   2.684  0.00  0.00    +0.033 A 
ATOM     23  C   UNL     1      -6.677  -5.045   3.898  0.00  0.00    +0.024 A 
ATOM     24  C   UNL     1      -7.702  -4.178   4.221  0.00  0.00    +0.016 A 
ATOM     25  C   UNL     1      -8.071  -3.181   3.337  0.00  0.00    +0.013 A 
ATOM     26  C   UNL     1      -7.414  -3.048   2.127  0.00  0.00    +0.016 A 
ATOM     27  C   UNL     1      -6.384  -3.908   1.800  0.00  0.00    +0.024 A 
ATOM     28  I   UNL     1      -9.628  -1.869   3.830  0.00  0.00    -0.044 I 
ENDBRANCH  20  22
ENDBRANCH  17  18
ENDBRANCH   4  17
TORSDOF 4
