REMARK  Name = ZINC09347288
REMARK  10 active torsions:
REMARK  status: ('A' for Active; 'I' for Inactive)
REMARK    1  A    between atoms: C_1  and  C_2
REMARK    2  A    between atoms: C_2  and  O_3
REMARK    3  A    between atoms: O_3  and  C_4
REMARK    4  A    between atoms: C_4  and  C_6
REMARK    5  A    between atoms: C_10  and  N_11
REMARK    6  A    between atoms: C_12  and  C_14
REMARK    7  A    between atoms: C_14  and  S_15
REMARK    8  A    between atoms: S_15  and  C_16
REMARK    9  A    between atoms: C_22  and  C_24
REMARK   10  A    between atoms: C_24  and  C_25
REMARK                            x       y       z     vdW  Elec       q    Type
REMARK                         _______ _______ _______ _____ _____    ______ ____
ROOT
ATOM      1  C   UNL     1      -4.373   3.210  -9.880  0.00  0.00    +0.172 C 
ENDROOT
BRANCH   1   3
ATOM      2  N   UNL     1      -6.126   4.153 -11.348  0.00  0.00    -0.279 N 
ATOM      3  C   UNL     1      -4.965   3.478 -11.240  0.00  0.00    +0.228 C 
ATOM      4  O   UNL     1      -4.396   3.087 -12.237  0.00  0.00    -0.275 OA
ATOM      5  H   UNL     1      -6.643   4.508 -10.444  0.00  0.00    +0.155 HD
BRANCH   2  10
ATOM      6  C   UNL     1      -7.846   5.064 -12.911  0.00  0.00    +0.091 A 
ATOM      7  C   UNL     1      -8.195   5.193 -14.326  0.00  0.00    -0.021 A 
ATOM      8  C   UNL     1      -7.323   4.633 -15.183  0.00  0.00    -0.004 A 
ATOM      9  S   UNL     1      -6.051   3.946 -14.150  0.00  0.00    -0.077 S 
ATOM     10  C   UNL     1      -6.671   4.400 -12.599  0.00  0.00    +0.086 A 
ATOM     11  C   UNL     1      -7.750   4.804 -16.615  0.00  0.00    +0.043 C 
ATOM     12  C   UNL     1      -8.804   5.933 -16.574  0.00  0.00    +0.010 C 
ATOM     13  C   UNL     1      -9.336   5.814 -15.132  0.00  0.00    +0.037 C 
BRANCH   6  14
ATOM     14  C   UNL     1      -8.704   5.620 -11.863  0.00  0.00    +0.342 C 
ATOM     15  O   UNL     1      -8.533   6.762 -11.479  0.00  0.00    -0.245 OA
BRANCH  14  16
ATOM     16  O   UNL     1      -9.685   4.867 -11.324  0.00  0.00    -0.461 OA
BRANCH  16  18
ATOM     17  C   UNL     1     -11.548   4.484  -9.804  0.00  0.00    +0.048 C 
ATOM     18  C   UNL     1     -10.497   5.484 -10.290  0.00  0.00    +0.229 C 
ENDBRANCH  16  18
ENDBRANCH  14  16
ENDBRANCH   6  14
ENDBRANCH   2  10
ENDBRANCH   1   3
BRANCH   1  19
ATOM     19  S   UNL     1      -2.821   2.290 -10.067  0.00  0.00    -0.088 S 
BRANCH  19  20
ATOM     20  C   UNL     1      -2.262   2.057  -8.412  0.00  0.00    +0.160 A 
ATOM     21  N   UNL     1      -2.805   2.443  -7.267  0.00  0.00    -0.133 NA
ATOM     22  N   UNL     1      -2.266   2.191  -6.155  0.00  0.00    -0.125 NA
ATOM     23  C   UNL     1      -1.125   1.528  -6.063  0.00  0.00    +0.189 A 
ATOM     24  S   UNL     1      -0.792   1.239  -7.798  0.00  0.00    -0.024 S 
ATOM     25  N   UNL     1      -0.390   1.163  -4.938  0.00  0.00    -0.263 N 
ATOM     26  C   UNL     1      -0.832   1.494  -3.708  0.00  0.00    +0.219 C 
ATOM     27  O   UNL     1      -1.869   2.109  -3.582  0.00  0.00    -0.275 OA
ATOM     28  H   UNL     1       0.551   0.605  -5.052  0.00  0.00    +0.157 HD
BRANCH  26  29
ATOM     29  C   UNL     1      -0.037   1.099  -2.490  0.00  0.00    +0.099 C 
BRANCH  29  30
ATOM     30  C   UNL     1      -0.753   1.593  -1.232  0.00  0.00    -0.002 C 
ATOM     31  C   UNL     1      -0.013   1.086   0.008  0.00  0.00    +0.004 C 
ATOM     32  C   UNL     1      -0.729   1.579   1.267  0.00  0.00    +0.000 C 
ATOM     33  C   UNL     1      -0.750   3.109   1.275  0.00  0.00    +0.000 C 
ATOM     34  C   UNL     1      -1.490   3.616   0.036  0.00  0.00    +0.000 C 
ATOM     35  C   UNL     1      -0.773   3.123  -1.223  0.00  0.00    +0.004 C 
ENDBRANCH  29  30
ENDBRANCH  26  29
ENDBRANCH  19  20
ENDBRANCH   1  19
TORSDOF 9
