REMARK  Name = ZINC39533899
REMARK  9 active torsions:
REMARK  status: ('A' for Active; 'I' for Inactive)
REMARK    1  A    between atoms: C_4  and  C_7
REMARK    2  A    between atoms: C_10  and  C_13
REMARK    3  A    between atoms: C_13  and  C_15
REMARK    4  A    between atoms: C_13  and  N_18
REMARK    5  A    between atoms: C_15  and  N_16
REMARK    6  A    between atoms: N_16  and  O_17
REMARK    7  A    between atoms: C_22  and  S_25
REMARK    8  A    between atoms: S_25  and  O_28
REMARK    9  A    between atoms: O_28  and  C_29
REMARK                            x       y       z     vdW  Elec       q    Type
REMARK                         _______ _______ _______ _____ _____    ______ ____
ROOT
ATOM      1  C   UNL     1       7.434  -2.768  -0.085  0.00  0.00    +0.103 C 
ENDROOT
BRANCH   1   2
ATOM      2  N   UNL     1       7.290  -3.992  -0.884  0.00  0.00    -0.296 NA
ATOM      3  C   UNL     1       6.206  -4.837  -0.362  0.00  0.00    +0.066 C 
ATOM      4  C   UNL     1       6.049  -6.070  -1.255  0.00  0.00    -0.064 C 
ATOM      5  N   UNL     1       7.311  -6.821  -1.278  0.00  0.00    +0.398 N 
ATOM      6  C   UNL     1       8.379  -5.973  -1.824  0.00  0.00    +0.130 C 
ATOM      7  C   UNL     1       8.555  -4.740  -0.935  0.00  0.00    +0.095 C 
ATOM      8  H   UNL     1       7.551  -7.102  -0.339  0.00  0.00    -0.083 HD
ATOM      9  H   UNL     1       7.204  -7.641  -1.857  0.00  0.00    -0.083 HD
BRANCH   6  10
ATOM     10  S   UNL     1       9.931  -6.911  -1.871  0.00  0.00    +0.109 S 
ATOM     11  O   UNL     1      10.930  -6.170  -2.558  0.00  0.00    -0.138 OA
ATOM     12  O   UNL     1      10.199  -7.478  -0.596  0.00  0.00    -0.138 OA
BRANCH  10  13
ATOM     13  O   UNL     1       9.642  -8.102  -2.773  0.00  0.00    -0.347 OA
BRANCH  13  14
ATOM     14  C   UNL     1       9.591  -7.794  -4.096  0.00  0.00    +0.156 A 
ATOM     15  C   UNL     1       8.388  -7.417  -4.675  0.00  0.00    +0.048 A 
ATOM     16  C   UNL     1       8.339  -7.104  -6.020  0.00  0.00    +0.004 A 
ATOM     17  C   UNL     1       9.487  -7.166  -6.788  0.00  0.00    +0.000 A 
ATOM     18  C   UNL     1      10.687  -7.542  -6.213  0.00  0.00    +0.004 A 
ATOM     19  C   UNL     1      10.742  -7.850  -4.867  0.00  0.00    +0.048 A 
ENDBRANCH  13  14
ENDBRANCH  10  13
ENDBRANCH   6  10
ENDBRANCH   1   2
BRANCH   1  23
ATOM     20  C   UNL     1       4.342  -0.008  -1.135  0.00  0.00    -0.018 A 
ATOM     21  C   UNL     1       5.395   0.399  -0.318  0.00  0.00    +0.009 A 
ATOM     22  C   UNL     1       6.390  -0.496   0.018  0.00  0.00    +0.006 A 
ATOM     23  C   UNL     1       6.344  -1.795  -0.455  0.00  0.00    -0.029 A 
ATOM     24  C   UNL     1       5.302  -2.205  -1.267  0.00  0.00    +0.006 A 
ATOM     25  C   UNL     1       4.298  -1.320  -1.605  0.00  0.00    +0.009 A 
BRANCH  20  29
ATOM     26  C   UNL     1       1.267   2.736  -2.181  0.00  0.00    +0.000 A 
ATOM     27  C   UNL     1       2.312   3.147  -1.373  0.00  0.00    +0.001 A 
ATOM     28  C   UNL     1       3.313   2.261  -1.031  0.00  0.00    +0.008 A 
ATOM     29  C   UNL     1       3.269   0.949  -1.500  0.00  0.00    -0.018 A 
ATOM     30  C   UNL     1       2.214   0.541  -2.313  0.00  0.00    +0.008 A 
ATOM     31  C   UNL     1       1.219   1.436  -2.649  0.00  0.00    +0.001 A 
ENDBRANCH  20  29
ENDBRANCH   1  23
BRANCH   1  32
ATOM     32  C   UNL     1       7.326  -3.113   1.402  0.00  0.00    +0.134 C 
BRANCH  32  33
ATOM     33  N   UNL     1       8.366  -4.089   1.754  0.00  0.00    -0.202 NA
ATOM     34  H   UNL     1       9.283  -3.743   1.515  0.00  0.00    +0.154 HD
BRANCH  33  35
ATOM     35  O   UNL     1       8.293  -4.444   3.172  0.00  0.00    -0.315 OA
ATOM     36  H   UNL     1       8.960  -5.085   3.452  0.00  0.00    +0.236 HD
ENDBRANCH  33  35
ENDBRANCH  32  33
ENDBRANCH   1  32
TORSDOF 9
