REMARK  Name = ZINC03555624
REMARK  8 active torsions:
REMARK  status: ('A' for Active; 'I' for Inactive)
REMARK    1  A    between atoms: C_1  and  N_2
REMARK    2  A    between atoms: N_2  and  C_3
REMARK    3  A    between atoms: N_2  and  S_4
REMARK    4  A    between atoms: S_4  and  C_7
REMARK    5  A    between atoms: C_10  and  N_13
REMARK    6  A    between atoms: C_14  and  C_16
REMARK    7  A    between atoms: C_17  and  C_18
REMARK    8  A    between atoms: C_21  and  N_24
REMARK                            x       y       z     vdW  Elec       q    Type
REMARK                         _______ _______ _______ _____ _____    ______ ____
ROOT
ATOM      1  N   UNL     1       1.238  -2.079  -0.021  0.00  0.00    -0.282 N 
ATOM      2  C   UNL     1       0.186  -2.767  -0.509  0.00  0.00    +0.241 C 
ATOM      3  O   UNL     1      -0.743  -2.173  -1.025  0.00  0.00    -0.270 OA
ATOM      4  H   UNL     1       2.012  -2.553   0.320  0.00  0.00    +0.155 HD
ENDROOT
BRANCH   1   8
ATOM      5  C   UNL     1       1.163   2.086   0.018  0.00  0.00    +0.106 A 
ATOM      6  C   UNL     1      -0.008   1.373   0.199  0.00  0.00    +0.030 A 
ATOM      7  C   UNL     1       0.013  -0.008   0.187  0.00  0.00    +0.025 A 
ATOM      8  C   UNL     1       1.213  -0.681  -0.008  0.00  0.00    +0.034 A 
ATOM      9  C   UNL     1       2.387   0.038  -0.190  0.00  0.00    +0.025 A 
ATOM     10  C   UNL     1       2.359   1.419  -0.176  0.00  0.00    +0.030 A 
BRANCH   5  11
ATOM     11  S   UNL     1       1.132   3.847   0.034  0.00  0.00    +0.060 S 
ATOM     12  O   UNL     1       2.268   4.281  -0.701  0.00  0.00    -0.153 OA
ATOM     13  O   UNL     1      -0.192   4.233  -0.312  0.00  0.00    -0.153 OA
BRANCH  11  15
ATOM     14  C   UNL     1       2.729   4.564   2.095  0.00  0.00    +0.131 C 
ATOM     15  N   UNL     1       1.370   4.327   1.601  0.00  0.00    -0.183 NA
ATOM     16  C   UNL     1       0.223   4.515   2.492  0.00  0.00    +0.131 C 
ENDBRANCH  11  15
ENDBRANCH   5  11
ENDBRANCH   1   8
BRANCH   2  17
ATOM     17  C   UNL     1       0.162  -4.227  -0.418  0.00  0.00    +0.068 C 
ATOM     18  C   UNL     1      -0.890  -4.916  -0.905  0.00  0.00    +0.013 C 
BRANCH  18  19
ATOM     19  C   UNL     1      -0.914  -6.385  -0.814  0.00  0.00    -0.025 A 
ATOM     20  C   UNL     1       0.154  -7.070  -0.227  0.00  0.00    +0.010 A 
ATOM     21  C   UNL     1       0.121  -8.446  -0.140  0.00  0.00    +0.033 A 
ATOM     22  C   UNL     1      -0.961  -9.149  -0.641  0.00  0.00    +0.126 A 
ATOM     23  C   UNL     1      -2.019  -8.478  -1.229  0.00  0.00    +0.033 A 
ATOM     24  C   UNL     1      -2.004  -7.102  -1.318  0.00  0.00    +0.010 A 
BRANCH  22  25
ATOM     25  N   UNL     1      -0.986 -10.626  -0.549  0.00  0.00    +0.056 N 
ATOM     26  O   UNL     1      -1.936 -11.248  -0.989  0.00  0.00    -0.126 OA
ATOM     27  O   UNL     1      -0.056 -11.220  -0.032  0.00  0.00    -0.126 OA
ENDBRANCH  22  25
ENDBRANCH  18  19
ENDBRANCH   2  17
TORSDOF 6
