REMARK  Name = ZINC03998673
REMARK  7 active torsions:
REMARK  status: ('A' for Active; 'I' for Inactive)
REMARK    1  A    between atoms: C_1  and  C_2
REMARK    2  A    between atoms: C_2  and  O_3
REMARK    3  A    between atoms: O_3  and  C_4
REMARK    4  A    between atoms: C_8  and  N_10
REMARK    5  A    between atoms: C_14  and  C_23
REMARK    6  A    between atoms: C_23  and  C_24
REMARK    7  A    between atoms: C_23  and  C_25
REMARK                            x       y       z     vdW  Elec       q    Type
REMARK                         _______ _______ _______ _____ _____    ______ ____
ROOT
ATOM      1  C   UNL     1      -3.186   4.350  -1.974  0.00  0.00    +0.123 A 
ATOM      2  C   UNL     1      -3.401   3.136  -1.345  0.00  0.00    +0.051 A 
ATOM      3  C   UNL     1      -2.572   2.718  -0.312  0.00  0.00    -0.014 A 
ATOM      4  C   UNL     1      -1.523   3.528   0.087  0.00  0.00    +0.062 A 
ATOM      5  C   UNL     1      -1.308   4.750  -0.548  0.00  0.00    +0.151 A 
ATOM      6  C   UNL     1      -2.134   5.160  -1.573  0.00  0.00    +0.080 A 
ATOM      7  N   UNL     1      -0.656   3.165   1.121  0.00  0.00    -0.338 N 
ATOM      8  C   UNL     1      -0.572   1.714   1.286  0.00  0.00    +0.077 C 
ATOM      9  C   UNL     1      -1.968   1.152   1.563  0.00  0.00    +0.024 C 
ATOM     10  C   UNL     1      -2.858   1.391   0.325  0.00  0.00    +0.048 C 
ATOM     11  C   UNL     1      -2.499   0.261  -0.612  0.00  0.00    -0.023 C 
ATOM     12  C   UNL     1      -1.950  -0.727   0.049  0.00  0.00    -0.030 C 
ATOM     13  C   UNL     1      -1.873  -0.399   1.528  0.00  0.00    +0.033 C 
ATOM     14  H   UNL     1      -0.917   3.614   1.986  0.00  0.00    +0.146 HD
ENDROOT
BRANCH   5  15
ATOM     15  N   UNL     1      -0.185   5.614  -0.119  0.00  0.00    +0.058 N 
ATOM     16  O   UNL     1       0.007   6.682  -0.670  0.00  0.00    -0.126 OA
ATOM     17  O   UNL     1       0.547   5.255   0.786  0.00  0.00    -0.126 OA
ENDBRANCH   5  15
BRANCH   8  18
ATOM     18  C   UNL     1      -0.013   1.086   0.008  0.00  0.00    +0.003 C 
ATOM     19  C   UNL     1       1.498   0.889   0.154  0.00  0.00    +0.009 C 
ATOM     20  C   UNL     1      -0.294   2.009  -1.179  0.00  0.00    +0.009 C 
ENDBRANCH   8  18
BRANCH   1  21
ATOM     21  O   UNL     1      -4.005   4.747  -2.985  0.00  0.00    -0.492 OA
BRANCH  21  23
ATOM     22  C   UNL     1      -4.742   6.285  -4.697  0.00  0.00    +0.048 C 
ATOM     23  C   UNL     1      -3.723   6.011  -3.589  0.00  0.00    +0.225 C 
ENDBRANCH  21  23
ENDBRANCH   1  21
TORSDOF 4
