REMARK  Name = ZINC03522087
REMARK  7 active torsions:
REMARK  status: ('A' for Active; 'I' for Inactive)
REMARK    1  A    between atoms: C_1  and  C_2
REMARK    2  A    between atoms: C_2  and  C_4
REMARK    3  A    between atoms: C_2  and  S_10
REMARK    4  A    between atoms: S_10  and  C_11
REMARK    5  A    between atoms: C_14  and  C_23
REMARK    6  A    between atoms: N_15  and  C_16
REMARK    7  A    between atoms: C_16  and  C_17
REMARK                            x       y       z     vdW  Elec       q    Type
REMARK                         _______ _______ _______ _____ _____    ______ ____
ROOT
ATOM      1  C   UNL     1       2.413  -4.662   0.666  0.00  0.00    +0.193 A 
ATOM      2  N   UNL     1       1.429  -5.364   0.150  0.00  0.00    -0.122 NA
ATOM      3  N   UNL     1       1.599  -6.613   0.399  0.00  0.00    -0.128 NA
ATOM      4  C   UNL     1       2.697  -6.785   1.097  0.00  0.00    +0.167 A 
ATOM      5  N   UNL     1       3.253  -5.541   1.290  0.00  0.00    -0.298 N 
ENDROOT
BRANCH   4   6
ATOM      6  C   UNL     1       3.236  -8.072   1.584  0.00  0.00    +0.038 A 
ATOM      7  C   UNL     1       4.580  -8.392   1.382  0.00  0.00    +0.013 A 
ATOM      8  C   UNL     1       5.076  -9.595   1.839  0.00  0.00    +0.001 A 
ATOM      9  C   UNL     1       4.246 -10.485   2.498  0.00  0.00    +0.001 A 
ATOM     10  C   UNL     1       2.913 -10.175   2.703  0.00  0.00    +0.021 A 
ATOM     11  C   UNL     1       2.404  -8.972   2.255  0.00  0.00    +0.052 A 
ATOM     12 CL   UNL     1       0.733  -8.582   2.518  0.00  0.00    -0.083 Cl
ENDBRANCH   4   6
BRANCH   1  13
ATOM     13  S   UNL     1       2.610  -2.913   0.577  0.00  0.00    -0.073 S 
BRANCH  13  15
ATOM     14  C   UNL     1       1.250  -3.080  -1.786  0.00  0.00    +0.029 C 
ATOM     15  C   UNL     1       1.138  -2.481  -0.383  0.00  0.00    +0.137 C 
BRANCH  15  16
ATOM     16  C   UNL     1       1.028  -0.981  -0.485  0.00  0.00    +0.233 C 
ATOM     17  O   UNL     1       2.021  -0.292  -0.386  0.00  0.00    -0.274 OA
ATOM     18  N   UNL     1      -0.174  -0.406  -0.687  0.00  0.00    -0.239 N 
ATOM     19  C   UNL     1      -0.273   0.935  -0.778  0.00  0.00    +0.303 C 
ATOM     20  O   UNL     1       0.722   1.626  -0.679  0.00  0.00    -0.253 OA
ATOM     21  N   UNL     1      -1.474   1.510  -0.985  0.00  0.00    -0.313 N 
ATOM     22  H   UNL     1      -0.969  -0.957  -0.766  0.00  0.00    +0.159 HD
ATOM     23  H   UNL     1      -2.268   0.959  -1.069  0.00  0.00    +0.146 HD
ATOM     24  H   UNL     1      -1.545   2.475  -1.051  0.00  0.00    +0.146 HD
ENDBRANCH  15  16
ENDBRANCH  13  15
ENDBRANCH   1  13
BRANCH   5  25
ATOM     25  C   UNL     1       4.487  -5.225   2.013  0.00  0.00    +0.161 C 
BRANCH  25  26
ATOM     26  C   UNL     1       4.173  -5.002   3.470  0.00  0.00    -0.028 A 
ATOM     27  C   UNL     1       3.847  -3.736   3.921  0.00  0.00    +0.005 A 
ATOM     28  C   UNL     1       3.554  -3.533   5.256  0.00  0.00    +0.000 A 
ATOM     29  C   UNL     1       3.597  -4.593   6.143  0.00  0.00    +0.000 A 
ATOM     30  C   UNL     1       3.928  -5.857   5.693  0.00  0.00    +0.000 A 
ATOM     31  C   UNL     1       4.216  -6.062   4.356  0.00  0.00    +0.005 A 
ENDBRANCH  25  26
ENDBRANCH   5  25
TORSDOF 6
