REMARK  Name = ZINC65374646
REMARK  9 active torsions:
REMARK  status: ('A' for Active; 'I' for Inactive)
REMARK    1  A    between atoms: C_1  and  C_2
REMARK    2  A    between atoms: C_4  and  N_8
REMARK    3  A    between atoms: C_9  and  C_18
REMARK    4  A    between atoms: C_12  and  C_15
REMARK    5  A    between atoms: C_15  and  C_16
REMARK    6  A    between atoms: C_15  and  C_17
REMARK    7  A    between atoms: C_18  and  C_20
REMARK    8  A    between atoms: C_18  and  N_27
REMARK    9  A    between atoms: C_20  and  C_21
REMARK                            x       y       z     vdW  Elec       q    Type
REMARK                         _______ _______ _______ _____ _____    ______ ____
ROOT
ATOM      1  N   UNL     1       0.157  -2.656  -1.891  0.00  0.00    -0.246 N 
ATOM      2  C   UNL     1       0.174  -4.054  -2.353  0.00  0.00    +0.182 C 
ATOM      3  N   UNL     1       0.045  -4.002  -3.830  0.00  0.00    -0.279 NA
ATOM      4  C   UNL     1      -0.564  -2.661  -4.055  0.00  0.00    +0.143 C 
ATOM      5  N   UNL     1       0.065  -1.839  -2.993  0.00  0.00    -0.221 NA
ATOM      6  H   UNL     1       0.948  -4.068  -4.274  0.00  0.00    +0.125 HD
ATOM      7  H   UNL     1       0.977  -1.516  -3.281  0.00  0.00    +0.146 HD
ENDROOT
BRANCH   1  11
ATOM      8  C   UNL     1       0.528   0.955   1.428  0.00  0.00    +0.063 C 
ATOM      9  C   UNL     1       0.396  -0.504   1.074  0.00  0.00    +0.015 A 
ATOM     10  C   UNL     1       0.340  -0.881  -0.251  0.00  0.00    +0.045 A 
ATOM     11  C   UNL     1       0.218  -2.234  -0.567  0.00  0.00    +0.049 A 
ATOM     12  C   UNL     1       0.159  -3.154   0.481  0.00  0.00    +0.042 A 
ATOM     13  C   UNL     1       0.222  -2.695   1.780  0.00  0.00    +0.084 A 
ATOM     14  N   UNL     1       0.342  -1.406   2.037  0.00  0.00    -0.364 N 
ATOM     15  H   UNL     1       0.388  -1.112   2.960  0.00  0.00    +0.165 HD
ENDBRANCH   1  11
BRANCH   4  16
ATOM     16  C   UNL     1      -0.209  -2.130  -5.445  0.00  0.00    +0.016 C 
ATOM     17  C   UNL     1      -0.734  -3.095  -6.509  0.00  0.00    +0.010 C 
ATOM     18  C   UNL     1      -0.848  -0.754  -5.643  0.00  0.00    +0.010 C 
ENDBRANCH   4  16
BRANCH   2  19
ATOM     19  C   UNL     1       1.494  -4.721  -1.962  0.00  0.00    +0.129 C 
BRANCH  19  20
ATOM     20  N   UNL     1       2.614  -3.916  -2.455  0.00  0.00    -0.347 N 
ATOM     21  C   UNL     1       3.064  -3.885  -3.742  0.00  0.00    +0.086 A 
ATOM     22  C   UNL     1       4.105  -3.030  -3.804  0.00  0.00    +0.019 A 
ATOM     23  C   UNL     1       4.304  -2.513  -2.508  0.00  0.00    +0.019 A 
ATOM     24  C   UNL     1       3.374  -3.068  -1.705  0.00  0.00    +0.086 A 
ENDBRANCH  19  20
BRANCH  19  25
ATOM     25  C   UNL     1       1.561  -6.120  -2.579  0.00  0.00    +0.083 C 
BRANCH  25  26
ATOM     26  C   UNL     1       2.799  -6.826  -2.090  0.00  0.00    +0.035 A 
ATOM     27  H   UNL     1       4.584  -8.530  -0.181  0.00  0.00    +0.166 HD
ATOM     28  C   UNL     1       2.913  -7.518  -0.941  0.00  0.00    +0.105 A 
ATOM     29  N   UNL     1       4.196  -7.992  -0.890  0.00  0.00    -0.352 N 
ATOM     30  C   UNL     1       4.822  -7.573  -2.010  0.00  0.00    +0.171 A 
ATOM     31  N   UNL     1       3.979  -6.880  -2.726  0.00  0.00    -0.350 N 
ATOM     32  H   UNL     1       4.175  -6.467  -3.582  0.00  0.00    +0.166 HD
ENDBRANCH  25  26
ENDBRANCH  19  25
ENDBRANCH   2  19
TORSDOF 6
