REMARK  Name = ZINC23865651
REMARK  12 active torsions:
REMARK  status: ('A' for Active; 'I' for Inactive)
REMARK    1  A    between atoms: C_1  and  C_2
REMARK    2  A    between atoms: C_2  and  O_3
REMARK    3  A    between atoms: O_3  and  C_4
REMARK    4  A    between atoms: C_4  and  C_6
REMARK    5  A    between atoms: C_7  and  C_20
REMARK    6  A    between atoms: C_12  and  C_14
REMARK    7  A    between atoms: C_20  and  O_21
REMARK    8  A    between atoms: O_21  and  C_22
REMARK    9  A    between atoms: C_22  and  C_24
REMARK   10  A    between atoms: N_29  and  C_31
REMARK   11  A    between atoms: C_31  and  C_32
REMARK   12  A    between atoms: C_35  and  C_38
REMARK                            x       y       z     vdW  Elec       q    Type
REMARK                         _______ _______ _______ _____ _____    ______ ____
ROOT
ATOM      1  C   UNL     1      -0.223   1.352  -2.438  0.00  0.00    +0.081 C 
ATOM      2  C   UNL     1      -0.731   1.603  -1.212  0.00  0.00    +0.061 C 
ATOM      3  N   UNL     1      -1.902   2.289  -1.062  0.00  0.00    -0.269 N 
ATOM      4  C   UNL     1      -2.628   2.752  -2.087  0.00  0.00    +0.304 C 
ATOM      5  O   UNL     1      -3.659   3.353  -1.853  0.00  0.00    -0.252 OA
ATOM      6  N   UNL     1      -2.254   2.575  -3.369  0.00  0.00    -0.288 N 
ATOM      7  C   UNL     1      -1.003   1.846  -3.639  0.00  0.00    +0.144 C 
ATOM      8  H   UNL     1      -2.298   2.488  -0.055  0.00  0.00    +0.156 HD
ATOM      9  H   UNL     1      -2.858   2.959  -4.204  0.00  0.00    +0.151 HD
ENDROOT
BRANCH   7  10
ATOM     10  C   UNL     1      -1.335   0.657  -4.503  0.00  0.00    -0.022 A 
ATOM     11  C   UNL     1      -2.482  -0.076  -4.259  0.00  0.00    +0.006 A 
ATOM     12  C   UNL     1      -2.789  -1.164  -5.054  0.00  0.00    +0.000 A 
ATOM     13  C   UNL     1      -1.945  -1.525  -6.088  0.00  0.00    +0.000 A 
ATOM     14  C   UNL     1      -0.796  -0.795  -6.329  0.00  0.00    +0.000 A 
ATOM     15  C   UNL     1      -0.491   0.295  -5.537  0.00  0.00    +0.006 A 
ENDBRANCH   7  10
BRANCH   1  16
ATOM     16  C   UNL     1       0.993   0.646  -2.595  0.00  0.00    +0.339 C 
ATOM     17  O   UNL     1       1.544   0.160  -1.625  0.00  0.00    -0.245 OA
BRANCH  16  18
ATOM     18  O   UNL     1       1.542   0.513  -3.820  0.00  0.00    -0.462 OA
BRANCH  18  20
ATOM     19  C   UNL     1       3.237  -0.257  -5.362  0.00  0.00    +0.048 C 
ATOM     20  C   UNL     1       2.771  -0.211  -3.905  0.00  0.00    +0.229 C 
ENDBRANCH  18  20
ENDBRANCH  16  18
ENDBRANCH   1  16
BRANCH   2  21
ATOM     21  C   UNL     1       0.010   1.125   0.010  0.00  0.00    +0.283 C 
BRANCH  21  22
ATOM     22  O   UNL     1      -0.662   1.607   1.203  0.00  0.00    -0.458 OA
BRANCH  22  23
ATOM     23  C   UNL     1      -0.124   1.267   2.385  0.00  0.00    +0.313 C 
ATOM     24  O   UNL     1       0.875   0.588   2.421  0.00  0.00    -0.250 OA
BRANCH  23  25
ATOM     25  C   UNL     1      -0.767   1.731   3.667  0.00  0.00    +0.124 C 
ATOM     26  C   UNL     1      -0.710   3.271   3.788  0.00  0.00    +0.112 C 
ATOM     27  C   UNL     1       0.555   3.535   4.575  0.00  0.00    +0.217 C 
ATOM     28  O   UNL     1       1.115   4.608   4.651  0.00  0.00    -0.276 OA
ATOM     29  N   UNL     1       0.967   2.407   5.179  0.00  0.00    -0.296 N 
ATOM     30  C   UNL     1       0.062   1.287   4.893  0.00  0.00    +0.123 C 
BRANCH  29  31
ATOM     31  C   UNL     1       2.167   2.308   6.014  0.00  0.00    +0.142 C 
BRANCH  31  32
ATOM     32  C   UNL     1       1.806   2.605   7.447  0.00  0.00    -0.030 A 
ATOM     33  C   UNL     1       1.871   3.901   7.922  0.00  0.00    +0.005 A 
ATOM     34  C   UNL     1       1.535   4.174   9.235  0.00  0.00    +0.003 A 
ATOM     35  C   UNL     1       1.145   3.148  10.076  0.00  0.00    -0.050 A 
ATOM     36  C   UNL     1       1.087   1.851   9.603  0.00  0.00    +0.003 A 
ATOM     37  C   UNL     1       1.417   1.579   8.288  0.00  0.00    +0.005 A 
ATOM     38  C   UNL     1       0.785   3.445  11.509  0.00  0.00    +0.044 C 
ENDBRANCH  31  32
ENDBRANCH  29  31
ENDBRANCH  23  25
ENDBRANCH  22  23
ENDBRANCH  21  22
ENDBRANCH   2  21
TORSDOF 10
