REMARK  Name = ZINC64693642
REMARK  5 active torsions:
REMARK  status: ('A' for Active; 'I' for Inactive)
REMARK    1  A    between atoms: C_1  and  C_2
REMARK    2  A    between atoms: C_11  and  N_15
REMARK    3  A    between atoms: N_15  and  C_16
REMARK    4  A    between atoms: C_16  and  C_17
REMARK    5  A    between atoms: C_17  and  C_18
REMARK                            x       y       z     vdW  Elec       q    Type
REMARK                         _______ _______ _______ _____ _____    ______ ____
ROOT
ATOM      1  N   UNL     1       0.921  -4.705  -2.361  0.00  0.00    -0.328 N 
ATOM      2  H   UNL     1       0.609  -3.808  -2.557  0.00  0.00    +0.147 HD
ENDROOT
BRANCH   1  12
ATOM      3  C   UNL     1       0.062   1.544  -0.006  0.00  0.00    +0.008 C 
ATOM      4  C   UNL     1       0.065   0.014  -0.010  0.00  0.00    -0.009 C 
ATOM      5  C   UNL     1       0.779  -0.496  -1.266  0.00  0.00    +0.008 C 
ATOM      6  C   UNL     1       0.571  -2.004  -1.403  0.00  0.00    +0.037 C 
ATOM      7  C   UNL     1       0.981  -2.681  -0.098  0.00  0.00    -0.025 A 
ATOM      8  C   UNL     1       1.075  -1.967   1.046  0.00  0.00    -0.004 A 
ATOM      9  S   UNL     1       1.571  -3.136   2.288  0.00  0.00    -0.073 S 
ATOM     10  C   UNL     1       1.654  -4.577   1.275  0.00  0.00    +0.114 A 
ATOM     11  C   UNL     1       1.288  -4.099  -0.009  0.00  0.00    +0.051 A 
ATOM     12  C   UNL     1       1.262  -5.053  -1.067  0.00  0.00    +0.130 A 
ATOM     13  N   UNL     1       1.587  -6.300  -0.732  0.00  0.00    -0.220 NA
ATOM     14  C   UNL     1       1.917  -6.672   0.489  0.00  0.00    +0.224 A 
ATOM     15  N   UNL     1       1.962  -5.835   1.519  0.00  0.00    -0.228 NA
ATOM     16  C   UNL     1       0.812  -0.503   1.228  0.00  0.00    +0.046 C 
ENDBRANCH   1  12
BRANCH   1  17
ATOM     17  C   UNL     1       1.029  -5.693  -3.438  0.00  0.00    +0.107 C 
BRANCH  17  18
ATOM     18  C   UNL     1       0.594  -5.057  -4.760  0.00  0.00    +0.065 C 
BRANCH  18  19
ATOM     19  C   UNL     1       0.708  -6.088  -5.884  0.00  0.00    +0.175 C 
ATOM     20  N   UNL     1       2.108  -6.496  -6.054  0.00  0.00    -0.363 N 
ATOM     21  C   UNL     1       2.462  -6.180  -7.266  0.00  0.00    +0.060 A 
ATOM     22  C   UNL     1       3.719  -6.334  -8.011  0.00  0.00    +0.027 A 
ATOM     23  C   UNL     1       3.794  -5.901  -9.286  0.00  0.00    +0.002 A 
ATOM     24  C   UNL     1       2.709  -5.299  -9.947  0.00  0.00    +0.002 A 
ATOM     25  C   UNL     1       1.512  -5.110  -9.356  0.00  0.00    +0.027 A 
ATOM     26  C   UNL     1       1.313  -5.543  -7.966  0.00  0.00    +0.060 A 
ATOM     27  N   UNL     1       0.293  -5.491  -7.160  0.00  0.00    -0.363 N 
ATOM     28  H   UNL     1       2.666  -6.923  -5.386  0.00  0.00    +0.162 HD
ATOM     29  H   UNL     1      -0.582  -5.125  -7.364  0.00  0.00    +0.162 HD
ENDBRANCH  18  19
ENDBRANCH  17  18
ENDBRANCH   1  17
TORSDOF 4
