REMARK  Name = ZINC27819406
REMARK  7 active torsions:
REMARK  status: ('A' for Active; 'I' for Inactive)
REMARK    1  A    between atoms: C_1  and  C_2
REMARK    2  A    between atoms: C_2  and  N_3
REMARK    3  A    between atoms: C_12  and  S_13
REMARK    4  A    between atoms: S_13  and  C_14
REMARK    5  A    between atoms: C_14  and  C_15
REMARK    6  A    between atoms: N_17  and  C_18
REMARK    7  A    between atoms: C_23  and  N_24
REMARK                            x       y       z     vdW  Elec       q    Type
REMARK                         _______ _______ _______ _____ _____    ______ ____
ROOT
ATOM      1  C   UNL     1      -0.018   1.075   0.007  0.00  0.00    +0.173 C 
ENDROOT
BRANCH   1   2
ATOM      2  C   UNL     1      -0.740   1.586  -1.213  0.00  0.00    +0.228 C 
ATOM      3  O   UNL     1      -1.725   2.281  -1.089  0.00  0.00    -0.275 OA
ATOM      4  N   UNL     1      -0.289   1.270  -2.444  0.00  0.00    -0.283 N 
ATOM      5  H   UNL     1       0.655   0.717  -2.558  0.00  0.00    +0.155 HD
BRANCH   4   6
ATOM      6  C   UNL     1      -1.022   1.645  -3.575  0.00  0.00    +0.064 A 
ATOM      7  C   UNL     1      -2.392   1.851  -3.480  0.00  0.00    +0.027 A 
ATOM      8  C   UNL     1      -3.113   2.222  -4.598  0.00  0.00    +0.022 A 
ATOM      9  C   UNL     1      -2.471   2.389  -5.813  0.00  0.00    +0.043 A 
ATOM     10  C   UNL     1      -1.106   2.184  -5.910  0.00  0.00    +0.054 A 
ATOM     11  C   UNL     1      -0.380   1.818  -4.794  0.00  0.00    +0.149 A 
ATOM     12 CL   UNL     1      -3.381   2.854  -7.216  0.00  0.00    -0.083 Cl
BRANCH  11  13
ATOM     13  N   UNL     1       1.081   1.605  -4.898  0.00  0.00    +0.058 N 
ATOM     14  O   UNL     1       1.658   1.843  -5.944  0.00  0.00    -0.126 OA
ATOM     15  O   UNL     1       1.706   1.192  -3.938  0.00  0.00    -0.126 OA
ENDBRANCH  11  13
ENDBRANCH   4   6
ENDBRANCH   1   2
BRANCH   1  16
ATOM     16  S   UNL     1      -0.860   1.667   1.497  0.00  0.00    -0.078 S 
BRANCH  16  26
ATOM     17  N   UNL     1      -0.143   1.164   4.047  0.00  0.00    -0.287 N 
ATOM     18  C   UNL     1       0.632   0.610   5.010  0.00  0.00    +0.269 A 
ATOM     19  O   UNL     1       0.384   0.785   6.191  0.00  0.00    -0.266 OA
ATOM     20  C   UNL     1       1.724  -0.159   4.615  0.00  0.00    +0.102 A 
ATOM     21  C   UNL     1       2.025  -0.370   3.258  0.00  0.00    +0.086 A 
ATOM     22  C   UNL     1       3.152  -1.165   3.006  0.00  0.00    +0.036 A 
ATOM     23  C   UNL     1       3.868  -1.672   4.032  0.00  0.00    +0.048 A 
ATOM     24  S   UNL     1       2.996  -1.058   5.463  0.00  0.00    -0.090 S 
ATOM     25  N   UNL     1       1.185   0.223   2.357  0.00  0.00    -0.222 NA
ATOM     26  C   UNL     1       0.164   0.943   2.735  0.00  0.00    +0.173 A 
BRANCH  17  28
ATOM     27  C   UNL     1      -2.538   1.097   4.538  0.00  0.00    +0.027 C 
ATOM     28  C   UNL     1      -1.300   1.987   4.409  0.00  0.00    +0.124 C 
ENDBRANCH  17  28
ENDBRANCH  16  26
ENDBRANCH   1  16
TORSDOF 6
