REMARK  Name = ZINC39693513
REMARK  12 active torsions:
REMARK  status: ('A' for Active; 'I' for Inactive)
REMARK    1  A    between atoms: C_1  and  C_2
REMARK    2  A    between atoms: C_2  and  C_3
REMARK    3  A    between atoms: C_2  and  C_4
REMARK    4  A    between atoms: C_2  and  O_5
REMARK    5  A    between atoms: O_5  and  C_6
REMARK    6  A    between atoms: N_8  and  C_9
REMARK    7  A    between atoms: C_9  and  C_10
REMARK    8  A    between atoms: C_10  and  N_11
REMARK    9  A    between atoms: C_12  and  C_14
REMARK   10  A    between atoms: C_25  and  C_27
REMARK   11  A    between atoms: C_32  and  O_33
REMARK   12  A    between atoms: O_33  and  C_34
REMARK                            x       y       z     vdW  Elec       q    Type
REMARK                         _______ _______ _______ _____ _____    ______ ____
ROOT
ATOM      1  C   UNL     1       7.652  -0.563  -5.438  0.00  0.00    +0.100 C 
ATOM      2  C   UNL     1       8.600  -0.834  -4.248  0.00  0.00    +0.121 C 
ATOM      3  N   UNL     1       9.353  -2.049  -4.638  0.00  0.00    -0.296 N 
ATOM      4  C   UNL     1       9.621  -1.868  -6.085  0.00  0.00    +0.115 C 
ATOM      5  C   UNL     1       8.328  -1.240  -6.643  0.00  0.00    -0.004 C 
ATOM      6  C   UNL     1       7.421  -2.324  -7.216  0.00  0.00    -0.010 C 
ATOM      7  C   UNL     1       8.089  -2.944  -8.447  0.00  0.00    -0.082 C 
ATOM      8  N   UNL     1       8.334  -1.901  -9.450  0.00  0.00    +0.379 N 
ATOM      9  C   UNL     1       9.280  -0.910  -8.923  0.00  0.00    -0.082 C 
ATOM     10  C   UNL     1       8.662  -0.205  -7.713  0.00  0.00    -0.010 C 
ATOM     11  C   UNL     1       9.714  -3.085  -3.855  0.00  0.00    +0.252 C 
ATOM     12  O   UNL     1      10.416  -3.970  -4.303  0.00  0.00    -0.270 OA
ATOM     13  H   UNL     1       8.718  -2.321 -10.283  0.00  0.00    -0.086 HD
ATOM     14  H   UNL     1       7.463  -1.445  -9.678  0.00  0.00    -0.086 HD
ENDROOT
BRANCH  11  15
ATOM     15  C   UNL     1       9.257  -3.143  -2.454  0.00  0.00    +0.099 A 
ATOM     16  C   UNL     1       9.114  -1.972  -1.701  0.00  0.00    +0.020 A 
ATOM     17  C   UNL     1       8.682  -2.081  -0.391  0.00  0.00    +0.021 A 
ATOM     18  C   UNL     1       8.406  -3.332   0.132  0.00  0.00    +0.114 A 
ATOM     19  N   UNL     1       8.547  -4.423  -0.595  0.00  0.00    -0.220 NA
ATOM     20  C   UNL     1       8.952  -4.374  -1.853  0.00  0.00    +0.233 A 
BRANCH  20  21
ATOM     21  O   UNL     1       9.078  -5.520  -2.564  0.00  0.00    -0.437 OA
BRANCH  21  22
ATOM     22  C   UNL     1       8.868  -6.697  -1.919  0.00  0.00    +0.130 A 
ATOM     23  C   UNL     1       9.948  -7.477  -1.528  0.00  0.00    +0.046 A 
ATOM     24  C   UNL     1       9.732  -8.674  -0.873  0.00  0.00    +0.004 A 
ATOM     25  C   UNL     1       8.443  -9.094  -0.605  0.00  0.00    +0.000 A 
ATOM     26  C   UNL     1       7.365  -8.319  -0.994  0.00  0.00    +0.004 A 
ATOM     27  C   UNL     1       7.575  -7.119  -1.645  0.00  0.00    +0.046 A 
ENDBRANCH  21  22
ENDBRANCH  20  21
ENDBRANCH  11  15
BRANCH   1  29
ATOM     28  N   UNL     1       5.197  -0.629  -5.733  0.00  0.00    -0.314 N 
ATOM     29  C   UNL     1       6.300  -1.175  -5.182  0.00  0.00    +0.218 C 
ATOM     30  O   UNL     1       6.203  -2.160  -4.481  0.00  0.00    -0.275 OA
ATOM     31  H   UNL     1       5.275   0.158  -6.295  0.00  0.00    +0.149 HD
BRANCH  28  32
ATOM     32  C   UNL     1       3.882  -1.225  -5.484  0.00  0.00    +0.123 C 
BRANCH  32  33
ATOM     33  C   UNL     1       2.810  -0.419  -6.220  0.00  0.00    +0.126 C 
BRANCH  33  36
ATOM     34  C   UNL     1       0.393  -0.469  -6.522  0.00  0.00    +0.401 C 
ATOM     35  O   UNL     1       0.490   0.518  -7.225  0.00  0.00    -0.226 OA
ATOM     36  N   UNL     1       1.495  -1.015  -5.971  0.00  0.00    -0.280 N 
ATOM     37  H   UNL     1       1.417  -1.802  -5.410  0.00  0.00    +0.152 HD
BRANCH  34  38
ATOM     38  O   UNL     1      -0.816  -1.016  -6.294  0.00  0.00    -0.445 OA
BRANCH  38  40
ATOM     39  C   UNL     1      -1.764  -0.398  -8.429  0.00  0.00    +0.055 C 
ATOM     40  C   UNL     1      -1.941  -0.385  -6.909  0.00  0.00    +0.107 C 
ATOM     41  C   UNL     1      -2.046   1.061  -6.420  0.00  0.00    +0.055 C 
ATOM     42  C   UNL     1      -3.217  -1.143  -6.537  0.00  0.00    +0.055 C 
ENDBRANCH  38  40
ENDBRANCH  34  38
ENDBRANCH  33  36
ENDBRANCH  32  33
ENDBRANCH  28  32
ENDBRANCH   1  29
TORSDOF 9
