REMARK  Name = ZINC13063851
REMARK  11 active torsions:
REMARK  status: ('A' for Active; 'I' for Inactive)
REMARK    1  A    between atoms: C_1  and  C_2
REMARK    2  A    between atoms: C_2  and  C_3
REMARK    3  A    between atoms: C_3  and  C_5
REMARK    4  A    between atoms: C_3  and  N_64
REMARK    5  A    between atoms: N_9  and  C_10
REMARK    6  A    between atoms: C_10  and  C_11
REMARK    7  A    between atoms: C_17  and  C_18
REMARK    8  A    between atoms: C_17  and  N_64
REMARK    9  A    between atoms: C_23  and  C_24
REMARK   10  A    between atoms: C_23  and  N_64
REMARK   11  A    between atoms: C_29  and  C_36
REMARK                            x       y       z     vdW  Elec       q    Type
REMARK                         _______ _______ _______ _____ _____    ______ ____
ROOT
ATOM      1  N   UNL     1      -4.310   2.182  -1.483  0.00  0.00    +0.392 N 
ATOM      2  H   UNL     1      -4.438   1.378  -2.109  0.00  0.00    -0.080 HD
ENDROOT
BRANCH   1   3
ATOM      3  C   UNL     1      -5.637   2.698  -1.087  0.00  0.00    +0.003 C 
BRANCH   3   4
ATOM      4  C   UNL     1      -5.502   3.698   0.032  0.00  0.00    +0.138 A 
ATOM      5  N   UNL     1      -4.763   3.573   1.108  0.00  0.00    -0.115 NA
ATOM      6  N   UNL     1      -4.916   4.635   1.821  0.00  0.00    -0.023 NA
ATOM      7  N   UNL     1      -5.734   5.434   1.228  0.00  0.00    -0.044 NA
ATOM      8  N   UNL     1      -6.113   4.894   0.120  0.00  0.00    -0.228 N 
BRANCH   8   9
ATOM      9  C   UNL     1      -7.038   5.472  -0.858  0.00  0.00    +0.178 C 
BRANCH   9  10
ATOM     10  C   UNL     1      -8.478   5.174  -0.437  0.00  0.00    +0.140 C 
ATOM     11  C   UNL     1      -9.456   5.679  -1.520  0.00  0.00    +0.035 C 
ATOM     12  C   UNL     1     -10.621   6.254  -0.670  0.00  0.00    +0.031 C 
ATOM     13  C   UNL     1      -9.848   6.805   0.555  0.00  0.00    +0.160 C 
ATOM     14  O   UNL     1      -8.782   5.868   0.778  0.00  0.00    -0.375 OA
ENDBRANCH   9  10
ENDBRANCH   8   9
ENDBRANCH   3   4
BRANCH   3  16
ATOM     15  C   UNL     1      -6.711   0.553  -1.785  0.00  0.00    +0.002 C 
ATOM     16  C   UNL     1      -6.503   1.525  -0.623  0.00  0.00    -0.011 C 
ENDBRANCH   3  16
ENDBRANCH   1   3
BRANCH   1  17
ATOM     17  C   UNL     1      -3.553   3.231  -2.198  0.00  0.00    -0.034 C 
BRANCH  17  18
ATOM     18  C   UNL     1      -4.126   3.383  -3.583  0.00  0.00    -0.027 A 
ATOM     19  C   UNL     1      -5.048   4.269  -4.034  0.00  0.00    +0.009 A 
ATOM     20  C   UNL     1      -5.426   4.225  -5.362  0.00  0.00    +0.008 A 
ATOM     21  C   UNL     1      -4.872   3.291  -6.173  0.00  0.00    +0.045 A 
ATOM     22  S   UNL     1      -3.773   2.437  -5.056  0.00  0.00    -0.103 S 
ENDBRANCH  17  18
ENDBRANCH   1  17
BRANCH   1  23
ATOM     23  C   UNL     1      -3.561   1.744  -0.287  0.00  0.00    -0.036 C 
BRANCH  23  24
ATOM     24  C   UNL     1      -2.401   0.888  -0.729  0.00  0.00    +0.001 A 
ATOM     25  C   UNL     1      -1.173   1.442  -0.882  0.00  0.00    +0.017 A 
ATOM     26  C   UNL     1      -0.069   0.585  -1.318  0.00  0.00    -0.001 A 
ATOM     27  C   UNL     1       1.219   1.100  -1.498  0.00  0.00    +0.010 A 
ATOM     28  C   UNL     1       2.229   0.272  -1.901  0.00  0.00    +0.004 A 
ATOM     29  C   UNL     1       1.988  -1.076  -2.131  0.00  0.00    -0.048 A 
ATOM     30  C   UNL     1       0.727  -1.605  -1.959  0.00  0.00    +0.029 A 
ATOM     31  C   UNL     1      -0.317  -0.781  -1.550  0.00  0.00    +0.049 A 
ATOM     32  N   UNL     1      -1.588  -1.284  -1.370  0.00  0.00    -0.322 N 
ATOM     33  H   UNL     1      -1.757  -2.225  -1.531  0.00  0.00    +0.169 HD
ATOM     34  C   UNL     1      -2.597  -0.487  -0.975  0.00  0.00    +0.251 A 
ATOM     35  O   UNL     1      -3.708  -0.966  -0.826  0.00  0.00    -0.268 OA
ATOM     36  C   UNL     1       3.118  -1.970  -2.574  0.00  0.00    +0.044 C 
ENDBRANCH  23  24
ENDBRANCH   1  23
TORSDOF 9
