REMARK  Name = ZINC12825302
REMARK  12 active torsions:
REMARK  status: ('A' for Active; 'I' for Inactive)
REMARK    1  A    between atoms: C_1  and  C_2
REMARK    2  A    between atoms: C_2  and  N_61
REMARK    3  A    between atoms: C_3  and  C_4
REMARK    4  A    between atoms: C_3  and  N_61
REMARK    5  A    between atoms: C_15  and  C_16
REMARK    6  A    between atoms: C_15  and  N_61
REMARK    7  A    between atoms: N_18  and  C_19
REMARK    8  A    between atoms: C_20  and  C_32
REMARK    9  A    between atoms: C_21  and  C_31
REMARK   10  A    between atoms: C_22  and  C_30
REMARK   11  A    between atoms: N_23  and  C_24
REMARK   12  A    between atoms: C_24  and  C_25
REMARK                            x       y       z     vdW  Elec       q    Type
REMARK                         _______ _______ _______ _____ _____    ______ ____
ROOT
ATOM      1  C   UNL     1       1.046   7.939  -2.652  0.00  0.00    +0.202 C 
ATOM      2  O   UNL     1       1.635   8.404  -3.604  0.00  0.00    -0.278 OA
ATOM      3  N   UNL     1       1.414   8.277  -1.400  0.00  0.00    -0.272 N 
ATOM      4  H   UNL     1       1.392   7.615  -0.692  0.00  0.00    +0.156 HD
ENDROOT
BRANCH   3   5
ATOM      5  C   UNL     1       1.824   9.573  -1.125  0.00  0.00    +0.124 A 
ATOM      6  C   UNL     1       1.631  10.255   0.069  0.00  0.00    +0.095 A 
ATOM      7  C   UNL     1       2.235  11.579  -0.120  0.00  0.00    -0.011 A 
ATOM      8  C   UNL     1       2.725  11.605  -1.370  0.00  0.00    +0.022 A 
ATOM      9  N   UNL     1       2.481  10.402  -1.977  0.00  0.00    -0.324 N 
ATOM     10  C   UNL     1       3.434  12.774  -2.005  0.00  0.00    +0.064 C 
ATOM     11  C   UNL     1       2.291  12.695   0.891  0.00  0.00    +0.047 C 
BRANCH   6  12
ATOM     12  C   UNL     1       0.977   9.765   1.245  0.00  0.00    +0.103 C 
ATOM     13  N   UNL     1       0.458   9.377   2.178  0.00  0.00    -0.191 NA
ENDBRANCH   6  12
BRANCH   9  14
ATOM     14  C   UNL     1       2.870  10.059  -3.347  0.00  0.00    +0.197 C 
BRANCH  14  15
ATOM     15  C   UNL     1       1.712  10.312  -4.277  0.00  0.00    +0.124 A 
ATOM     16  C   UNL     1       1.804  10.622  -5.582  0.00  0.00    +0.046 A 
ATOM     17  C   UNL     1       0.483  10.771  -6.063  0.00  0.00    +0.041 A 
ATOM     18  C   UNL     1      -0.338  10.544  -5.022  0.00  0.00    +0.195 A 
ATOM     19  O   UNL     1       0.412  10.260  -3.944  0.00  0.00    -0.466 OA
ENDBRANCH  14  15
ENDBRANCH   9  14
ENDBRANCH   3   5
BRANCH   1  20
ATOM     20  C   UNL     1      -0.099   6.983  -2.868  0.00  0.00    +0.019 C 
BRANCH  20  21
ATOM     21  N   UNL     1      -0.286   6.790  -4.321  0.00  0.00    +0.388 N 
ATOM     22  H   UNL     1      -0.159   7.691  -4.796  0.00  0.00    -0.081 HD
BRANCH  21  24
ATOM     23  C   UNL     1      -2.636   7.453  -4.438  0.00  0.00    -0.017 C 
ATOM     24  C   UNL     1      -1.651   6.293  -4.593  0.00  0.00    -0.081 C 
ENDBRANCH  21  24
BRANCH  21  25
ATOM     25  C   UNL     1       0.713   5.830  -4.837  0.00  0.00    -0.030 C 
BRANCH  25  26
ATOM     26  C   UNL     1       0.644   5.819  -6.365  0.00  0.00    +0.195 C 
ATOM     27  C   UNL     1       1.601   4.754  -6.918  0.00  0.00    +0.271 C 
ATOM     28  O   UNL     1       1.522   4.780  -8.348  0.00  0.00    -0.485 OA
ATOM     29  C   UNL     1       1.568   6.005  -8.940  0.00  0.00    +0.162 A 
ATOM     30  C   UNL     1       1.854   6.095 -10.294  0.00  0.00    +0.049 A 
ATOM     31  C   UNL     1       1.907   7.332 -10.910  0.00  0.00    +0.004 A 
ATOM     32  C   UNL     1       1.664   8.480 -10.180  0.00  0.00    +0.004 A 
ATOM     33  C   UNL     1       1.374   8.397  -8.832  0.00  0.00    +0.049 A 
ATOM     34  C   UNL     1       1.327   7.160  -8.206  0.00  0.00    +0.162 A 
ATOM     35  O   UNL     1       1.048   7.094  -6.876  0.00  0.00    -0.484 OA
ENDBRANCH  25  26
ENDBRANCH  21  25
ENDBRANCH  20  21
ENDBRANCH   1  20
TORSDOF 9
