REMARK  Name = ZINC64502392
REMARK  10 active torsions:
REMARK  status: ('A' for Active; 'I' for Inactive)
REMARK    1  A    between atoms: C_1  and  C_2
REMARK    2  A    between atoms: N_4  and  C_25
REMARK    3  A    between atoms: N_11  and  C_19
REMARK    4  A    between atoms: C_12  and  N_14
REMARK    5  A    between atoms: C_25  and  C_26
REMARK    6  A    between atoms: C_26  and  C_27
REMARK    7  A    between atoms: C_27  and  C_28
REMARK    8  A    between atoms: N_30  and  C_31
REMARK    9  A    between atoms: C_31  and  C_32
REMARK   10  A    between atoms: C_32  and  C_33
REMARK                            x       y       z     vdW  Elec       q    Type
REMARK                         _______ _______ _______ _____ _____    ______ ____
ROOT
ATOM      1  C   UNL     1      -0.018   1.503   0.010  0.00  0.00    +0.069 C 
ATOM      2  C   UNL     1       0.002  -0.004   0.002  0.00  0.00    +0.080 C 
ATOM      3  N   UNL     1       0.007  -0.713  -1.107  0.00  0.00    -0.180 NA
ATOM      4  N   UNL     1      -0.007  -2.108  -1.076  0.00  0.00    -0.192 N 
ATOM      5  C   UNL     1       0.367  -2.846  -0.009  0.00  0.00    +0.248 C 
ATOM      6  O   UNL     1       0.363  -4.058  -0.060  0.00  0.00    -0.273 OA
ATOM      7  C   UNL     1       0.789  -2.128   1.249  0.00  0.00    +0.171 C 
ATOM      8  C   UNL     1       0.025  -0.809   1.231  0.00  0.00    +0.097 C 
ATOM      9  N   UNL     1      -0.534  -0.634   2.367  0.00  0.00    -0.180 NA
ATOM     10  N   UNL     1      -0.461  -1.749   3.207  0.00  0.00    -0.200 N 
ATOM     11  C   UNL     1       0.302  -2.828   2.521  0.00  0.00    +0.214 C 
ENDROOT
BRANCH  10  12
ATOM     12  C   UNL     1      -1.012  -1.840   4.485  0.00  0.00    +0.054 A 
ATOM     13  C   UNL     1      -0.865  -3.007   5.225  0.00  0.00    +0.025 A 
ATOM     14  C   UNL     1      -1.412  -3.094   6.490  0.00  0.00    +0.002 A 
ATOM     15  C   UNL     1      -2.104  -2.021   7.021  0.00  0.00    +0.000 A 
ATOM     16  C   UNL     1      -2.253  -0.858   6.287  0.00  0.00    +0.002 A 
ATOM     17  C   UNL     1      -1.704  -0.762   5.024  0.00  0.00    +0.025 A 
ENDBRANCH  10  12
BRANCH  11  18
ATOM     18  N   UNL     1      -0.562  -3.963   2.187  0.00  0.00    -0.332 N 
ATOM     19  C   UNL     1      -1.878  -3.885   1.840  0.00  0.00    +0.087 A 
ATOM     20  C   UNL     1      -2.328  -5.135   1.608  0.00  0.00    +0.019 A 
ATOM     21  C   UNL     1      -1.250  -6.017   1.819  0.00  0.00    +0.019 A 
ATOM     22  C   UNL     1      -0.181  -5.272   2.167  0.00  0.00    +0.087 A 
ENDBRANCH  11  18
BRANCH   4  23
ATOM     23  C   UNL     1      -0.455  -2.817  -2.278  0.00  0.00    +0.135 C 
BRANCH  23  24
ATOM     24  C   UNL     1      -1.967  -3.040  -2.204  0.00  0.00    +0.030 C 
BRANCH  24  25
ATOM     25  C   UNL     1      -2.436  -3.780  -3.459  0.00  0.00    +0.097 C 
BRANCH  25  26
ATOM     26  C   UNL     1      -3.925  -3.999  -3.386  0.00  0.00    +0.213 C 
ATOM     27  O   UNL     1      -4.550  -3.602  -2.426  0.00  0.00    -0.276 OA
ATOM     28  N   UNL     1      -4.562  -4.636  -4.389  0.00  0.00    -0.315 N 
ATOM     29  H   UNL     1      -4.062  -4.953  -5.157  0.00  0.00    +0.149 HD
BRANCH  28  30
ATOM     30  C   UNL     1      -6.010  -4.849  -4.318  0.00  0.00    +0.108 C 
BRANCH  30  31
ATOM     31  C   UNL     1      -6.478  -5.589  -5.573  0.00  0.00    +0.052 C 
BRANCH  31  32
ATOM     32  C   UNL     1      -7.967  -5.808  -5.500  0.00  0.00    -0.040 C 
ATOM     33  C   UNL     1      -8.931  -5.030  -6.044  0.00  0.00    -0.001 A 
ATOM     34  C   UNL     1      -8.883  -3.795  -6.835  0.00  0.00    +0.010 A 
ATOM     35  C   UNL     1     -10.043  -3.235  -7.248  0.00  0.00    +0.001 A 
ATOM     36  C   UNL     1     -11.286  -3.803  -6.939  0.00  0.00    +0.002 A 
ATOM     37  C   UNL     1     -11.411  -4.937  -6.218  0.00  0.00    +0.026 A 
ATOM     38  C   UNL     1     -10.256  -5.611  -5.733  0.00  0.00    +0.043 A 
ATOM     39  N   UNL     1     -10.117  -6.705  -5.024  0.00  0.00    -0.380 N 
ATOM     40  C   UNL     1      -8.686  -6.945  -4.810  0.00  0.00    +0.144 C 
ATOM     41  H   UNL     1     -10.840  -7.264  -4.698  0.00  0.00    +0.160 HD
ENDBRANCH  31  32
ENDBRANCH  30  31
ENDBRANCH  28  30
ENDBRANCH  25  26
ENDBRANCH  24  25
ENDBRANCH  23  24
ENDBRANCH   4  23
TORSDOF 9
