REMARK  Name = ZINC03451725
REMARK  10 active torsions:
REMARK  status: ('A' for Active; 'I' for Inactive)
REMARK    1  A    between atoms: C_1  and  C_2
REMARK    2  A    between atoms: C_2  and  C_3
REMARK    3  A    between atoms: C_2  and  C_4
REMARK    4  A    between atoms: C_4  and  C_6
REMARK    5  A    between atoms: C_4  and  N_20
REMARK    6  A    between atoms: N_8  and  C_9
REMARK    7  A    between atoms: C_9  and  C_10
REMARK    8  A    between atoms: C_13  and  S_16
REMARK    9  A    between atoms: S_16  and  N_19
REMARK   10  A    between atoms: C_21  and  C_23
REMARK                            x       y       z     vdW  Elec       q    Type
REMARK                         _______ _______ _______ _____ _____    ______ ____
ROOT
ATOM      1  C   UNL     1      -2.074  -0.231  -1.335  0.00  0.00    +0.234 C 
ATOM      2  O   UNL     1      -2.511  -1.081  -2.081  0.00  0.00    -0.274 OA
ATOM      3  N   UNL     1      -2.204   1.073  -1.649  0.00  0.00    -0.310 N 
ATOM      4  H   UNL     1      -1.924   1.754  -1.018  0.00  0.00    +0.149 HD
ENDROOT
BRANCH   1   5
ATOM      5  C   UNL     1      -1.386  -0.633  -0.056  0.00  0.00    +0.162 C 
BRANCH   5   6
ATOM      6  N   UNL     1      -1.702  -2.030   0.251  0.00  0.00    -0.300 N 
ATOM      7  C   UNL     1      -1.649  -2.470   1.524  0.00  0.00    +0.247 C 
ATOM      8  O   UNL     1      -1.339  -1.707   2.418  0.00  0.00    -0.270 OA
ATOM      9  H   UNL     1      -1.950  -2.639  -0.463  0.00  0.00    +0.150 HD
BRANCH   7  10
ATOM     10  C   UNL     1      -1.967  -3.879   1.832  0.00  0.00    +0.072 A 
ATOM     11  C   UNL     1      -2.318  -4.760   0.807  0.00  0.00    +0.016 A 
ATOM     12  C   UNL     1      -2.614  -6.074   1.101  0.00  0.00    +0.001 A 
ATOM     13  C   UNL     1      -2.565  -6.522   2.410  0.00  0.00    +0.003 A 
ATOM     14  C   UNL     1      -2.219  -5.658   3.432  0.00  0.00    +0.039 A 
ATOM     15  C   UNL     1      -1.913  -4.339   3.151  0.00  0.00    +0.135 A 
ATOM     16  F   UNL     1      -1.570  -3.496   4.149  0.00  0.00    -0.205 F 
ENDBRANCH   7  10
ENDBRANCH   5   6
BRANCH   5  18
ATOM     17  C   UNL     1       0.820  -0.801   1.106  0.00  0.00    +0.009 C 
ATOM     18  C   UNL     1       0.127  -0.476  -0.219  0.00  0.00    +0.012 C 
ATOM     19  C   UNL     1       0.625  -1.434  -1.304  0.00  0.00    +0.009 C 
ENDBRANCH   5  18
ENDBRANCH   1   5
BRANCH   3  20
ATOM     20  C   UNL     1      -2.768   1.462  -2.944  0.00  0.00    +0.139 C 
BRANCH  20  21
ATOM     21  C   UNL     1      -2.804   2.965  -3.045  0.00  0.00    -0.030 A 
ATOM     22  C   UNL     1      -3.914   3.662  -2.607  0.00  0.00    +0.007 A 
ATOM     23  C   UNL     1      -3.947   5.040  -2.700  0.00  0.00    +0.029 A 
ATOM     24  C   UNL     1      -2.869   5.723  -3.231  0.00  0.00    +0.105 A 
ATOM     25  C   UNL     1      -1.757   5.027  -3.669  0.00  0.00    +0.029 A 
ATOM     26  C   UNL     1      -1.723   3.648  -3.571  0.00  0.00    +0.007 A 
BRANCH  24  27
ATOM     27  S   UNL     1      -2.910   7.480  -3.351  0.00  0.00    +0.056 S 
ATOM     28  O   UNL     1      -2.003   7.839  -4.384  0.00  0.00    -0.153 OA
ATOM     29  O   UNL     1      -4.281   7.853  -3.377  0.00  0.00    -0.153 OA
BRANCH  27  30
ATOM     30  N   UNL     1      -2.283   8.082  -1.941  0.00  0.00    -0.204 NA
ATOM     31  H   UNL     1      -1.819   8.934  -1.942  0.00  0.00    +0.144 HD
ATOM     32  H   UNL     1      -2.381   7.583  -1.115  0.00  0.00    +0.144 HD
ENDBRANCH  27  30
ENDBRANCH  24  27
ENDBRANCH  20  21
ENDBRANCH   3  20
TORSDOF 8
