REMARK  Name = ZINC34749504
REMARK  8 active torsions:
REMARK  status: ('A' for Active; 'I' for Inactive)
REMARK    1  A    between atoms: C_1  and  C_2
REMARK    2  A    between atoms: C_2  and  C_3
REMARK    3  A    between atoms: C_4  and  C_33
REMARK    4  A    between atoms: N_10  and  C_29
REMARK    5  A    between atoms: N_16  and  C_19
REMARK    6  A    between atoms: C_19  and  C_20
REMARK    7  A    between atoms: N_22  and  C_23
REMARK    8  A    between atoms: C_29  and  C_30
REMARK                            x       y       z     vdW  Elec       q    Type
REMARK                         _______ _______ _______ _____ _____    ______ ____
ROOT
ATOM      1  C   UNL     1      -1.227  -0.734  -0.079  0.00  0.00    -0.023 A 
ATOM      2  C   UNL     1      -0.596  -1.845   0.327  0.00  0.00    -0.007 A 
ATOM      3  S   UNL     1      -1.169  -3.087  -0.816  0.00  0.00    -0.073 S 
ATOM      4  C   UNL     1      -2.240  -2.077  -1.806  0.00  0.00    +0.117 A 
ATOM      5  C   UNL     1      -2.127  -0.804  -1.217  0.00  0.00    +0.076 A 
ATOM      6  C   UNL     1      -2.905   0.233  -1.822  0.00  0.00    +0.264 A 
ATOM      7  O   UNL     1      -2.868   1.369  -1.383  0.00  0.00    -0.267 OA
ATOM      8  N   UNL     1      -3.679  -0.063  -2.882  0.00  0.00    -0.271 N 
ATOM      9  C   UNL     1      -3.734  -1.329  -3.387  0.00  0.00    +0.202 A 
ATOM     10  N   UNL     1      -3.021  -2.300  -2.857  0.00  0.00    -0.208 NA
ATOM     11  N   UNL     1      -4.536  -1.591  -4.470  0.00  0.00    -0.304 N 
ATOM     12  C   UNL     1      -4.015  -1.481  -5.841  0.00  0.00    +0.089 C 
ATOM     13  C   UNL     1      -4.360  -2.769  -6.597  0.00  0.00    -0.059 C 
ATOM     14  N   UNL     1      -5.806  -3.010  -6.515  0.00  0.00    +0.387 N 
ATOM     15  C   UNL     1      -6.195  -3.255  -5.120  0.00  0.00    -0.059 C 
ATOM     16  C   UNL     1      -5.939  -1.996  -4.292  0.00  0.00    +0.089 C 
ATOM     17  C   UNL     1       0.368  -2.005   1.475  0.00  0.00    +0.052 C 
ATOM     18  H   UNL     1      -6.301  -2.204  -6.864  0.00  0.00    -0.081 HD
ENDROOT
BRANCH   1  20
ATOM     19  C   UNL     1      -2.033   0.708   1.771  0.00  0.00    +0.009 C 
ATOM     20  C   UNL     1      -1.010   0.572   0.642  0.00  0.00    +0.033 C 
ENDBRANCH   1  20
BRANCH  14  21
ATOM     21  C   UNL     1      -6.152  -4.183  -7.330  0.00  0.00    +0.019 C 
BRANCH  21  22
ATOM     22  C   UNL     1      -7.648  -4.360  -7.347  0.00  0.00    +0.197 C 
ATOM     23  O   UNL     1      -8.357  -3.585  -6.740  0.00  0.00    -0.278 OA
ATOM     24  N   UNL     1      -8.199  -5.378  -8.037  0.00  0.00    -0.314 N 
ATOM     25  H   UNL     1      -7.631  -5.998  -8.523  0.00  0.00    +0.149 HD
BRANCH  24  26
ATOM     26  C   UNL     1      -9.653  -5.550  -8.054  0.00  0.00    +0.073 C 
ATOM     27  C   UNL     1     -10.087  -6.344  -6.820  0.00  0.00    +0.022 C 
ATOM     28  C   UNL     1     -11.607  -6.524  -6.837  0.00  0.00    +0.002 C 
ATOM     29  C   UNL     1     -12.016  -7.282  -8.102  0.00  0.00    +0.000 C 
ATOM     30  C   UNL     1     -11.582  -6.487  -9.335  0.00  0.00    +0.002 C 
ATOM     31  C   UNL     1     -10.063  -6.308  -9.318  0.00  0.00    +0.022 C 
ENDBRANCH  24  26
ENDBRANCH  21  22
ENDBRANCH  14  21
BRANCH   8  32
ATOM     32  C   UNL     1      -4.478   0.995  -3.506  0.00  0.00    +0.223 C 
BRANCH  32  33
ATOM     33  C   UNL     1      -3.643   1.718  -4.530  0.00  0.00    +0.230 C 
ATOM     34  O   UNL     1      -2.493   1.383  -4.720  0.00  0.00    -0.274 OA
ATOM     35  N   UNL     1      -4.173   2.737  -5.234  0.00  0.00    -0.328 N 
ATOM     36  H   UNL     1      -5.093   3.005  -5.082  0.00  0.00    +0.145 HD
ATOM     37  H   UNL     1      -3.635   3.203  -5.894  0.00  0.00    +0.145 HD
ENDBRANCH  32  33
ENDBRANCH   8  32
TORSDOF 6
