REMARK  Name = ZINC33568197
REMARK  7 active torsions:
REMARK  status: ('A' for Active; 'I' for Inactive)
REMARK    1  A    between atoms: C_1  and  N_2
REMARK    2  A    between atoms: N_2  and  C_3
REMARK    3  A    between atoms: C_6  and  O_9
REMARK    4  A    between atoms: C_15  and  C_16
REMARK    5  A    between atoms: C_19  and  C_21
REMARK    6  A    between atoms: C_24  and  S_27
REMARK    7  A    between atoms: S_27  and  N_30
REMARK                            x       y       z     vdW  Elec       q    Type
REMARK                         _______ _______ _______ _____ _____    ______ ____
ROOT
ATOM      1  C   UNL     1       6.049  -1.815   0.071  0.00  0.00    +0.137 C 
ATOM      2  N   UNL     1       7.257  -1.000  -0.071  0.00  0.00    -0.284 N 
ATOM      3  C   UNL     1       7.164   0.369  -0.086  0.00  0.00    +0.158 C 
ATOM      4  N   UNL     1       8.143   1.260  -0.111  0.00  0.00    -0.154 NA
ATOM      5  C   UNL     1       7.916   2.555  -0.123  0.00  0.00    +0.276 C 
ATOM      6  O   UNL     1       8.828   3.368  -0.146  0.00  0.00    -0.267 OA
ATOM      7  C   UNL     1       6.500   2.976  -0.106  0.00  0.00    +0.082 C 
ATOM      8  C   UNL     1       5.960   4.229  -0.113  0.00  0.00    +0.066 C 
ATOM      9  S   UNL     1       5.692   1.381  -0.068  0.00  0.00    -0.051 S 
ENDROOT
BRANCH   2  10
ATOM     10  C   UNL     1       8.508  -1.617  -0.192  0.00  0.00    +0.035 A 
ATOM     11  C   UNL     1       8.593  -2.999  -0.298  0.00  0.00    +0.027 A 
ATOM     12  C   UNL     1       9.827  -3.607  -0.424  0.00  0.00    +0.047 A 
ATOM     13  C   UNL     1      10.981  -2.838  -0.431  0.00  0.00    +0.117 A 
ATOM     14  C   UNL     1      10.898  -1.458  -0.319  0.00  0.00    +0.047 A 
ATOM     15  C   UNL     1       9.665  -0.848  -0.199  0.00  0.00    +0.027 A 
BRANCH  13  16
ATOM     16  O   UNL     1      12.196  -3.438  -0.548  0.00  0.00    -0.507 OA
ATOM     17  H   UNL     1      13.112  -2.829  -0.553  0.00  0.00    +0.292 HD
ENDBRANCH  13  16
ENDBRANCH   2  10
BRANCH   8  18
ATOM     18  C   UNL     1       4.559   4.394  -0.093  0.00  0.00    +0.130 A 
ATOM     19  C   UNL     1       3.884   5.602  -0.098  0.00  0.00    +0.050 A 
ATOM     20  C   UNL     1       2.519   5.302  -0.078  0.00  0.00    +0.050 A 
ATOM     21  C   UNL     1       2.409   3.930  -0.055  0.00  0.00    +0.136 A 
ATOM     22  O   UNL     1       3.646   3.401  -0.068  0.00  0.00    -0.455 OA
BRANCH  21  23
ATOM     23  C   UNL     1       1.146   3.168  -0.027  0.00  0.00    +0.017 A 
ATOM     24  C   UNL     1       1.169   1.771  -0.011  0.00  0.00    +0.013 A 
ATOM     25  C   UNL     1      -0.015   1.065   0.015  0.00  0.00    +0.029 A 
ATOM     26  C   UNL     1      -1.225   1.737   0.020  0.00  0.00    +0.105 A 
ATOM     27  C   UNL     1      -1.256   3.121   0.009  0.00  0.00    +0.029 A 
ATOM     28  C   UNL     1      -0.079   3.840  -0.017  0.00  0.00    +0.013 A 
BRANCH  26  29
ATOM     29  S   UNL     1      -2.734   0.827   0.047  0.00  0.00    +0.056 S 
ATOM     30  O   UNL     1      -3.731   1.677  -0.503  0.00  0.00    -0.153 OA
ATOM     31  O   UNL     1      -2.444  -0.456  -0.492  0.00  0.00    -0.153 OA
BRANCH  29  32
ATOM     32  N   UNL     1      -3.136   0.593   1.636  0.00  0.00    -0.204 NA
ATOM     33  H   UNL     1      -4.077   0.025   1.696  0.00  0.00    +0.144 HD
ATOM     34  H   UNL     1      -3.263   1.567   2.130  0.00  0.00    +0.144 HD
ENDBRANCH  29  32
ENDBRANCH  26  29
ENDBRANCH  21  23
ENDBRANCH   8  18
TORSDOF 6
