REMARK  Name = ZINC19885326
REMARK  8 active torsions:
REMARK  status: ('A' for Active; 'I' for Inactive)
REMARK    1  A    between atoms: C_1  and  C_2
REMARK    2  A    between atoms: C_6  and  C_8
REMARK    3  A    between atoms: C_8  and  N_9
REMARK    4  A    between atoms: N_9  and  C_10
REMARK    5  A    between atoms: N_9  and  C_17
REMARK    6  A    between atoms: C_10  and  C_11
REMARK    7  A    between atoms: C_17  and  C_18
REMARK    8  A    between atoms: N_21  and  C_24
REMARK                            x       y       z     vdW  Elec       q    Type
REMARK                         _______ _______ _______ _____ _____    ______ ____
ROOT
ATOM      1  N   UNL     1      -0.437  -4.601   0.880  0.00  0.00    -0.293 NA
ENDROOT
BRANCH   1   2
ATOM      2  C   UNL     1       0.332  -3.619   1.658  0.00  0.00    +0.156 C 
BRANCH   2   8
ATOM      3  C   UNL     1       0.502   1.337   0.941  0.00  0.00    +0.065 C 
ATOM      4  C   UNL     1       0.302  -0.134   0.683  0.00  0.00    +0.030 A 
ATOM      5  C   UNL     1      -0.110  -0.685  -0.474  0.00  0.00    +0.105 A 
ATOM      6  N   UNL     1      -0.155  -2.039  -0.275  0.00  0.00    -0.349 N 
ATOM      7  H   UNL     1      -0.415  -2.709  -0.926  0.00  0.00    +0.166 HD
ATOM      8  C   UNL     1       0.231  -2.267   0.999  0.00  0.00    +0.099 A 
ATOM      9  N   UNL     1       0.507  -1.124   1.565  0.00  0.00    -0.346 N 
ATOM     10  H   UNL     1       0.811  -1.008   2.478  0.00  0.00    +0.167 HD
ENDBRANCH   2   8
ENDBRANCH   1   2
BRANCH   1  11
ATOM     11  C   UNL     1       0.295  -5.006  -0.327  0.00  0.00    +0.116 C 
BRANCH  11  12
ATOM     12  C   UNL     1       1.605  -5.688   0.076  0.00  0.00    +0.132 C 
ATOM     13  C   UNL     1       2.444  -5.994  -1.183  0.00  0.00    +0.035 C 
ATOM     14  C   UNL     1       3.041  -7.389  -0.850  0.00  0.00    +0.031 C 
ATOM     15  C   UNL     1       1.881  -8.018  -0.038  0.00  0.00    +0.160 C 
ATOM     16  O   UNL     1       1.324  -6.933   0.725  0.00  0.00    -0.375 OA
ENDBRANCH  11  12
ENDBRANCH   1  11
BRANCH   1  17
ATOM     17  C   UNL     1      -0.784  -5.768   1.702  0.00  0.00    +0.088 C 
BRANCH  17  18
ATOM     18  C   UNL     1      -1.655  -6.725   0.886  0.00  0.00    -0.000 C 
ATOM     19  C   UNL     1      -2.994  -6.054   0.566  0.00  0.00    -0.014 C 
ATOM     20  C   UNL     1      -3.889  -7.045  -0.181  0.00  0.00    -0.078 C 
ATOM     21  N   UNL     1      -4.121  -8.228   0.656  0.00  0.00    +0.382 N 
ATOM     22  C   UNL     1      -2.849  -8.917   0.907  0.00  0.00    -0.078 C 
ATOM     23  C   UNL     1      -1.914  -7.999   1.696  0.00  0.00    -0.014 C 
ATOM     24  H   UNL     1      -4.527  -7.943   1.535  0.00  0.00    -0.081 HD
BRANCH  21  25
ATOM     25  C   UNL     1      -5.043  -9.140  -0.032  0.00  0.00    -0.069 C 
ATOM     26  C   UNL     1      -6.412  -8.457  -0.232  0.00  0.00    -0.015 C 
ATOM     27  C   UNL     1      -7.440  -9.597  -0.022  0.00  0.00    -0.002 C 
ATOM     28  C   UNL     1      -6.810 -10.418   1.130  0.00  0.00    -0.002 C 
ATOM     29  C   UNL     1      -5.296 -10.387   0.834  0.00  0.00    -0.015 C 
ENDBRANCH  21  25
ENDBRANCH  17  18
ENDBRANCH   1  17
TORSDOF 7
