REMARK  Name = ZINC64120303
REMARK  8 active torsions:
REMARK  status: ('A' for Active; 'I' for Inactive)
REMARK    1  A    between atoms: C_1  and  C_2
REMARK    2  A    between atoms: C_2  and  C_3
REMARK    3  A    between atoms: C_3  and  C_4
REMARK    4  A    between atoms: C_6  and  C_10
REMARK    5  A    between atoms: C_10  and  C_11
REMARK    6  A    between atoms: C_11  and  C_12
REMARK    7  A    between atoms: C_12  and  C_13
REMARK    8  A    between atoms: C_28  and  C_30
REMARK                            x       y       z     vdW  Elec       q    Type
REMARK                         _______ _______ _______ _____ _____    ______ ____
ROOT
ATOM      1  C   UNL     1      -3.680  -8.568  -1.150  0.00  0.00    +0.216 C 
ATOM      2  O   UNL     1      -2.707  -9.007  -0.574  0.00  0.00    -0.276 OA
ATOM      3  N   UNL     1      -4.672  -9.399  -1.527  0.00  0.00    -0.296 N 
ATOM      4  C   UNL     1      -5.843  -8.860  -2.228  0.00  0.00    +0.112 C 
ATOM      5  C   UNL     1      -5.996  -9.567  -3.587  0.00  0.00    +0.052 C 
ATOM      6  C   UNL     1      -5.813 -11.042  -3.331  0.00  0.00    -0.035 C 
ATOM      7  C   UNL     1      -6.563 -12.089  -3.653  0.00  0.00    -0.001 A 
ATOM      8  C   UNL     1      -7.783 -12.206  -4.468  0.00  0.00    +0.010 A 
ATOM      9  C   UNL     1      -8.313 -13.453  -4.578  0.00  0.00    +0.001 A 
ATOM     10  C   UNL     1      -7.758 -14.581  -3.966  0.00  0.00    +0.002 A 
ATOM     11  C   UNL     1      -6.633 -14.567  -3.206  0.00  0.00    +0.026 A 
ATOM     12  C   UNL     1      -5.980 -13.313  -3.025  0.00  0.00    +0.043 A 
ATOM     13  N   UNL     1      -4.892 -13.018  -2.377  0.00  0.00    -0.376 N 
ATOM     14  C   UNL     1      -4.617 -11.593  -2.563  0.00  0.00    +0.126 C 
ATOM     15  C   UNL     1      -4.567 -10.837  -1.236  0.00  0.00    +0.099 C 
ATOM     16  C   UNL     1      -5.736 -11.274  -0.351  0.00  0.00    +0.030 C 
ATOM     17  H   UNL     1      -4.355 -13.637  -1.858  0.00  0.00    +0.160 HD
ENDROOT
BRANCH   1  18
ATOM     18  C   UNL     1      -3.780  -7.093  -1.444  0.00  0.00    +0.096 C 
BRANCH  18  19
ATOM     19  C   UNL     1      -2.533  -6.383  -0.915  0.00  0.00    +0.014 C 
BRANCH  19  20
ATOM     20  C   UNL     1      -2.634  -4.885  -1.213  0.00  0.00    +0.057 C 
BRANCH  20  23
ATOM     21  C   UNL     1      -1.413  -2.041   0.005  0.00  0.00    +0.103 C 
ATOM     22  N   UNL     1      -1.408  -2.757  -1.065  0.00  0.00    -0.346 N 
ATOM     23  C   UNL     1      -1.386  -4.175  -0.685  0.00  0.00    +0.243 C 
ATOM     24  O   UNL     1      -1.379  -4.179   0.752  0.00  0.00    -0.248 OA
ATOM     25  N   UNL     1      -1.391  -2.812   1.130  0.00  0.00    -0.252 N 
ATOM     26  H   UNL     1      -1.387  -2.479   2.041  0.00  0.00    +0.195 HD
ATOM     27  H   UNL     1      -1.418  -2.416  -1.973  0.00  0.00    +0.163 HD
BRANCH  21  28
ATOM     28  C   UNL     1      -1.433  -0.534   0.013  0.00  0.00    +0.073 C 
BRANCH  28  30
ATOM     29  C   UNL     1      -0.019   1.526   0.010  0.00  0.00    +0.004 C 
ATOM     30  C   UNL     1       0.002  -0.004   0.002  0.00  0.00    +0.004 C 
ENDBRANCH  28  30
ENDBRANCH  21  28
ENDBRANCH  20  23
ENDBRANCH  19  20
ENDBRANCH  18  19
ENDBRANCH   1  18
TORSDOF 6
