REMARK  Name = ZINC23947475
REMARK  7 active torsions:
REMARK  status: ('A' for Active; 'I' for Inactive)
REMARK    1  A    between atoms: C_1  and  C_2
REMARK    2  A    between atoms: C_2  and  C_24
REMARK    3  A    between atoms: N_5  and  N_9
REMARK    4  A    between atoms: C_10  and  C_12
REMARK    5  A    between atoms: C_16  and  N_21
REMARK    6  A    between atoms: C_24  and  C_25
REMARK    7  A    between atoms: C_25  and  C_26
REMARK                            x       y       z     vdW  Elec       q    Type
REMARK                         _______ _______ _______ _____ _____    ______ ____
ROOT
ATOM      1  C   UNL     1      10.536   2.142   0.665  0.00  0.00    +0.041 C 
ATOM      2  C   UNL     1       9.474   3.237   0.543  0.00  0.00    +0.112 C 
ATOM      3  C   UNL     1       8.127   2.730   1.018  0.00  0.00    +0.263 C 
ATOM      4  O   UNL     1       7.844   2.334   2.128  0.00  0.00    -0.271 OA
ATOM      5  N   UNL     1       7.311   2.809  -0.051  0.00  0.00    -0.137 N 
ATOM      6  C   UNL     1       7.949   3.287  -1.126  0.00  0.00    +0.326 C 
ATOM      7  O   UNL     1       7.423   3.445  -2.209  0.00  0.00    -0.251 OA
ATOM      8  N   UNL     1       9.238   3.576  -0.871  0.00  0.00    -0.284 N 
ATOM      9  H   UNL     1      10.057   3.981  -1.484  0.00  0.00    +0.151 HD
ENDROOT
BRANCH   5  10
ATOM     10  N   UNL     1       5.961   2.433  -0.041  0.00  0.00    -0.219 N 
ATOM     11  C   UNL     1       4.998   3.376  -0.027  0.00  0.00    +0.267 C 
ATOM     12  O   UNL     1       5.301   4.554  -0.025  0.00  0.00    -0.268 OA
ATOM     13  H   UNL     1       5.687   1.367  -0.043  0.00  0.00    +0.174 HD
BRANCH  11  14
ATOM     14  C   UNL     1       3.583   2.981  -0.016  0.00  0.00    +0.076 A 
ATOM     15  C   UNL     1       2.481   3.777  -0.002  0.00  0.00    +0.029 A 
ATOM     16  C   UNL     1       1.198   3.201   0.007  0.00  0.00    -0.008 A 
ATOM     17  C   UNL     1      -0.060   3.857   0.022  0.00  0.00    +0.041 A 
ATOM     18  C   UNL     1      -1.215   3.144   0.029  0.00  0.00    +0.127 A 
ATOM     19  C   UNL     1      -1.214   1.754   0.017  0.00  0.00    +0.034 A 
ATOM     20  C   UNL     1      -0.013   1.076   0.008  0.00  0.00    +0.018 A 
ATOM     21  C   UNL     1       1.169   1.786   0.001  0.00  0.00    +0.020 A 
ATOM     22  S   UNL     1       2.886   1.338  -0.018  0.00  0.00    -0.084 S 
BRANCH  18  23
ATOM     23  N   UNL     1      -2.508   3.865   0.044  0.00  0.00    +0.056 N 
ATOM     24  O   UNL     1      -2.526   5.083   0.051  0.00  0.00    -0.126 OA
ATOM     25  O   UNL     1      -3.554   3.240   0.051  0.00  0.00    -0.126 OA
ENDBRANCH  18  23
ENDBRANCH  11  14
ENDBRANCH   5  10
BRANCH   2  26
ATOM     26  C   UNL     1       9.891   4.479   1.334  0.00  0.00    +0.040 C 
BRANCH  26  27
ATOM     27  C   UNL     1      11.190   5.041   0.753  0.00  0.00    +0.038 C 
BRANCH  27  28
ATOM     28  C   UNL     1      11.601   6.264   1.533  0.00  0.00    -0.047 A 
ATOM     29  C   UNL     1      11.161   7.514   1.140  0.00  0.00    +0.003 A 
ATOM     30  C   UNL     1      11.534   8.635   1.858  0.00  0.00    +0.000 A 
ATOM     31  C   UNL     1      12.355   8.507   2.963  0.00  0.00    +0.000 A 
ATOM     32  C   UNL     1      12.799   7.257   3.352  0.00  0.00    +0.000 A 
ATOM     33  C   UNL     1      12.422   6.136   2.638  0.00  0.00    +0.003 A 
ENDBRANCH  27  28
ENDBRANCH  26  27
ENDBRANCH   2  26
TORSDOF 6
