REMARK  Name = ZINC45967631
REMARK  7 active torsions:
REMARK  status: ('A' for Active; 'I' for Inactive)
REMARK    1  A    between atoms: C_1  and  C_2
REMARK    2  A    between atoms: C_2  and  O_3
REMARK    3  A    between atoms: O_3  and  C_4
REMARK    4  A    between atoms: N_9  and  C_12
REMARK    5  A    between atoms: C_15  and  N_21
REMARK    6  A    between atoms: C_16  and  C_18
REMARK    7  A    between atoms: C_22  and  C_24
REMARK                            x       y       z     vdW  Elec       q    Type
REMARK                         _______ _______ _______ _____ _____    ______ ____
ROOT
ATOM      1  C   UNL     1      -6.070  -3.948  -1.019  0.00  0.00    +0.031 A 
ATOM      2  C   UNL     1      -7.158  -3.095  -0.860  0.00  0.00    +0.025 A 
ATOM      3  C   UNL     1      -8.444  -3.592  -0.888  0.00  0.00    +0.026 A 
ATOM      4  C   UNL     1      -8.663  -4.951  -1.076  0.00  0.00    +0.048 A 
ATOM      5  C   UNL     1      -7.570  -5.818  -1.237  0.00  0.00    +0.086 A 
ATOM      6  C   UNL     1      -6.270  -5.303  -1.212  0.00  0.00    +0.040 A 
ENDROOT
BRANCH   1  12
ATOM      7  C   UNL     1      -1.233  -2.095   0.284  0.00  0.00    +0.403 C 
ATOM      8  O   UNL     1      -0.280  -2.847   0.240  0.00  0.00    -0.226 OA
ATOM      9  N   UNL     1      -2.486  -2.591   0.256  0.00  0.00    -0.264 N 
ATOM     10  C   UNL     1      -3.648  -1.692   0.302  0.00  0.00    +0.130 C 
ATOM     11  C   UNL     1      -4.540  -1.983  -0.911  0.00  0.00    +0.124 C 
ATOM     12  N   UNL     1      -4.769  -3.433  -0.990  0.00  0.00    -0.327 N 
ATOM     13  C   UNL     1      -3.607  -4.331  -1.036  0.00  0.00    +0.124 C 
ATOM     14  C   UNL     1      -2.714  -4.040   0.172  0.00  0.00    +0.130 C 
BRANCH   7  15
ATOM     15  O   UNL     1      -1.038  -0.765   0.361  0.00  0.00    -0.451 OA
BRANCH  15  17
ATOM     16  C   UNL     1       0.338   1.219   0.476  0.00  0.00    +0.048 C 
ATOM     17  C   UNL     1       0.316  -0.308   0.387  0.00  0.00    +0.230 C 
ENDBRANCH  15  17
ENDBRANCH   7  15
ENDBRANCH   1  12
BRANCH   4  18
ATOM     18  N   UNL     1      -9.962  -5.452  -1.103  0.00  0.00    -0.281 N 
ATOM     19  C   UNL     1     -10.955  -4.720  -1.647  0.00  0.00    +0.248 C 
ATOM     20  O   UNL     1     -10.733  -3.592  -2.042  0.00  0.00    -0.270 OA
ATOM     21  H   UNL     1     -10.152  -6.327  -0.731  0.00  0.00    +0.155 HD
BRANCH  19  22
ATOM     22  C   UNL     1     -12.313  -5.289  -1.764  0.00  0.00    +0.037 A 
ATOM     23  C   UNL     1     -12.573  -6.583  -1.306  0.00  0.00    +0.014 A 
ATOM     24  C   UNL     1     -13.843  -7.109  -1.417  0.00  0.00    +0.021 A 
ATOM     25  C   UNL     1     -14.860  -6.356  -1.982  0.00  0.00    +0.041 A 
ATOM     26  C   UNL     1     -14.608  -5.073  -2.438  0.00  0.00    +0.021 A 
ATOM     27  C   UNL     1     -13.344  -4.534  -2.326  0.00  0.00    +0.014 A 
ATOM     28 CL   UNL     1     -16.456  -7.025  -2.119  0.00  0.00    -0.084 Cl
ENDBRANCH  19  22
ENDBRANCH   4  18
BRANCH   5  29
ATOM     29  C   UNL     1      -7.793  -7.259  -1.435  0.00  0.00    +0.388 C 
ATOM     30  O   UNL     1      -6.839  -8.025  -1.475  0.00  0.00    -0.241 OA
ATOM     31  O   UNL     1      -8.930  -7.691  -1.560  0.00  0.00    -0.241 OA
ENDBRANCH   5  29
TORSDOF 6
