REMARK  Name = ZINC21145769
REMARK  8 active torsions:
REMARK  status: ('A' for Active; 'I' for Inactive)
REMARK    1  A    between atoms: C_1  and  C_2
REMARK    2  A    between atoms: C_3  and  C_7
REMARK    3  A    between atoms: C_10  and  S_13
REMARK    4  A    between atoms: N_11  and  N_12
REMARK    5  A    between atoms: S_13  and  C_14
REMARK    6  A    between atoms: C_14  and  C_16
REMARK    7  A    between atoms: C_14  and  C_17
REMARK    8  A    between atoms: N_19  and  C_20
REMARK                            x       y       z     vdW  Elec       q    Type
REMARK                         _______ _______ _______ _____ _____    ______ ____
ROOT
ATOM      1  S   UNL     1      -2.692  -2.874  -0.378  0.00  0.00    -0.072 S 
ENDROOT
BRANCH   1   5
ATOM      2  C   UNL     1      -2.473  -6.775  -0.395  0.00  0.00    +0.185 A 
ATOM      3  N   UNL     1      -1.289  -6.421   0.049  0.00  0.00    -0.127 NA
ATOM      4  N   UNL     1      -1.207  -5.140   0.106  0.00  0.00    -0.121 NA
ATOM      5  C   UNL     1      -2.335  -4.597  -0.290  0.00  0.00    +0.209 A 
ATOM      6  N   UNL     1      -3.180  -5.619  -0.626  0.00  0.00    -0.224 N 
BRANCH   2   9
ATOM      7  C   UNL     1      -0.851  -9.408   0.123  0.00  0.00    +0.087 C 
ATOM      8  C   UNL     1      -2.266  -9.310  -0.388  0.00  0.00    +0.112 A 
ATOM      9  C   UNL     1      -2.954  -8.158  -0.607  0.00  0.00    +0.061 A 
ATOM     10  C   UNL     1      -4.273  -8.570  -1.103  0.00  0.00    +0.053 A 
ATOM     11  C   UNL     1      -4.255  -9.913  -1.131  0.00  0.00    +0.196 A 
ATOM     12  O   UNL     1      -3.059 -10.344  -0.702  0.00  0.00    -0.467 OA
ENDBRANCH   2   9
BRANCH   6  13
ATOM     13  N   UNL     1      -4.458  -5.512  -1.094  0.00  0.00    -0.295 N 
ATOM     14  H   UNL     1      -4.912  -4.520  -1.236  0.00  0.00    +0.163 HD
ATOM     15  H   UNL     1      -5.035  -6.419  -1.329  0.00  0.00    +0.163 HD
ENDBRANCH   6  13
ENDBRANCH   1   5
BRANCH   1  16
ATOM     16  C   UNL     1      -1.121  -2.197   0.216  0.00  0.00    +0.137 C 
ATOM     17  C   UNL     1      -0.912  -2.602   1.677  0.00  0.00    +0.029 C 
BRANCH  16  18
ATOM     18  C   UNL     1      -1.150  -0.694   0.111  0.00  0.00    +0.230 C 
ATOM     19  O   UNL     1      -2.211  -0.106   0.124  0.00  0.00    -0.274 OA
ATOM     20  N   UNL     1       0.002  -0.004   0.002  0.00  0.00    -0.283 N 
ATOM     21  H   UNL     1       0.957  -0.541  -0.102  0.00  0.00    +0.155 HD
BRANCH  20  22
ATOM     22  C   UNL     1      -0.016   1.396   0.021  0.00  0.00    +0.053 A 
ATOM     23  C   UNL     1      -1.058   2.070   0.642  0.00  0.00    +0.046 A 
ATOM     24  C   UNL     1      -1.071   3.452   0.665  0.00  0.00    +0.061 A 
ATOM     25  C   UNL     1      -0.050   4.164   0.058  0.00  0.00    +0.061 A 
ATOM     26  C   UNL     1       0.987   3.495  -0.568  0.00  0.00    +0.043 A 
ATOM     27  C   UNL     1       1.007   2.113  -0.588  0.00  0.00    +0.064 A 
ATOM     28 CL   UNL     1       2.309   1.274  -1.372  0.00  0.00    -0.082 Cl
ATOM     29 CL   UNL     1      -0.072   5.900   0.081  0.00  0.00    -0.082 Cl
ATOM     30 CL   UNL     1      -2.370   4.295   1.448  0.00  0.00    -0.082 Cl
ENDBRANCH  20  22
ENDBRANCH  16  18
ENDBRANCH   1  16
TORSDOF 6
