REMARK  Name = ZINC38631937
REMARK  7 active torsions:
REMARK  status: ('A' for Active; 'I' for Inactive)
REMARK    1  A    between atoms: N_9  and  C_10
REMARK    2  A    between atoms: C_10  and  C_12
REMARK    3  A    between atoms: C_10  and  C_29
REMARK    4  A    between atoms: C_12  and  N_13
REMARK    5  A    between atoms: C_14  and  C_16
REMARK    6  A    between atoms: N_18  and  C_19
REMARK    7  A    between atoms: C_23  and  N_25
REMARK                            x       y       z     vdW  Elec       q    Type
REMARK                         _______ _______ _______ _____ _____    ______ ____
ROOT
ATOM      1  N   UNL     1       4.774  -0.333  -2.489  0.00  0.00    -0.305 N 
ATOM      2  C   UNL     1       4.917   0.216  -3.711  0.00  0.00    +0.299 C 
ATOM      3  O   UNL     1       5.365   1.339  -3.824  0.00  0.00    -0.265 OA
ATOM      4  H   UNL     1       4.415  -1.230  -2.399  0.00  0.00    +0.149 HD
ENDROOT
BRANCH   2   5
ATOM      5  C   UNL     1       4.525  -0.556  -4.928  0.00  0.00    +0.303 C 
ATOM      6  O   UNL     1       4.077  -1.679  -4.815  0.00  0.00    -0.265 OA
ATOM      7  N   UNL     1       4.669  -0.007  -6.150  0.00  0.00    -0.278 N 
ATOM      8  H   UNL     1       4.964   0.913  -6.237  0.00  0.00    +0.155 HD
BRANCH   7   9
ATOM      9  C   UNL     1       4.394  -0.764  -7.293  0.00  0.00    +0.036 A 
ATOM     10  C   UNL     1       5.152  -0.586  -8.444  0.00  0.00    +0.026 A 
ATOM     11  C   UNL     1       4.878  -1.335  -9.571  0.00  0.00    +0.042 A 
ATOM     12  C   UNL     1       3.849  -2.262  -9.556  0.00  0.00    +0.154 A 
ATOM     13  C   UNL     1       3.092  -2.441  -8.410  0.00  0.00    +0.163 A 
ATOM     14  C   UNL     1       3.366  -1.698  -7.278  0.00  0.00    +0.059 A 
ATOM     15  F   UNL     1       3.583  -2.994 -10.660  0.00  0.00    -0.203 F 
BRANCH  13  16
ATOM     16  N   UNL     1       1.993  -3.432  -8.396  0.00  0.00    +0.059 N 
ATOM     17  O   UNL     1       1.332  -3.587  -7.396  0.00  0.00    -0.126 OA
ATOM     18  O   UNL     1       1.756  -4.085  -9.386  0.00  0.00    -0.126 OA
ENDBRANCH  13  16
ENDBRANCH   7   9
ENDBRANCH   2   5
BRANCH   1  19
ATOM     19  C   UNL     1       5.158   0.425  -1.296  0.00  0.00    +0.135 C 
BRANCH  19  20
ATOM     20  C   UNL     1       4.896  -0.420  -0.048  0.00  0.00    +0.156 C 
BRANCH  20  29
ATOM     21  C   UNL     1      -0.038   1.346   0.001  0.00  0.00    +0.000 A 
ATOM     22  C   UNL     1       1.147   2.059  -0.005  0.00  0.00    +0.002 A 
ATOM     23  C   UNL     1       2.356   1.396  -0.018  0.00  0.00    +0.023 A 
ATOM     24  C   UNL     1       2.393  -0.000  -0.025  0.00  0.00    +0.034 A 
ATOM     25  C   UNL     1       1.200  -0.705  -0.019  0.00  0.00    -0.025 A 
ATOM     26  C   UNL     1      -0.009  -0.036  -0.006  0.00  0.00    +0.005 A 
ATOM     27  C   UNL     1       1.516  -2.184  -0.028  0.00  0.00    +0.056 C 
ATOM     28  C   UNL     1       3.052  -2.251  -0.041  0.00  0.00    +0.110 C 
ATOM     29  N   UNL     1       3.497  -0.855  -0.038  0.00  0.00    -0.318 N 
ENDBRANCH  20  29
BRANCH  20  30
ATOM     30  C   UNL     1       5.175   0.402   1.184  0.00  0.00    +0.127 A 
ATOM     31  C   UNL     1       6.298   0.356   1.923  0.00  0.00    +0.046 A 
ATOM     32  C   UNL     1       6.134   1.285   2.976  0.00  0.00    +0.041 A 
ATOM     33  C   UNL     1       4.921   1.844   2.817  0.00  0.00    +0.195 A 
ATOM     34  O   UNL     1       4.347   1.310   1.727  0.00  0.00    -0.466 OA
ENDBRANCH  20  30
ENDBRANCH  19  20
ENDBRANCH   1  19
TORSDOF 7
