REMARK  Name = ZINC13064717
REMARK  12 active torsions:
REMARK  status: ('A' for Active; 'I' for Inactive)
REMARK    1  A    between atoms: C_1  and  C_2
REMARK    2  A    between atoms: C_2  and  C_3
REMARK    3  A    between atoms: C_3  and  C_5
REMARK    4  A    between atoms: C_3  and  N_63
REMARK    5  A    between atoms: N_9  and  C_10
REMARK    6  A    between atoms: C_10  and  C_11
REMARK    7  A    between atoms: C_16  and  C_17
REMARK    8  A    between atoms: C_16  and  N_63
REMARK    9  A    between atoms: C_22  and  C_23
REMARK   10  A    between atoms: C_22  and  N_63
REMARK   11  A    between atoms: C_27  and  C_36
REMARK   12  A    between atoms: C_28  and  C_35
REMARK                            x       y       z     vdW  Elec       q    Type
REMARK                         _______ _______ _______ _____ _____    ______ ____
ROOT
ATOM      1  N   UNL     1      -5.275   4.172  -1.712  0.00  0.00    +0.392 N 
ATOM      2  H   UNL     1      -4.578   4.633  -2.309  0.00  0.00    -0.080 HD
ENDROOT
BRANCH   1   3
ATOM      3  C   UNL     1      -6.465   5.042  -1.604  0.00  0.00    +0.003 C 
BRANCH   3   4
ATOM      4  C   UNL     1      -6.011   6.479  -1.609  0.00  0.00    +0.139 A 
ATOM      5  N   UNL     1      -5.021   6.990  -0.918  0.00  0.00    -0.115 NA
ATOM      6  N   UNL     1      -4.948   8.246  -1.195  0.00  0.00    -0.023 NA
ATOM      7  N   UNL     1      -5.871   8.551  -2.039  0.00  0.00    -0.044 NA
ATOM      8  N   UNL     1      -6.548   7.489  -2.319  0.00  0.00    -0.223 N 
BRANCH   8   9
ATOM      9  C   UNL     1      -7.686   7.398  -3.236  0.00  0.00    +0.221 C 
BRANCH   9  10
ATOM     10  C   UNL     1      -8.964   7.651  -2.478  0.00  0.00    +0.126 A 
ATOM     11  C   UNL     1      -9.543   8.850  -2.288  0.00  0.00    +0.046 A 
ATOM     12  C   UNL     1     -10.715   8.624  -1.530  0.00  0.00    +0.041 A 
ATOM     13  C   UNL     1     -10.778   7.301  -1.295  0.00  0.00    +0.195 A 
ATOM     14  O   UNL     1      -9.715   6.717  -1.871  0.00  0.00    -0.466 OA
ENDBRANCH   9  10
ENDBRANCH   8   9
ENDBRANCH   3   4
BRANCH   3  16
ATOM     15  C   UNL     1      -7.804   3.337  -0.363  0.00  0.00    +0.002 C 
ATOM     16  C   UNL     1      -7.223   4.751  -0.307  0.00  0.00    -0.011 C 
ENDBRANCH   3  16
ENDBRANCH   1   3
BRANCH   1  17
ATOM     17  C   UNL     1      -5.649   2.878  -2.321  0.00  0.00    -0.034 C 
BRANCH  17  18
ATOM     18  C   UNL     1      -6.154   3.125  -3.720  0.00  0.00    -0.027 A 
ATOM     19  C   UNL     1      -5.449   3.281  -4.867  0.00  0.00    +0.009 A 
ATOM     20  C   UNL     1      -6.132   3.500  -6.048  0.00  0.00    +0.008 A 
ATOM     21  C   UNL     1      -7.486   3.551  -6.025  0.00  0.00    +0.045 A 
ATOM     22  S   UNL     1      -7.837   3.280  -4.296  0.00  0.00    -0.103 S 
ENDBRANCH  17  18
ENDBRANCH   1  17
BRANCH   1  23
ATOM     23  C   UNL     1      -4.688   3.949  -0.374  0.00  0.00    -0.036 C 
BRANCH  23  24
ATOM     24  C   UNL     1      -3.318   3.344  -0.540  0.00  0.00    +0.001 A 
ATOM     25  C   UNL     1      -2.223   4.144  -0.545  0.00  0.00    +0.017 A 
ATOM     26  C   UNL     1      -0.906   3.525  -0.714  0.00  0.00    -0.001 A 
ATOM     27  C   UNL     1       0.258   4.300  -0.745  0.00  0.00    +0.013 A 
ATOM     28  C   UNL     1       1.471   3.692  -0.905  0.00  0.00    -0.047 A 
ATOM     29  C   UNL     1       1.559   2.313  -1.036  0.00  0.00    -0.046 A 
ATOM     30  C   UNL     1       0.425   1.530  -1.008  0.00  0.00    +0.030 A 
ATOM     31  C   UNL     1      -0.822   2.127  -0.852  0.00  0.00    +0.049 A 
ATOM     32  N   UNL     1      -1.973   1.369  -0.827  0.00  0.00    -0.322 N 
ATOM     33  H   UNL     1      -1.913   0.405  -0.918  0.00  0.00    +0.169 HD
ATOM     34  C   UNL     1      -3.178   1.947  -0.677  0.00  0.00    +0.251 A 
ATOM     35  O   UNL     1      -4.175   1.245  -0.660  0.00  0.00    -0.268 OA
ATOM     36  C   UNL     1       2.908   1.665  -1.211  0.00  0.00    +0.044 C 
ATOM     37  C   UNL     1       2.726   4.527  -0.938  0.00  0.00    +0.044 C 
ENDBRANCH  23  24
ENDBRANCH   1  23
TORSDOF 9
