REMARK  Name = ZINC64502905
REMARK  3 active torsions:
REMARK  status: ('A' for Active; 'I' for Inactive)
REMARK    1  A    between atoms: C_4  and  N_7
REMARK    2  A    between atoms: C_12  and  N_15
REMARK    3  A    between atoms: C_22  and  C_24
REMARK                            x       y       z     vdW  Elec       q    Type
REMARK                         _______ _______ _______ _____ _____    ______ ____
ROOT
ATOM      1  N   UNL     1       5.194  -4.991  -0.270  0.00  0.00    -0.281 NA
ATOM      2  C   UNL     1       3.937  -5.736  -0.228  0.00  0.00    +0.088 C 
ATOM      3  C   UNL     1       4.206  -7.180  -0.589  0.00  0.00    +0.034 C 
ATOM      4  C   UNL     1       4.466  -7.992   0.691  0.00  0.00    +0.109 C 
ATOM      5  N   UNL     1       5.286  -7.230   1.653  0.00  0.00    -0.298 N 
ATOM      6  C   UNL     1       6.425  -6.434   1.244  0.00  0.00    +0.123 C 
ATOM      7  C   UNL     1       5.965  -4.993   0.916  0.00  0.00    +0.105 C 
ATOM      8  C   UNL     1       4.962  -7.276   2.960  0.00  0.00    +0.242 C 
ATOM      9  O   UNL     1       5.561  -6.586   3.758  0.00  0.00    -0.273 OA
ENDROOT
BRANCH   8  10
ATOM     10  C   UNL     1       3.857  -8.185   3.431  0.00  0.00    +0.190 C 
ATOM     11  C   UNL     1       2.521  -7.486   3.314  0.00  0.00    +0.016 C 
ATOM     12  C   UNL     1       2.019  -7.423   4.568  0.00  0.00    -0.002 A 
ATOM     13  C   UNL     1       0.773  -6.872   5.113  0.00  0.00    +0.029 A 
ATOM     14  C   UNL     1       0.543  -6.960   6.444  0.00  0.00    +0.042 A 
ATOM     15  C   UNL     1       1.465  -7.564   7.313  0.00  0.00    +0.022 A 
ATOM     16  C   UNL     1       2.631  -8.093   6.885  0.00  0.00    +0.027 A 
ATOM     17  C   UNL     1       2.974  -8.055   5.505  0.00  0.00    +0.043 A 
ATOM     18  N   UNL     1       4.027  -8.493   4.856  0.00  0.00    -0.370 N 
ATOM     19 CL   UNL     1      -0.929  -6.309   7.094  0.00  0.00    -0.084 Cl
ATOM     20  H   UNL     1       4.790  -8.944   5.250  0.00  0.00    +0.161 HD
ENDBRANCH   8  10
BRANCH   1  26
ATOM     21  N   UNL     1       4.037  -2.441  -2.558  0.00  0.00    -0.200 N 
ATOM     22  C   UNL     1       5.090  -1.599  -2.612  0.00  0.00    +0.257 C 
ATOM     23  O   UNL     1       4.997  -0.528  -3.180  0.00  0.00    -0.269 OA
ATOM     24  C   UNL     1       6.356  -2.001  -1.969  0.00  0.00    +0.068 C 
ATOM     25  C   UNL     1       6.310  -2.985  -1.065  0.00  0.00    +0.014 C 
ATOM     26  C   UNL     1       4.979  -3.621  -0.754  0.00  0.00    +0.166 C 
ATOM     27  N   UNL     1       4.146  -3.657  -1.956  0.00  0.00    -0.212 NA
ATOM     28  H   UNL     1       4.483  -4.353  -2.605  0.00  0.00    +0.147 HD
BRANCH  21  32
ATOM     29  C   UNL     1       0.403  -1.296  -4.241  0.00  0.00    +0.000 A 
ATOM     30  C   UNL     1       1.071  -0.434  -3.391  0.00  0.00    +0.002 A 
ATOM     31  C   UNL     1       2.276  -0.811  -2.831  0.00  0.00    +0.025 A 
ATOM     32  C   UNL     1       2.817  -2.057  -3.123  0.00  0.00    +0.053 A 
ATOM     33  C   UNL     1       2.143  -2.920  -3.977  0.00  0.00    +0.025 A 
ATOM     34  C   UNL     1       0.938  -2.537  -4.534  0.00  0.00    +0.002 A 
ENDBRANCH  21  32
ENDBRANCH   1  26
TORSDOF 3
