REMARK  Name = ZINC08043624
REMARK  5 active torsions:
REMARK  status: ('A' for Active; 'I' for Inactive)
REMARK    1  A    between atoms: C_4  and  N_7
REMARK    2  A    between atoms: C_9  and  C_21
REMARK    3  A    between atoms: C_10  and  C_12
REMARK    4  A    between atoms: N_22  and  N_23
REMARK    5  A    between atoms: C_24  and  C_26
REMARK                            x       y       z     vdW  Elec       q    Type
REMARK                         _______ _______ _______ _____ _____    ______ ____
ROOT
ATOM      1  N   UNL     1       3.623  -0.651  -0.037  0.00  0.00    -0.239 N 
ATOM      2  C   UNL     1       3.766  -1.993  -0.051  0.00  0.00    +0.124 A 
ATOM      3  C   UNL     1       5.103  -2.276  -0.065  0.00  0.00    +0.043 A 
ATOM      4  C   UNL     1       5.806  -0.988  -0.059  0.00  0.00    +0.137 A 
ATOM      5  N   UNL     1       4.884  -0.047  -0.048  0.00  0.00    -0.163 NA
ENDROOT
BRANCH   4   6
ATOM      6  C   UNL     1       7.268  -0.785  -0.069  0.00  0.00    +0.157 A 
ATOM      7  C   UNL     1       7.909   0.231  -0.697  0.00  0.00    +0.060 A 
ATOM      8  C   UNL     1       9.337   0.030  -0.438  0.00  0.00    +0.021 A 
ATOM      9  C   UNL     1      10.497   0.717  -0.799  0.00  0.00    +0.011 A 
ATOM     10  C   UNL     1      11.715   0.255  -0.384  0.00  0.00    +0.001 A 
ATOM     11  C   UNL     1      11.804  -0.890   0.394  0.00  0.00    +0.004 A 
ATOM     12  C   UNL     1      10.669  -1.583   0.761  0.00  0.00    +0.047 A 
ATOM     13  C   UNL     1       9.421  -1.131   0.350  0.00  0.00    +0.136 A 
ATOM     14  O   UNL     1       8.164  -1.579   0.549  0.00  0.00    -0.453 OA
ENDBRANCH   4   6
BRANCH   1  18
ATOM     15  C   UNL     1      -0.017   1.379   0.010  0.00  0.00    +0.000 A 
ATOM     16  C   UNL     1       1.170   2.089   0.002  0.00  0.00    +0.002 A 
ATOM     17  C   UNL     1       2.377   1.419  -0.013  0.00  0.00    +0.028 A 
ATOM     18  C   UNL     1       2.400   0.031  -0.021  0.00  0.00    +0.065 A 
ATOM     19  C   UNL     1       1.206  -0.680  -0.013  0.00  0.00    +0.028 A 
ATOM     20  C   UNL     1       0.002  -0.004   0.002  0.00  0.00    +0.002 A 
ENDBRANCH   1  18
BRANCH   3  21
ATOM     21  C   UNL     1       5.719  -3.615  -0.084  0.00  0.00    +0.142 C 
ATOM     22  N   UNL     1       7.012  -3.734  -0.095  0.00  0.00    -0.187 NA
BRANCH  22  23
ATOM     23  N   UNL     1       7.598  -5.007  -0.112  0.00  0.00    -0.200 N 
ATOM     24  C   UNL     1       8.940  -5.131  -0.124  0.00  0.00    +0.299 C 
ATOM     25  O   UNL     1       9.643  -4.137  -0.120  0.00  0.00    -0.265 OA
ATOM     26  H   UNL     1       7.038  -5.799  -0.115  0.00  0.00    +0.178 HD
BRANCH  24  27
ATOM     27  C   UNL     1       9.553  -6.463  -0.142  0.00  0.00    +0.191 A 
ATOM     28  C   UNL     1      10.892  -6.730  -0.150  0.00  0.00    +0.054 A 
ATOM     29  C   UNL     1      11.025  -8.127  -0.167  0.00  0.00    +0.042 A 
ATOM     30  C   UNL     1       9.777  -8.645  -0.168  0.00  0.00    +0.196 A 
ATOM     31  O   UNL     1       8.893  -7.639  -0.148  0.00  0.00    -0.458 OA
ENDBRANCH  24  27
ENDBRANCH  22  23
ENDBRANCH   3  21
TORSDOF 5
