REMARK  Name = ZINC32527485
REMARK  17 active torsions:
REMARK  status: ('A' for Active; 'I' for Inactive)
REMARK    1  A    between atoms: C_1  and  C_2
REMARK    2  A    between atoms: C_2  and  C_3
REMARK    3  A    between atoms: C_3  and  C_5
REMARK    4  A    between atoms: C_3  and  N_24
REMARK    5  A    between atoms: N_7  and  C_8
REMARK    6  A    between atoms: C_9  and  C_19
REMARK    7  A    between atoms: C_10  and  C_14
REMARK    8  A    between atoms: C_11  and  C_13
REMARK    9  A    between atoms: C_14  and  O_16
REMARK   10  A    between atoms: O_16  and  C_17
REMARK   11  A    between atoms: C_17  and  C_18
REMARK   12  A    between atoms: C_19  and  O_21
REMARK   13  A    between atoms: O_21  and  C_22
REMARK   14  A    between atoms: C_22  and  C_23
REMARK   15  A    between atoms: C_28  and  C_37
REMARK   16  A    between atoms: C_31  and  C_36
REMARK   17  A    between atoms: C_33  and  C_35
REMARK                            x       y       z     vdW  Elec       q    Type
REMARK                         _______ _______ _______ _____ _____    ______ ____
ROOT
ATOM      1  C   UNL     1      -4.619   3.161  -1.657  0.00  0.00    +0.242 C 
ATOM      2  O   UNL     1      -4.198   3.707  -2.655  0.00  0.00    -0.273 OA
ATOM      3  N   UNL     1      -5.656   2.305  -1.744  0.00  0.00    -0.254 N 
ATOM      4  H   UNL     1      -6.038   1.810  -0.839  0.00  0.00    +0.158 HD
ENDROOT
BRANCH   3   5
ATOM      5  C   UNL     1      -6.240   2.050  -2.970  0.00  0.00    +0.208 A 
ATOM      6  C   UNL     1      -7.306   1.197  -3.197  0.00  0.00    +0.134 A 
ATOM      7  C   UNL     1      -7.557   1.267  -4.655  0.00  0.00    +0.115 A 
ATOM      8  C   UNL     1      -6.635   2.138  -5.145  0.00  0.00    +0.119 A 
ATOM      9  O   UNL     1      -5.875   2.590  -4.140  0.00  0.00    -0.445 OA
ATOM     10  C   UNL     1      -6.495   2.536  -6.591  0.00  0.00    +0.087 C 
BRANCH   7  11
ATOM     11  C   UNL     1      -8.590   0.546  -5.415  0.00  0.00    +0.343 C 
ATOM     12  O   UNL     1      -9.687   1.045  -5.575  0.00  0.00    -0.245 OA
BRANCH  11  13
ATOM     13  O   UNL     1      -8.320  -0.668  -5.934  0.00  0.00    -0.461 OA
BRANCH  13  14
ATOM     14  C   UNL     1      -9.386  -1.322  -6.672  0.00  0.00    +0.229 C 
ATOM     15  C   UNL     1      -8.896  -2.679  -7.181  0.00  0.00    +0.048 C 
ENDBRANCH  13  14
ENDBRANCH  11  13
ENDBRANCH   7  11
BRANCH   6  16
ATOM     16  C   UNL     1      -8.031   0.397  -2.208  0.00  0.00    +0.345 C 
ATOM     17  O   UNL     1      -9.002   0.862  -1.643  0.00  0.00    -0.245 OA
BRANCH  16  18
ATOM     18  O   UNL     1      -7.621  -0.856  -1.923  0.00  0.00    -0.461 OA
BRANCH  18  19
ATOM     19  C   UNL     1      -8.387  -1.591  -0.932  0.00  0.00    +0.229 C 
ATOM     20  C   UNL     1      -7.776  -2.981  -0.744  0.00  0.00    +0.048 C 
ENDBRANCH  18  19
ENDBRANCH  16  18
ENDBRANCH   6  16
ENDBRANCH   3   5
BRANCH   1  21
ATOM     21  C   UNL     1      -3.982   3.439  -0.320  0.00  0.00    +0.176 C 
BRANCH  21  22
ATOM     22  N   UNL     1      -2.885   4.395  -0.492  0.00  0.00    -0.296 N 
ATOM     23  C   UNL     1      -2.886   5.539   0.215  0.00  0.00    +0.253 A 
ATOM     24  O   UNL     1      -3.803   5.759   0.988  0.00  0.00    -0.268 OA
ATOM     25  C   UNL     1      -1.852   6.491   0.085  0.00  0.00    +0.074 A 
ATOM     26  C   UNL     1      -0.822   6.268  -0.767  0.00  0.00    -0.036 A 
ATOM     27  C   UNL     1      -0.811   5.026  -1.542  0.00  0.00    +0.002 A 
ATOM     28  C   UNL     1      -1.866   4.109  -1.376  0.00  0.00    +0.056 A 
ATOM     29  C   UNL     1      -1.867   2.928  -2.111  0.00  0.00    -0.026 A 
ATOM     30  C   UNL     1      -0.833   2.665  -2.984  0.00  0.00    +0.008 A 
ATOM     31  C   UNL     1       0.205   3.572  -3.145  0.00  0.00    -0.050 A 
ATOM     32  C   UNL     1       0.225   4.740  -2.437  0.00  0.00    +0.013 A 
ATOM     33  C   UNL     1       1.322   3.264  -4.109  0.00  0.00    +0.044 C 
ATOM     34  C   UNL     1      -2.992   1.938  -1.950  0.00  0.00    +0.046 C 
ATOM     35  C   UNL     1       0.288   7.277  -0.914  0.00  0.00    +0.044 C 
ENDBRANCH  21  22
BRANCH  21  37
ATOM     36  C   UNL     1      -4.476   4.027   2.057  0.00  0.00    +0.006 C 
ATOM     37  C   UNL     1      -5.027   4.028   0.630  0.00  0.00    +0.031 C 
ENDBRANCH  21  37
ENDBRANCH   1  21
TORSDOF 10
