REMARK  Name = ZINC20353796
REMARK  9 active torsions:
REMARK  status: ('A' for Active; 'I' for Inactive)
REMARK    1  A    between atoms: C_1  and  C_2
REMARK    2  A    between atoms: C_2  and  C_3
REMARK    3  A    between atoms: C_3  and  O_4
REMARK    4  A    between atoms: O_4  and  C_5
REMARK    5  A    between atoms: C_8  and  N_11
REMARK    6  A    between atoms: C_15  and  N_19
REMARK    7  A    between atoms: C_22  and  N_25
REMARK    8  A    between atoms: N_25  and  S_26
REMARK    9  A    between atoms: S_26  and  C_29
REMARK                            x       y       z     vdW  Elec       q    Type
REMARK                         _______ _______ _______ _____ _____    ______ ____
ROOT
ATOM      1  N   UNL     1       1.889   1.835  -1.065  0.00  0.00    +0.388 N 
ATOM      2  C   UNL     1       1.299   2.579   0.056  0.00  0.00    -0.076 C 
ATOM      3  C   UNL     1      -0.209   2.322   0.101  0.00  0.00    +0.002 C 
ATOM      4  C   UNL     1      -0.462   0.821   0.271  0.00  0.00    +0.073 C 
ATOM      5  C   UNL     1       0.204   0.066  -0.883  0.00  0.00    +0.002 C 
ATOM      6  C   UNL     1       1.700   0.388  -0.900  0.00  0.00    -0.076 C 
ATOM      7  H   UNL     1       1.365   2.139  -1.982  0.00  0.00    -0.081 HD
ENDROOT
BRANCH   1  12
ATOM      8  N   UNL     1       4.606   3.004   0.519  0.00  0.00    -0.212 N 
ATOM      9  C   UNL     1       4.346   4.087  -0.224  0.00  0.00    +0.225 C 
ATOM     10  O   UNL     1       4.729   5.212   0.017  0.00  0.00    -0.275 OA
ATOM     11  C   UNL     1       3.498   3.685  -1.411  0.00  0.00    +0.090 C 
ATOM     12  C   UNL     1       3.312   2.166  -1.224  0.00  0.00    +0.029 C 
ATOM     13  C   UNL     1       4.073   1.869   0.049  0.00  0.00    +0.213 C 
ATOM     14  O   UNL     1       4.184   0.776   0.562  0.00  0.00    -0.277 OA
BRANCH   8  18
ATOM     15  C   UNL     1       6.889   3.153   4.008  0.00  0.00    +0.121 A 
ATOM     16  C   UNL     1       7.371   2.485   2.891  0.00  0.00    +0.047 A 
ATOM     17  C   UNL     1       6.616   2.435   1.736  0.00  0.00    +0.027 A 
ATOM     18  C   UNL     1       5.374   3.054   1.692  0.00  0.00    +0.044 A 
ATOM     19  C   UNL     1       4.894   3.726   2.808  0.00  0.00    +0.027 A 
ATOM     20  C   UNL     1       5.647   3.771   3.964  0.00  0.00    +0.047 A 
BRANCH  15  21
ATOM     21  O   UNL     1       7.633   3.202   5.144  0.00  0.00    -0.492 OA
BRANCH  21  22
ATOM     22  C   UNL     1       7.074   3.906   6.255  0.00  0.00    +0.229 C 
BRANCH  22  24
ATOM     23  C   UNL     1       7.450   4.608   8.624  0.00  0.00    +0.007 C 
ATOM     24  C   UNL     1       8.048   3.853   7.434  0.00  0.00    +0.038 C 
ENDBRANCH  22  24
ENDBRANCH  21  22
ENDBRANCH  15  21
ENDBRANCH   8  18
ENDBRANCH   1  12
BRANCH   4  25
ATOM     25  N   UNL     1      -1.904   0.563   0.256  0.00  0.00    -0.187 NA
ATOM     26  H   UNL     1      -2.583   1.263  -0.253  0.00  0.00    +0.148 HD
BRANCH  25  27
ATOM     27  S   UNL     1      -2.540  -0.635   1.207  0.00  0.00    +0.059 S 
ATOM     28  O   UNL     1      -3.945  -0.619   0.994  0.00  0.00    -0.153 OA
ATOM     29  O   UNL     1      -1.748  -1.794   0.984  0.00  0.00    -0.153 OA
BRANCH  27  30
ATOM     30  C   UNL     1      -2.280  -0.162   2.884  0.00  0.00    +0.105 A 
ATOM     31  C   UNL     1      -1.125  -0.546   3.539  0.00  0.00    +0.028 A 
ATOM     32  C   UNL     1      -0.918  -0.171   4.853  0.00  0.00    +0.002 A 
ATOM     33  C   UNL     1      -1.872   0.578   5.516  0.00  0.00    +0.000 A 
ATOM     34  C   UNL     1      -3.030   0.958   4.863  0.00  0.00    +0.002 A 
ATOM     35  C   UNL     1      -3.233   0.587   3.547  0.00  0.00    +0.028 A 
ENDBRANCH  27  30
ENDBRANCH  25  27
ENDBRANCH   4  25
TORSDOF 8
