REMARK  Name = ZINC04998111
REMARK  5 active torsions:
REMARK  status: ('A' for Active; 'I' for Inactive)
REMARK    1  A    between atoms: C_1  and  C_2
REMARK    2  A    between atoms: C_2  and  C_4
REMARK    3  A    between atoms: C_2  and  N_16
REMARK    4  A    between atoms: C_6  and  C_9
REMARK    5  A    between atoms: C_17  and  C_19
REMARK                            x       y       z     vdW  Elec       q    Type
REMARK                         _______ _______ _______ _____ _____    ______ ____
ROOT
ATOM      1  C   UNL     1       6.604   0.378   1.338  0.00  0.00    +0.038 C 
ATOM      2  C   UNL     1       6.059   0.725  -0.049  0.00  0.00    +0.159 C 
ENDROOT
BRANCH   2   3
ATOM      3  C   UNL     1       4.555   0.629  -0.036  0.00  0.00    +0.248 A 
ATOM      4  N   UNL     1       3.711   1.631  -0.029  0.00  0.00    -0.190 NA
ATOM      5  C   UNL     1       2.481   1.069  -0.015  0.00  0.00    +0.202 A 
ATOM      6  N   UNL     1       2.648  -0.228  -0.023  0.00  0.00    -0.056 NA
ATOM      7  O   UNL     1       3.831  -0.495  -0.035  0.00  0.00    -0.336 OA
BRANCH   5   8
ATOM      8  C   UNL     1       1.184   1.790   0.000  0.00  0.00    +0.023 A 
ATOM      9  C   UNL     1      -0.013   1.076   0.008  0.00  0.00    +0.013 A 
ATOM     10  C   UNL     1      -1.216   1.751   0.017  0.00  0.00    +0.021 A 
ATOM     11  C   UNL     1      -1.236   3.135   0.029  0.00  0.00    +0.041 A 
ATOM     12  C   UNL     1      -0.050   3.849   0.022  0.00  0.00    +0.021 A 
ATOM     13  C   UNL     1       1.159   3.183   0.008  0.00  0.00    +0.013 A 
ATOM     14 CL   UNL     1      -2.753   3.978   0.046  0.00  0.00    -0.084 Cl
ENDBRANCH   5   8
ENDBRANCH   2   3
BRANCH   2  15
ATOM     15  N   UNL     1       6.600  -0.213  -1.035  0.00  0.00    -0.304 N 
ATOM     16  C   UNL     1       7.805   0.017  -1.593  0.00  0.00    +0.217 C 
ATOM     17  O   UNL     1       8.441   1.000  -1.279  0.00  0.00    -0.275 OA
ATOM     18  H   UNL     1       6.091  -0.999  -1.287  0.00  0.00    +0.149 HD
BRANCH  16  19
ATOM     19  C   UNL     1       8.361  -0.948  -2.608  0.00  0.00    +0.075 C 
ATOM     20  C   UNL     1       8.507  -2.331  -1.971  0.00  0.00    +0.013 C 
ATOM     21  C   UNL     1       9.072  -3.311  -3.001  0.00  0.00    +0.001 C 
ATOM     22  C   UNL     1      10.442  -2.820  -3.474  0.00  0.00    +0.000 C 
ATOM     23  C   UNL     1      10.296  -1.437  -4.112  0.00  0.00    +0.001 C 
ATOM     24  C   UNL     1       9.731  -0.458  -3.081  0.00  0.00    +0.013 C 
ENDBRANCH  16  19
ENDBRANCH   2  15
TORSDOF 4
