REMARK  Name = ZINC35747383
REMARK  12 active torsions:
REMARK  status: ('A' for Active; 'I' for Inactive)
REMARK    1  A    between atoms: C_5  and  C_7
REMARK    2  A    between atoms: C_16  and  C_18
REMARK    3  A    between atoms: C_18  and  N_19
REMARK    4  A    between atoms: N_19  and  C_20
REMARK    5  A    between atoms: N_19  and  C_26
REMARK    6  A    between atoms: C_20  and  C_21
REMARK    7  A    between atoms: C_26  and  C_27
REMARK    8  A    between atoms: C_27  and  C_29
REMARK    9  A    between atoms: C_27  and  O_37
REMARK   10  A    between atoms: C_29  and  O_30
REMARK   11  A    between atoms: O_30  and  C_31
REMARK   12  A    between atoms: C_31  and  C_32
REMARK                            x       y       z     vdW  Elec       q    Type
REMARK                         _______ _______ _______ _____ _____    ______ ____
ROOT
ATOM      1  N   UNL     1       3.079  -6.928   3.495  0.00  0.00    +0.391 N 
ATOM      2  H   UNL     1       3.568  -7.085   2.627  0.00  0.00    -0.080 HD
ENDROOT
BRANCH   1   3
ATOM      3  C   UNL     1       3.304  -5.546   3.941  0.00  0.00    -0.003 C 
BRANCH   3  13
ATOM      4  C   UNL     1       8.937  -4.678   3.996  0.00  0.00    +0.006 A 
ATOM      5  C   UNL     1       9.629  -5.731   3.499  0.00  0.00    +0.056 A 
ATOM      6  S   UNL     1       8.351  -6.894   3.059  0.00  0.00    -0.076 S 
ATOM      7  C   UNL     1       6.932  -5.948   3.548  0.00  0.00    +0.116 A 
ATOM      8  C   UNL     1       7.482  -4.756   4.047  0.00  0.00    +0.080 A 
ATOM      9  C   UNL     1       6.539  -3.791   4.526  0.00  0.00    +0.260 A 
ATOM     10  O   UNL     1       6.920  -2.723   4.973  0.00  0.00    -0.267 OA
ATOM     11  N   UNL     1       5.226  -4.081   4.474  0.00  0.00    -0.312 N 
ATOM     12  H   UNL     1       4.582  -3.431   4.797  0.00  0.00    +0.170 HD
ATOM     13  C   UNL     1       4.784  -5.265   3.979  0.00  0.00    +0.094 A 
ATOM     14  N   UNL     1       5.619  -6.162   3.525  0.00  0.00    -0.229 NA
BRANCH   4  19
ATOM     15  C   UNL     1      11.028  -1.555   4.059  0.00  0.00    +0.001 A 
ATOM     16  C   UNL     1      10.972  -1.218   5.400  0.00  0.00    +0.003 A 
ATOM     17  C   UNL     1      10.256  -2.001   6.287  0.00  0.00    +0.039 A 
ATOM     18  C   UNL     1       9.592  -3.127   5.837  0.00  0.00    +0.131 A 
ATOM     19  C   UNL     1       9.646  -3.471   4.486  0.00  0.00    +0.019 A 
ATOM     20  C   UNL     1      10.369  -2.677   3.598  0.00  0.00    +0.011 A 
ATOM     21  F   UNL     1       8.893  -3.892   6.704  0.00  0.00    -0.205 F 
ENDBRANCH   4  19
ENDBRANCH   3  13
ENDBRANCH   1   3
BRANCH   1  22
ATOM     22  C   UNL     1       1.640  -7.149   3.293  0.00  0.00    -0.002 C 
BRANCH  22  23
ATOM     23  C   UNL     1       1.153  -6.283   2.161  0.00  0.00    +0.089 A 
ATOM     24  C   UNL     1       1.216  -6.589   0.853  0.00  0.00    +0.042 A 
ATOM     25  C   UNL     1       0.650  -5.501   0.149  0.00  0.00    +0.041 A 
ATOM     26  C   UNL     1       0.275  -4.594   1.070  0.00  0.00    +0.195 A 
ATOM     27  O   UNL     1       0.577  -5.076   2.287  0.00  0.00    -0.470 OA
ENDBRANCH  22  23
ENDBRANCH   1  22
BRANCH   1  28
ATOM     28  C   UNL     1       3.579  -7.859   4.515  0.00  0.00    -0.044 C 
BRANCH  28  29
ATOM     29  C   UNL     1       3.459  -9.294   3.999  0.00  0.00    +0.124 C 
BRANCH  29  30
ATOM     30  O   UNL     1       4.321  -9.469   2.872  0.00  0.00    -0.391 OA
ATOM     31  H   UNL     1       5.255  -9.312   3.064  0.00  0.00    +0.210 HD
ENDBRANCH  29  30
BRANCH  29  32
ATOM     32  C   UNL     1       3.862 -10.270   5.106  0.00  0.00    +0.189 C 
BRANCH  32  33
ATOM     33  O   UNL     1       3.640 -11.611   4.663  0.00  0.00    -0.370 OA
BRANCH  33  34
ATOM     34  C   UNL     1       3.986 -12.606   5.628  0.00  0.00    +0.234 C 
BRANCH  34  35
ATOM     35  C   UNL     1       3.712 -13.975   5.058  0.00  0.00    +0.130 A 
ATOM     36  C   UNL     1       4.585 -14.727   4.364  0.00  0.00    +0.047 A 
ATOM     37  C   UNL     1       3.915 -15.925   4.026  0.00  0.00    +0.041 A 
ATOM     38  C   UNL     1       2.672 -15.833   4.533  0.00  0.00    +0.195 A 
ATOM     39  O   UNL     1       2.557 -14.652   5.163  0.00  0.00    -0.465 OA
ENDBRANCH  34  35
ENDBRANCH  33  34
ENDBRANCH  32  33
ENDBRANCH  29  32
ENDBRANCH  28  29
ENDBRANCH   1  28
TORSDOF 12
