REMARK  Name = ZINC04294234
REMARK  7 active torsions:
REMARK  status: ('A' for Active; 'I' for Inactive)
REMARK    1  A    between atoms: C_1  and  C_2
REMARK    2  A    between atoms: C_3  and  C_23
REMARK    3  A    between atoms: C_4  and  C_16
REMARK    4  A    between atoms: C_10  and  C_12
REMARK    5  A    between atoms: C_12  and  C_13
REMARK    6  A    between atoms: C_13  and  C_14
REMARK    7  A    between atoms: C_14  and  O_15
REMARK                            x       y       z     vdW  Elec       q    Type
REMARK                         _______ _______ _______ _____ _____    ______ ____
ROOT
ATOM      1  C   UNL     1       0.637   1.238   0.151  0.00  0.00    +0.066 C 
ATOM      2  C   UNL     1       0.387  -0.245   0.058  0.00  0.00    +0.052 C 
ATOM      3  C   UNL     1      -0.883  -0.689  -0.180  0.00  0.00    +0.061 C 
ATOM      4  C   UNL     1      -1.088  -2.192  -0.267  0.00  0.00    +0.164 C 
ATOM      5  N   UNL     1       0.111  -3.016  -0.084  0.00  0.00    -0.208 N 
ATOM      6  C   UNL     1       1.316  -2.397   0.148  0.00  0.00    +0.237 C 
ATOM      7  N   UNL     1       1.406  -1.079   0.203  0.00  0.00    -0.218 NA
ATOM      8  N   UNL     1       2.239  -3.369   0.277  0.00  0.00    -0.201 NA
ATOM      9  C   UNL     1       1.683  -4.544   0.140  0.00  0.00    +0.115 C 
ATOM     10  N   UNL     1       0.358  -4.391  -0.087  0.00  0.00    -0.248 N 
ATOM     11  H   UNL     1      -0.292  -5.098  -0.225  0.00  0.00    +0.171 HD
ENDROOT
BRANCH   4  12
ATOM     12  C   UNL     1      -1.671  -2.509  -1.620  0.00  0.00    -0.020 A 
ATOM     13  C   UNL     1      -0.887  -2.397  -2.753  0.00  0.00    +0.006 A 
ATOM     14  C   UNL     1      -1.421  -2.688  -3.994  0.00  0.00    +0.001 A 
ATOM     15  C   UNL     1      -2.739  -3.092  -4.103  0.00  0.00    +0.015 A 
ATOM     16  C   UNL     1      -3.522  -3.205  -2.969  0.00  0.00    +0.018 A 
ATOM     17  C   UNL     1      -2.986  -2.918  -1.726  0.00  0.00    +0.021 A 
ATOM     18 BR   UNL     1      -5.325  -3.757  -3.117  0.00  0.00    -0.050 Br
ENDBRANCH   4  12
BRANCH   3  19
ATOM     19  C   UNL     1      -1.957   0.208  -0.337  0.00  0.00    +0.241 C 
ATOM     20  O   UNL     1      -1.747   1.408  -0.378  0.00  0.00    -0.271 OA
ATOM     21  N   UNL     1      -3.216  -0.260  -0.444  0.00  0.00    -0.325 N 
ATOM     22  H   UNL     1      -3.392  -1.208  -0.335  0.00  0.00    +0.145 HD
ATOM     23  H   UNL     1      -3.946   0.350  -0.629  0.00  0.00    +0.145 HD
ENDBRANCH   3  19
BRANCH   9  24
ATOM     24  C   UNL     1       2.406  -5.864   0.221  0.00  0.00    +0.075 C 
BRANCH  24  25
ATOM     25  C   UNL     1       3.892  -5.615   0.490  0.00  0.00    +0.035 C 
BRANCH  25  26
ATOM     26  C   UNL     1       4.626  -6.955   0.572  0.00  0.00    +0.156 C 
BRANCH  26  27
ATOM     27  O   UNL     1       6.014  -6.723   0.823  0.00  0.00    -0.395 OA
ATOM     28  H   UNL     1       6.542  -7.531   0.888  0.00  0.00    +0.209 HD
ENDBRANCH  26  27
ENDBRANCH  25  26
ENDBRANCH  24  25
ENDBRANCH   9  24
TORSDOF 6
