REMARK  Name = ZINC14119115
REMARK  11 active torsions:
REMARK  status: ('A' for Active; 'I' for Inactive)
REMARK    1  A    between atoms: C_1  and  C_2
REMARK    2  A    between atoms: C_7  and  N_8
REMARK    3  A    between atoms: C_9  and  C_11
REMARK    4  A    between atoms: C_11  and  N_12
REMARK    5  A    between atoms: C_13  and  C_15
REMARK    6  A    between atoms: C_15  and  C_17
REMARK    7  A    between atoms: C_15  and  N_21
REMARK    8  A    between atoms: C_17  and  C_18
REMARK    9  A    between atoms: C_18  and  S_19
REMARK   10  A    between atoms: S_19  and  C_20
REMARK   11  A    between atoms: C_22  and  C_24
REMARK                            x       y       z     vdW  Elec       q    Type
REMARK                         _______ _______ _______ _____ _____    ______ ____
ROOT
ATOM      1  N   UNL     1      -0.011   0.967  -0.009  0.00  0.00    -0.305 N 
ATOM      2  C   UNL     1       1.147   1.657  -0.026  0.00  0.00    +0.234 C 
ATOM      3  O   UNL     1       1.130   2.869  -0.028  0.00  0.00    -0.274 OA
ATOM      4  H   UNL     1       0.002  -0.003  -0.008  0.00  0.00    +0.149 HD
ENDROOT
BRANCH   1   5
ATOM      5  C   UNL     1      -1.290   1.682   0.002  0.00  0.00    +0.200 C 
BRANCH   5   7
ATOM      6  N   UNL     1      -3.698   1.118   0.026  0.00  0.00    -0.284 N 
ATOM      7  C   UNL     1      -2.422   0.686   0.014  0.00  0.00    +0.234 C 
ATOM      8  O   UNL     1      -2.183  -0.503   0.013  0.00  0.00    -0.274 OA
ATOM      9  H   UNL     1      -3.889   2.066   0.107  0.00  0.00    +0.155 HD
BRANCH   6  16
ATOM     10  C   UNL     1      -6.229   1.841   1.106  0.00  0.00    +0.046 C 
ATOM     11  C   UNL     1      -6.000   0.511   0.434  0.00  0.00    -0.028 A 
ATOM     12  C   UNL     1      -7.037  -0.395   0.323  0.00  0.00    +0.020 A 
ATOM     13  C   UNL     1      -6.825  -1.618  -0.288  0.00  0.00    +0.018 A 
ATOM     14  C   UNL     1      -5.577  -1.934  -0.796  0.00  0.00    +0.017 A 
ATOM     15  C   UNL     1      -4.539  -1.029  -0.694  0.00  0.00    +0.024 A 
ATOM     16  C   UNL     1      -4.749   0.199  -0.080  0.00  0.00    +0.036 A 
ATOM     17 BR   UNL     1      -8.244  -2.860  -0.430  0.00  0.00    -0.050 Br
ENDBRANCH   6  16
ENDBRANCH   5   7
ENDBRANCH   1   5
BRANCH   2  18
ATOM     18  C   UNL     1       2.462   0.921  -0.044  0.00  0.00    +0.160 C 
BRANCH  18  19
ATOM     19  N   UNL     1       3.562   1.889  -0.061  0.00  0.00    -0.297 N 
ATOM     20  C   UNL     1       4.759   1.538  -0.571  0.00  0.00    +0.280 C 
ATOM     21  O   UNL     1       4.927   0.419  -1.018  0.00  0.00    -0.267 OA
ATOM     22  H   UNL     1       3.429   2.781   0.295  0.00  0.00    +0.150 HD
BRANCH  20  23
ATOM     23  C   UNL     1       5.861   2.507  -0.588  0.00  0.00    +0.189 A 
ATOM     24  C   UNL     1       7.117   2.284  -1.073  0.00  0.00    +0.054 A 
ATOM     25  C   UNL     1       7.838   3.475  -0.889  0.00  0.00    +0.042 A 
ATOM     26  C   UNL     1       6.999   4.361  -0.308  0.00  0.00    +0.196 A 
ATOM     27  O   UNL     1       5.808   3.776  -0.133  0.00  0.00    -0.458 OA
ENDBRANCH  20  23
ENDBRANCH  18  19
BRANCH  18  28
ATOM     28  C   UNL     1       2.573   0.044   1.204  0.00  0.00    +0.042 C 
BRANCH  28  29
ATOM     29  C   UNL     1       3.849  -0.796   1.126  0.00  0.00    +0.071 C 
BRANCH  29  30
ATOM     30  S   UNL     1       3.981  -1.835   2.606  0.00  0.00    -0.164 S 
ATOM     31  C   UNL     1       5.525  -2.755   2.361  0.00  0.00    +0.084 C 
ENDBRANCH  29  30
ENDBRANCH  28  29
ENDBRANCH  18  28
ENDBRANCH   2  18
TORSDOF 9
