REMARK  Name = ZINC09852764
REMARK  9 active torsions:
REMARK  status: ('A' for Active; 'I' for Inactive)
REMARK    1  A    between atoms: C_1  and  C_2
REMARK    2  A    between atoms: C_5  and  C_8
REMARK    3  A    between atoms: C_11  and  O_14
REMARK    4  A    between atoms: O_14  and  C_15
REMARK    5  A    between atoms: C_15  and  C_16
REMARK    6  A    between atoms: C_16  and  N_17
REMARK    7  A    between atoms: N_17  and  S_18
REMARK    8  A    between atoms: S_18  and  C_21
REMARK    9  A    between atoms: C_25  and  N_27
REMARK                            x       y       z     vdW  Elec       q    Type
REMARK                         _______ _______ _______ _____ _____    ______ ____
ROOT
ATOM      1  C   UNL     1      -1.199   6.658  -3.658  0.00  0.00    +0.247 C 
ENDROOT
BRANCH   1   2
ATOM      2  O   UNL     1      -0.053   6.304  -4.434  0.00  0.00    -0.474 OA
BRANCH   2   6
ATOM      3  C   UNL     1       0.439   8.382  -7.876  0.00  0.00    +0.094 A 
ATOM      4  C   UNL     1       1.393   7.405  -7.573  0.00  0.00    +0.035 A 
ATOM      5  C   UNL     1       1.237   6.687  -6.399  0.00  0.00    +0.071 A 
ATOM      6  C   UNL     1       0.140   6.982  -5.593  0.00  0.00    +0.234 A 
ATOM      7  N   UNL     1      -0.718   7.921  -5.961  0.00  0.00    -0.111 NA
ATOM      8  N   UNL     1      -0.573   8.592  -7.046  0.00  0.00    -0.146 NA
BRANCH   3  13
ATOM      9  C   UNL     1       0.907  11.476 -12.710  0.00  0.00    +0.044 C 
ATOM     10  C   UNL     1       0.784  10.666 -11.445  0.00  0.00    -0.050 A 
ATOM     11  C   UNL     1      -0.274  10.890 -10.583  0.00  0.00    +0.004 A 
ATOM     12  C   UNL     1      -0.391  10.152  -9.423  0.00  0.00    +0.010 A 
ATOM     13  C   UNL     1       0.560   9.178  -9.121  0.00  0.00    +0.002 A 
ATOM     14  C   UNL     1       1.627   8.961  -9.990  0.00  0.00    +0.010 A 
ATOM     15  C   UNL     1       1.731   9.701 -11.150  0.00  0.00    +0.004 A 
ENDBRANCH   3  13
ENDBRANCH   2   6
ENDBRANCH   1   2
BRANCH   1  16
ATOM     16  C   UNL     1      -1.249   5.793  -2.397  0.00  0.00    +0.147 C 
BRANCH  16  17
ATOM     17  N   UNL     1      -0.095   6.100  -1.548  0.00  0.00    -0.187 NA
ATOM     18  H   UNL     1       0.656   6.594  -1.911  0.00  0.00    +0.148 HD
BRANCH  17  19
ATOM     19  S   UNL     1      -0.074   5.602   0.032  0.00  0.00    +0.059 S 
ATOM     20  O   UNL     1      -1.319   5.988   0.596  0.00  0.00    -0.153 OA
ATOM     21  O   UNL     1       1.171   6.022   0.573  0.00  0.00    -0.153 OA
BRANCH  19  22
ATOM     22  C   UNL     1      -0.050   3.840   0.022  0.00  0.00    +0.107 A 
ATOM     23  C   UNL     1       1.157   3.165   0.008  0.00  0.00    +0.028 A 
ATOM     24  C   UNL     1       1.175   1.783   0.000  0.00  0.00    +0.004 A 
ATOM     25  C   UNL     1      -0.013   1.076   0.008  0.00  0.00    +0.033 A 
ATOM     26  C   UNL     1      -1.219   1.750   0.017  0.00  0.00    +0.128 A 
ATOM     27  C   UNL     1      -1.238   3.133   0.030  0.00  0.00    +0.061 A 
BRANCH  26  28
ATOM     28  N   UNL     1      -2.490   0.993   0.019  0.00  0.00    +0.056 N 
ATOM     29  O   UNL     1      -2.474  -0.225   0.013  0.00  0.00    -0.126 OA
ATOM     30  O   UNL     1      -3.554   1.588   0.028  0.00  0.00    -0.126 OA
ENDBRANCH  26  28
ENDBRANCH  19  22
ENDBRANCH  17  19
ENDBRANCH  16  17
ENDBRANCH   1  16
TORSDOF 8
