REMARK  Name = ZINC35099365
REMARK  9 active torsions:
REMARK  status: ('A' for Active; 'I' for Inactive)
REMARK    1  A    between atoms: C_1  and  C_2
REMARK    2  A    between atoms: C_2  and  O_3
REMARK    3  A    between atoms: O_3  and  C_4
REMARK    4  A    between atoms: C_6  and  C_11
REMARK    5  A    between atoms: C_9  and  O_10
REMARK    6  A    between atoms: C_13  and  C_28
REMARK    7  A    between atoms: C_15  and  C_20
REMARK    8  A    between atoms: C_15  and  O_27
REMARK    9  A    between atoms: C_28  and  C_30
REMARK                            x       y       z     vdW  Elec       q    Type
REMARK                         _______ _______ _______ _____ _____    ______ ____
ROOT
ATOM      1  C   UNL     1      -0.250  -4.841  -0.460  0.00  0.00    +0.120 C 
ATOM      2  C   UNL     1      -1.499  -5.593   0.013  0.00  0.00    +0.144 C 
ATOM      3  C   UNL     1      -1.879  -6.626  -1.054  0.00  0.00    +0.172 C 
ATOM      4  N   UNL     1      -0.729  -7.495  -1.312  0.00  0.00    -0.267 N 
ATOM      5  C   UNL     1       0.528  -7.054  -1.156  0.00  0.00    +0.302 C 
ATOM      6  O   UNL     1       1.447  -7.814  -1.394  0.00  0.00    -0.253 OA
ATOM      7  N   UNL     1       0.812  -5.806  -0.751  0.00  0.00    -0.292 N 
ATOM      8  H   UNL     1      -0.880  -8.409  -1.600  0.00  0.00    +0.153 HD
ATOM      9  H   UNL     1       1.738  -5.539  -0.648  0.00  0.00    +0.151 HD
ENDROOT
BRANCH   3  10
ATOM     10  C   UNL     1      -3.037  -7.455  -0.561  0.00  0.00    +0.003 A 
ATOM     11  C   UNL     1      -2.801  -8.615   0.154  0.00  0.00    +0.009 A 
ATOM     12  C   UNL     1      -3.863  -9.376   0.606  0.00  0.00    +0.020 A 
ATOM     13  C   UNL     1      -5.161  -8.977   0.342  0.00  0.00    +0.041 A 
ATOM     14  C   UNL     1      -5.396  -7.817  -0.374  0.00  0.00    +0.020 A 
ATOM     15  C   UNL     1      -4.334  -7.054  -0.820  0.00  0.00    +0.009 A 
ATOM     16 CL   UNL     1      -6.495  -9.933   0.909  0.00  0.00    -0.084 Cl
ENDBRANCH   3  10
BRANCH   1  19
ATOM     17  C   UNL     1       0.225  -1.709   1.599  0.00  0.00    +0.162 A 
ATOM     18  C   UNL     1      -0.197  -2.578   0.604  0.00  0.00    +0.055 A 
ATOM     19  C   UNL     1       0.210  -3.898   0.622  0.00  0.00    -0.023 A 
ATOM     20  C   UNL     1       1.037  -4.357   1.631  0.00  0.00    +0.009 A 
ATOM     21  C   UNL     1       1.461  -3.496   2.626  0.00  0.00    +0.049 A 
ATOM     22  C   UNL     1       1.062  -2.169   2.610  0.00  0.00    +0.158 A 
BRANCH  22  23
ATOM     23  O   UNL     1       1.483  -1.319   3.585  0.00  0.00    -0.503 OA
ATOM     24  H   UNL     1       0.899  -1.284   4.355  0.00  0.00    +0.292 HD
ENDBRANCH  22  23
BRANCH  17  25
ATOM     25  O   UNL     1      -0.175  -0.409   1.582  0.00  0.00    -0.489 OA
BRANCH  25  27
ATOM     26  C   UNL     1      -1.374   1.477   0.662  0.00  0.00    +0.048 C 
ATOM     27  C   UNL     1      -1.034  -0.008   0.513  0.00  0.00    +0.226 C 
ENDBRANCH  25  27
ENDBRANCH  17  25
ENDBRANCH   1  19
BRANCH   3  28
ATOM     28  O   UNL     1      -2.249  -5.954  -2.259  0.00  0.00    -0.367 OA
ATOM     29  H   UNL     1      -2.503  -6.548  -2.979  0.00  0.00    +0.212 HD
ENDBRANCH   3  28
BRANCH   2  30
ATOM     30  C   UNL     1      -1.207  -6.290   1.317  0.00  0.00    +0.245 C 
ATOM     31  O   UNL     1      -0.340  -7.129   1.372  0.00  0.00    -0.287 OA
BRANCH  30  32
ATOM     32  C   UNL     1      -1.997  -5.940   2.551  0.00  0.00    +0.451 C 
ATOM     33  F   UNL     1      -1.471  -6.626   3.651  0.00  0.00    -0.163 F 
ATOM     34  F   UNL     1      -1.919  -4.562   2.780  0.00  0.00    -0.163 F 
ATOM     35  F   UNL     1      -3.334  -6.308   2.369  0.00  0.00    -0.163 F 
ENDBRANCH  30  32
ENDBRANCH   2  30
TORSDOF 8
