REMARK  Name = ZINC06197860
REMARK  10 active torsions:
REMARK  status: ('A' for Active; 'I' for Inactive)
REMARK    1  A    between atoms: C_1  and  C_2
REMARK    2  A    between atoms: C_2  and  C_3
REMARK    3  A    between atoms: C_10  and  C_15
REMARK    4  A    between atoms: C_15  and  N_61
REMARK    5  A    between atoms: C_16  and  C_17
REMARK    6  A    between atoms: C_16  and  N_61
REMARK    7  A    between atoms: C_22  and  C_23
REMARK    8  A    between atoms: C_22  and  N_61
REMARK    9  A    between atoms: N_27  and  C_28
REMARK   10  A    between atoms: C_28  and  C_29
REMARK                            x       y       z     vdW  Elec       q    Type
REMARK                         _______ _______ _______ _____ _____    ______ ____
ROOT
ATOM      1  N   UNL     1      -1.483   2.251   1.866  0.00  0.00    +0.390 N 
ATOM      2  H   UNL     1      -0.678   2.546   2.432  0.00  0.00    -0.080 HD
ENDROOT
BRANCH   1   3
ATOM      3  C   UNL     1      -2.612   3.169   2.123  0.00  0.00    -0.036 C 
BRANCH   3  11
ATOM      4  C   UNL     1      -2.134   5.385   7.880  0.00  0.00    -0.047 A 
ATOM      5  C   UNL     1      -2.940   4.428   8.483  0.00  0.00    +0.005 A 
ATOM      6  C   UNL     1      -3.518   3.424   7.737  0.00  0.00    +0.026 A 
ATOM      7  C   UNL     1      -3.293   3.367   6.365  0.00  0.00    +0.049 A 
ATOM      8  C   UNL     1      -2.475   4.339   5.758  0.00  0.00    -0.001 A 
ATOM      9  C   UNL     1      -1.899   5.349   6.535  0.00  0.00    +0.013 A 
ATOM     10  C   UNL     1      -2.244   4.270   4.314  0.00  0.00    +0.017 A 
ATOM     11  C   UNL     1      -2.829   3.269   3.611  0.00  0.00    +0.001 A 
ATOM     12  C   UNL     1      -3.644   2.322   4.267  0.00  0.00    +0.251 A 
ATOM     13  O   UNL     1      -4.165   1.433   3.616  0.00  0.00    -0.268 OA
ATOM     14  N   UNL     1      -3.858   2.373   5.594  0.00  0.00    -0.322 N 
ATOM     15  H   UNL     1      -4.434   1.681   6.028  0.00  0.00    +0.169 HD
BRANCH   4  17
ATOM     16  C   UNL     1      -0.147   6.008   9.226  0.00  0.00    +0.009 C 
ATOM     17  C   UNL     1      -1.513   6.473   8.718  0.00  0.00    +0.032 C 
ENDBRANCH   4  17
ENDBRANCH   3  11
ENDBRANCH   1   3
BRANCH   1  18
ATOM     18  C   UNL     1      -1.857   0.872   2.244  0.00  0.00    -0.035 C 
BRANCH  18  19
ATOM     19  C   UNL     1      -0.639  -0.009   2.138  0.00  0.00    -0.027 A 
ATOM     20  C   UNL     1       0.353  -0.207   3.040  0.00  0.00    +0.009 A 
ATOM     21  C   UNL     1       1.383  -1.073   2.724  0.00  0.00    +0.008 A 
ATOM     22  C   UNL     1       1.372  -1.698   1.521  0.00  0.00    +0.045 A 
ATOM     23  S   UNL     1      -0.133  -1.069   0.793  0.00  0.00    -0.103 S 
ENDBRANCH  18  19
ENDBRANCH   1  18
BRANCH   1  24
ATOM     24  C   UNL     1      -1.108   2.299   0.437  0.00  0.00    +0.001 C 
BRANCH  24  25
ATOM     25  C   UNL     1      -0.434   3.617   0.157  0.00  0.00    +0.135 A 
ATOM     26  N   UNL     1      -1.001   4.704  -0.308  0.00  0.00    -0.115 NA
ATOM     27  N   UNL     1      -0.094   5.612  -0.415  0.00  0.00    -0.023 NA
ATOM     28  N   UNL     1       1.038   5.133  -0.031  0.00  0.00    -0.044 NA
ATOM     29  N   UNL     1       0.870   3.906   0.329  0.00  0.00    -0.229 N 
BRANCH  29  30
ATOM     30  C   UNL     1       1.903   2.997   0.831  0.00  0.00    +0.178 C 
BRANCH  30  31
ATOM     31  C   UNL     1       2.605   2.321  -0.349  0.00  0.00    +0.140 C 
ATOM     32  C   UNL     1       3.616   1.277   0.171  0.00  0.00    +0.035 C 
ATOM     33  C   UNL     1       4.810   1.460  -0.805  0.00  0.00    +0.031 C 
ATOM     34  C   UNL     1       4.739   2.984  -1.074  0.00  0.00    +0.160 C 
ATOM     35  O   UNL     1       3.337   3.295  -1.102  0.00  0.00    -0.375 OA
ENDBRANCH  30  31
ENDBRANCH  29  30
ENDBRANCH  24  25
ENDBRANCH   1  24
TORSDOF 9
