REMARK  Name = ZINC15613875
REMARK  8 active torsions:
REMARK  status: ('A' for Active; 'I' for Inactive)
REMARK    1  A    between atoms: C_1  and  C_2
REMARK    2  A    between atoms: C_2  and  C_3
REMARK    3  A    between atoms: N_11  and  C_15
REMARK    4  A    between atoms: C_15  and  C_16
REMARK    5  A    between atoms: N_18  and  C_19
REMARK    6  A    between atoms: C_21  and  C_26
REMARK    7  A    between atoms: C_26  and  O_28
REMARK    8  A    between atoms: O_28  and  C_29
REMARK                            x       y       z     vdW  Elec       q    Type
REMARK                         _______ _______ _______ _____ _____    ______ ____
ROOT
ATOM      1  C   UNL     1      -0.017   1.460  -0.007  0.00  0.00    +0.214 C 
ENDROOT
BRANCH   1  10
ATOM      2  C   UNL     1       0.063  -3.766   3.055  0.00  0.00    -0.011 C 
ATOM      3  C   UNL     1       1.302  -2.997   2.590  0.00  0.00    +0.006 C 
ATOM      4  C   UNL     1       1.301  -2.909   1.061  0.00  0.00    +0.035 C 
ATOM      5  C   UNL     1       0.035  -2.199   0.593  0.00  0.00    +0.113 C 
ATOM      6  C   UNL     1      -1.208  -2.944   1.068  0.00  0.00    +0.035 C 
ATOM      7  C   UNL     1      -1.198  -3.032   2.596  0.00  0.00    +0.006 C 
ATOM      8  C   UNL     1       0.017  -0.772   1.090  0.00  0.00    +0.247 C 
ATOM      9  O   UNL     1       0.015  -0.396   2.242  0.00  0.00    -0.273 OA
ATOM     10  N   UNL     1       0.003  -0.004  -0.020  0.00  0.00    -0.215 N 
ATOM     11  C   UNL     1       0.005  -0.747  -1.133  0.00  0.00    +0.310 C 
ATOM     12  O   UNL     1      -0.011  -0.282  -2.256  0.00  0.00    -0.252 OA
ATOM     13  N   UNL     1       0.030  -2.068  -0.870  0.00  0.00    -0.285 N 
ATOM     14  H   UNL     1       0.038  -2.790  -1.518  0.00  0.00    +0.151 HD
BRANCH   2  16
ATOM     15  C   UNL     1      -1.100  -4.738   5.041  0.00  0.00    +0.004 C 
ATOM     16  C   UNL     1       0.069  -3.864   4.582  0.00  0.00    -0.000 C 
ENDBRANCH   2  16
ENDBRANCH   1  10
BRANCH   1  17
ATOM     17  C   UNL     1       1.397   1.982  -0.006  0.00  0.00    +0.235 C 
ATOM     18  O   UNL     1       2.329   1.207  -0.015  0.00  0.00    -0.274 OA
ATOM     19  N   UNL     1       1.624   3.311   0.004  0.00  0.00    -0.283 N 
ATOM     20  H   UNL     1       0.881   3.931  -0.054  0.00  0.00    +0.155 HD
BRANCH  19  21
ATOM     21  C   UNL     1       2.934   3.796   0.100  0.00  0.00    +0.053 A 
ATOM     22  C   UNL     1       3.974   3.107  -0.504  0.00  0.00    +0.039 A 
ATOM     23  C   UNL     1       5.277   3.597  -0.410  0.00  0.00    +0.061 A 
ATOM     24  C   UNL     1       5.527   4.773   0.301  0.00  0.00    +0.016 A 
ATOM     25  C   UNL     1       4.486   5.449   0.904  0.00  0.00    +0.022 A 
ATOM     26  C   UNL     1       3.193   4.965   0.807  0.00  0.00    +0.062 A 
ATOM     27 CL   UNL     1       1.889   5.822   1.569  0.00  0.00    -0.082 Cl
BRANCH  23  28
ATOM     28  C   UNL     1       6.389   2.872  -1.056  0.00  0.00    +0.339 C 
ATOM     29  O   UNL     1       6.170   1.849  -1.674  0.00  0.00    -0.245 OA
BRANCH  28  30
ATOM     30  O   UNL     1       7.647   3.344  -0.960  0.00  0.00    -0.464 OA
ATOM     31  C   UNL     1       8.691   2.580  -1.619  0.00  0.00    +0.280 C 
ENDBRANCH  28  30
ENDBRANCH  23  28
ENDBRANCH  19  21
ENDBRANCH   1  17
TORSDOF 6
