REMARK  Name = ZINC07177664
REMARK  9 active torsions:
REMARK  status: ('A' for Active; 'I' for Inactive)
REMARK    1  A    between atoms: C_1  and  C_2
REMARK    2  A    between atoms: C_2  and  N_3
REMARK    3  A    between atoms: C_7  and  S_25
REMARK    4  A    between atoms: C_11  and  S_12
REMARK    5  A    between atoms: S_12  and  C_13
REMARK    6  A    between atoms: C_13  and  C_15
REMARK    7  A    between atoms: C_13  and  C_16
REMARK    8  A    between atoms: C_20  and  N_22
REMARK    9  A    between atoms: S_25  and  N_28
REMARK                            x       y       z     vdW  Elec       q    Type
REMARK                         _______ _______ _______ _____ _____    ______ ____
ROOT
ATOM      1  N   UNL     1      -1.116   8.614   2.229  0.00  0.00    -0.319 N 
ATOM      2  C   UNL     1      -0.717   9.848   1.741  0.00  0.00    +0.070 A 
ATOM      3  C   UNL     1      -0.872  11.152   2.185  0.00  0.00    +0.030 A 
ATOM      4  C   UNL     1      -0.341  12.195   1.453  0.00  0.00    +0.030 A 
ATOM      5  C   UNL     1       0.347  11.946   0.275  0.00  0.00    +0.107 A 
ATOM      6  C   UNL     1       0.511  10.657  -0.181  0.00  0.00    +0.058 A 
ATOM      7  C   UNL     1      -0.020   9.591   0.549  0.00  0.00    +0.092 A 
ATOM      8  N   UNL     1      -0.020   8.244   0.368  0.00  0.00    -0.222 NA
ATOM      9  C   UNL     1      -0.668   7.668   1.351  0.00  0.00    +0.170 A 
ENDROOT
BRANCH   5  10
ATOM     10  S   UNL     1       1.018  13.291  -0.646  0.00  0.00    +0.056 S 
ATOM     11  O   UNL     1       1.143  12.841  -1.988  0.00  0.00    -0.153 OA
ATOM     12  O   UNL     1       0.261  14.441  -0.295  0.00  0.00    -0.153 OA
BRANCH  10  13
ATOM     13  N   UNL     1       2.555  13.548  -0.088  0.00  0.00    -0.204 NA
ATOM     14  H   UNL     1       3.011  14.383  -0.640  0.00  0.00    +0.144 HD
ATOM     15  H   UNL     1       3.156  12.639  -0.237  0.00  0.00    +0.144 HD
ENDBRANCH  10  13
ENDBRANCH   5  10
BRANCH   1  17
ATOM     16  C   UNL     1      -0.908   8.179   4.626  0.00  0.00    +0.027 C 
ATOM     17  C   UNL     1      -1.876   8.369   3.457  0.00  0.00    +0.121 C 
ENDBRANCH   1  17
BRANCH   9  18
ATOM     18  S   UNL     1      -0.918   5.932   1.518  0.00  0.00    -0.080 S 
BRANCH  18  19
ATOM     19  C   UNL     1      -0.070   5.347   0.030  0.00  0.00    +0.081 C 
ATOM     20  C   UNL     1      -0.810   5.853  -1.210  0.00  0.00    +0.024 C 
BRANCH  19  21
ATOM     21  C   UNL     1      -0.050   3.840   0.022  0.00  0.00    -0.032 A 
ATOM     22  C   UNL     1      -1.238   3.133   0.030  0.00  0.00    +0.005 A 
ATOM     23  C   UNL     1      -1.219   1.751   0.017  0.00  0.00    +0.003 A 
ATOM     24  C   UNL     1      -0.013   1.076   0.008  0.00  0.00    +0.033 A 
ATOM     25  C   UNL     1       1.175   1.783   0.000  0.00  0.00    +0.126 A 
ATOM     26  C   UNL     1       1.156   3.166   0.008  0.00  0.00    +0.037 A 
BRANCH  25  27
ATOM     27  N   UNL     1       2.467   1.060  -0.016  0.00  0.00    +0.056 N 
ATOM     28  O   UNL     1       2.483  -0.157  -0.023  0.00  0.00    -0.126 OA
ATOM     29  O   UNL     1       3.513   1.684  -0.022  0.00  0.00    -0.126 OA
ENDBRANCH  25  27
ENDBRANCH  19  21
ENDBRANCH  18  19
ENDBRANCH   9  18
TORSDOF 7
