REMARK  Name = ZINC63743469
REMARK  7 active torsions:
REMARK  status: ('A' for Active; 'I' for Inactive)
REMARK    1  A    between atoms: C_1  and  N_2
REMARK    2  A    between atoms: C_10  and  C_12
REMARK    3  A    between atoms: C_12  and  C_13
REMARK    4  A    between atoms: C_13  and  C_14
REMARK    5  A    between atoms: C_18  and  N_20
REMARK    6  A    between atoms: N_20  and  S_21
REMARK    7  A    between atoms: S_21  and  C_24
REMARK                            x       y       z     vdW  Elec       q    Type
REMARK                         _______ _______ _______ _____ _____    ______ ____
ROOT
ATOM      1  C   UNL     1       2.533  -1.281   4.046  0.00  0.00    -0.045 A 
ATOM      2  C   UNL     1       3.691  -1.991   3.785  0.00  0.00    +0.004 A 
ATOM      3  C   UNL     1       4.831  -1.758   4.532  0.00  0.00    +0.002 A 
ATOM      4  C   UNL     1       4.817  -0.814   5.540  0.00  0.00    +0.027 A 
ATOM      5  C   UNL     1       3.656  -0.099   5.804  0.00  0.00    +0.075 A 
ATOM      6  C   UNL     1       2.514  -0.332   5.048  0.00  0.00    +0.030 A 
ENDROOT
BRANCH   1   7
ATOM      7  C   UNL     1       1.292  -1.539   3.230  0.00  0.00    +0.038 C 
BRANCH   7   8
ATOM      8  C   UNL     1       1.285  -0.618   2.008  0.00  0.00    +0.047 C 
BRANCH   8  18
ATOM      9  C   UNL     1      -0.018   1.461   0.010  0.00  0.00    +0.131 C 
ATOM     10  N   UNL     1       0.002  -0.004   0.002  0.00  0.00    -0.313 N 
ATOM     11  C   UNL     1       0.009  -0.828  -1.132  0.00  0.00    +0.052 A 
ATOM     12  C   UNL     1      -0.002  -0.504  -2.483  0.00  0.00    +0.025 A 
ATOM     13  C   UNL     1       0.007  -1.504  -3.437  0.00  0.00    +0.002 A 
ATOM     14  C   UNL     1       0.026  -2.832  -3.050  0.00  0.00    +0.002 A 
ATOM     15  C   UNL     1       0.037  -3.163  -1.709  0.00  0.00    +0.025 A 
ATOM     16  C   UNL     1       0.028  -2.164  -0.743  0.00  0.00    +0.050 A 
ATOM     17  N   UNL     1       0.035  -2.251   0.656  0.00  0.00    -0.324 N 
ATOM     18  C   UNL     1       0.025  -0.880   1.179  0.00  0.00    +0.158 C 
ATOM     19  H   UNL     1       0.048  -3.067   1.181  0.00  0.00    +0.148 HD
ENDBRANCH   8  18
ENDBRANCH   7   8
ENDBRANCH   1   7
BRANCH   5  20
ATOM     20  N   UNL     1       3.639   0.856   6.823  0.00  0.00    -0.096 NA
BRANCH  20  21
ATOM     21  S   UNL     1       5.003   1.137   7.718  0.00  0.00    +0.108 S 
ATOM     22  O   UNL     1       5.254  -0.050   8.459  0.00  0.00    -0.147 OA
ATOM     23  O   UNL     1       5.962   1.699   6.832  0.00  0.00    -0.147 OA
BRANCH  21  24
ATOM     24  C   UNL     1       4.608   2.389   8.892  0.00  0.00    +0.194 A 
ATOM     25  H   UNL     1       3.903   1.345  10.567  0.00  0.00    +0.168 HD
ATOM     26  C   UNL     1       4.734   3.719   8.721  0.00  0.00    +0.131 A 
ATOM     27  N   UNL     1       4.327   4.323   9.847  0.00  0.00    -0.351 N 
ATOM     28  C   UNL     1       3.952   3.418  10.710  0.00  0.00    +0.172 A 
ATOM     29  N   UNL     1       4.107   2.198  10.152  0.00  0.00    -0.330 N 
ATOM     30  H   UNL     1       4.313   5.281   9.997  0.00  0.00    +0.166 HD
ENDBRANCH  21  24
ENDBRANCH  20  21
ENDBRANCH   5  20
TORSDOF 6
