REMARK  Name = ZINC22218336
REMARK  7 active torsions:
REMARK  status: ('A' for Active; 'I' for Inactive)
REMARK    1  A    between atoms: C_1  and  C_2
REMARK    2  A    between atoms: N_11  and  C_15
REMARK    3  A    between atoms: C_15  and  C_16
REMARK    4  A    between atoms: C_16  and  O_18
REMARK    5  A    between atoms: O_18  and  C_19
REMARK    6  A    between atoms: C_19  and  C_20
REMARK    7  A    between atoms: N_22  and  C_23
REMARK                            x       y       z     vdW  Elec       q    Type
REMARK                         _______ _______ _______ _____ _____    ______ ____
ROOT
ATOM      1  C   UNL     1       2.903   1.257  -1.441  0.00  0.00    +0.326 C 
ATOM      2  O   UNL     1       2.159   1.538  -2.351  0.00  0.00    -0.249 OA
ENDROOT
BRANCH   1   3
ATOM      3  C   UNL     1       2.451   1.435  -0.015  0.00  0.00    +0.238 C 
BRANCH   3  13
ATOM      4  C   UNL     1      -0.722   3.280   2.516  0.00  0.00    +0.010 C 
ATOM      5  C   UNL     1      -1.230   4.031   1.284  0.00  0.00    +0.018 C 
ATOM      6  C   UNL     1      -2.760   4.054   1.296  0.00  0.00    +0.006 C 
ATOM      7  C   UNL     1      -3.267   4.788   0.052  0.00  0.00    +0.000 C 
ATOM      8  C   UNL     1      -2.788   4.056  -1.203  0.00  0.00    +0.003 C 
ATOM      9  C   UNL     1      -1.257   4.033  -1.225  0.00  0.00    +0.035 C 
ATOM     10  C   UNL     1      -0.739   3.328   0.023  0.00  0.00    +0.115 C 
ATOM     11  C   UNL     1       0.772   3.270   0.006  0.00  0.00    +0.247 C 
ATOM     12  O   UNL     1       1.542   4.206  -0.001  0.00  0.00    -0.273 OA
ATOM     13  N   UNL     1       1.082   1.957   0.002  0.00  0.00    -0.213 N 
ATOM     14  C   UNL     1      -0.016   1.191   0.013  0.00  0.00    +0.310 C 
ATOM     15  O   UNL     1       0.008  -0.024   0.012  0.00  0.00    -0.252 OA
ATOM     16  N   UNL     1      -1.149   1.918   0.021  0.00  0.00    -0.285 N 
ATOM     17  H   UNL     1      -2.218   1.656   0.025  0.00  0.00    +0.151 HD
ENDBRANCH   3  13
ENDBRANCH   1   3
BRANCH   1  18
ATOM     18  O   UNL     1       4.133   0.787  -1.701  0.00  0.00    -0.454 OA
BRANCH  18  19
ATOM     19  C   UNL     1       4.502   0.642  -3.098  0.00  0.00    +0.328 C 
BRANCH  19  20
ATOM     20  C   UNL     1       5.907   0.105  -3.194  0.00  0.00    +0.255 C 
ATOM     21  O   UNL     1       6.536  -0.132  -2.184  0.00  0.00    -0.272 OA
ATOM     22  N   UNL     1       6.465  -0.112  -4.402  0.00  0.00    -0.283 N 
ATOM     23  H   UNL     1       5.870   0.030  -5.316  0.00  0.00    +0.155 HD
BRANCH  22  24
ATOM     24  C   UNL     1       7.802  -0.518  -4.493  0.00  0.00    +0.037 A 
ATOM     25  C   UNL     1       8.338  -1.363  -3.530  0.00  0.00    +0.027 A 
ATOM     26  C   UNL     1       9.658  -1.764  -3.619  0.00  0.00    +0.051 A 
ATOM     27  C   UNL     1      10.449  -1.326  -4.668  0.00  0.00    +0.173 A 
ATOM     28  C   UNL     1       9.914  -0.478  -5.635  0.00  0.00    +0.174 A 
ATOM     29  C   UNL     1       8.590  -0.081  -5.548  0.00  0.00    +0.073 A 
ATOM     30  O   UNL     1      10.885  -0.194  -6.552  0.00  0.00    -0.395 OA
ATOM     31  C   UNL     1      11.899  -1.199  -6.362  0.00  0.00    +0.589 C 
ATOM     32  O   UNL     1      11.756  -1.572  -4.979  0.00  0.00    -0.395 OA
ATOM     33  F   UNL     1      11.663  -2.298  -7.195  0.00  0.00    -0.125 F 
ATOM     34  F   UNL     1      13.170  -0.666  -6.602  0.00  0.00    -0.125 F 
ENDBRANCH  22  24
ENDBRANCH  19  20
ENDBRANCH  18  19
ENDBRANCH   1  18
TORSDOF 6
