REMARK  Name = ZINC39693395
REMARK  10 active torsions:
REMARK  status: ('A' for Active; 'I' for Inactive)
REMARK    1  A    between atoms: C_1  and  C_2
REMARK    2  A    between atoms: C_2  and  C_3
REMARK    3  A    between atoms: C_2  and  C_4
REMARK    4  A    between atoms: C_2  and  O_5
REMARK    5  A    between atoms: O_5  and  C_6
REMARK    6  A    between atoms: N_8  and  C_9
REMARK    7  A    between atoms: C_9  and  C_10
REMARK    8  A    between atoms: C_10  and  N_11
REMARK    9  A    between atoms: C_12  and  C_14
REMARK   10  A    between atoms: C_25  and  C_27
REMARK                            x       y       z     vdW  Elec       q    Type
REMARK                         _______ _______ _______ _____ _____    ______ ____
ROOT
ATOM      1  C   UNL     1       8.310  -0.066  -5.270  0.00  0.00    +0.100 C 
ATOM      2  C   UNL     1       9.128  -0.621  -4.083  0.00  0.00    +0.121 C 
ATOM      3  N   UNL     1       9.621  -1.938  -4.551  0.00  0.00    -0.296 N 
ATOM      4  C   UNL     1       9.980  -1.713  -5.972  0.00  0.00    +0.115 C 
ATOM      5  C   UNL     1       8.874  -0.782  -6.508  0.00  0.00    -0.004 C 
ATOM      6  C   UNL     1       7.782  -1.601  -7.189  0.00  0.00    -0.010 C 
ATOM      7  C   UNL     1       8.353  -2.259  -8.448  0.00  0.00    -0.082 C 
ATOM      8  N   UNL     1       8.854  -1.222  -9.359  0.00  0.00    +0.379 N 
ATOM      9  C   UNL     1       9.967  -0.500  -8.731  0.00  0.00    -0.082 C 
ATOM     10  C   UNL     1       9.464   0.232  -7.483  0.00  0.00    -0.010 C 
ATOM     11  C   UNL     1       9.721  -3.081  -3.845  0.00  0.00    +0.247 C 
ATOM     12  O   UNL     1      10.230  -4.064  -4.348  0.00  0.00    -0.270 OA
ATOM     13  H   UNL     1       9.174  -1.653 -10.213  0.00  0.00    -0.086 HD
ATOM     14  H   UNL     1       8.111  -0.574  -9.570  0.00  0.00    -0.086 HD
ENDROOT
BRANCH  11  15
ATOM     15  C   UNL     1       9.211  -3.140  -2.459  0.00  0.00    +0.045 A 
ATOM     16  C   UNL     1       9.584  -2.162  -1.531  0.00  0.00    +0.014 A 
ATOM     17  C   UNL     1       9.110  -2.214  -0.238  0.00  0.00    +0.001 A 
ATOM     18  C   UNL     1       8.260  -3.235   0.157  0.00  0.00    +0.012 A 
ATOM     19  C   UNL     1       7.878  -4.218  -0.749  0.00  0.00    +0.031 A 
ATOM     20  C   UNL     1       8.349  -4.173  -2.071  0.00  0.00    +0.006 A 
ATOM     21  C   UNL     1       7.785  -5.326  -2.817  0.00  0.00    -0.006 A 
ATOM     22  C   UNL     1       7.936  -5.742  -4.133  0.00  0.00    +0.009 A 
ATOM     23  C   UNL     1       7.281  -6.880  -4.580  0.00  0.00    +0.001 A 
ATOM     24  C   UNL     1       6.477  -7.606  -3.724  0.00  0.00    +0.001 A 
ATOM     25  C   UNL     1       6.316  -7.205  -2.408  0.00  0.00    +0.012 A 
ATOM     26  C   UNL     1       6.966  -6.067  -1.946  0.00  0.00    +0.030 A 
ATOM     27  C   UNL     1       7.002  -5.407  -0.619  0.00  0.00    +0.194 C 
ATOM     28  O   UNL     1       6.414  -5.764   0.381  0.00  0.00    -0.287 OA
ENDBRANCH  11  15
BRANCH   1  30
ATOM     29  N   UNL     1       5.911   0.431  -5.609  0.00  0.00    -0.314 N 
ATOM     30  C   UNL     1       6.848  -0.390  -5.097  0.00  0.00    +0.218 C 
ATOM     31  O   UNL     1       6.516  -1.390  -4.497  0.00  0.00    -0.275 OA
ATOM     32  H   UNL     1       6.176   1.231  -6.090  0.00  0.00    +0.149 HD
BRANCH  29  33
ATOM     33  C   UNL     1       4.490   0.116  -5.441  0.00  0.00    +0.123 C 
BRANCH  33  34
ATOM     34  C   UNL     1       3.644   1.201  -6.112  0.00  0.00    +0.126 C 
BRANCH  34  37
ATOM     35  C   UNL     1       1.286   1.707  -6.456  0.00  0.00    +0.401 C 
ATOM     36  O   UNL     1       1.619   2.709  -7.057  0.00  0.00    -0.226 OA
ATOM     37  N   UNL     1       2.223   0.885  -5.943  0.00  0.00    -0.280 N 
ATOM     38  H   UNL     1       1.957   0.086  -5.463  0.00  0.00    +0.152 HD
BRANCH  35  39
ATOM     39  O   UNL     1      -0.020   1.417  -6.301  0.00  0.00    -0.445 OA
BRANCH  39  41
ATOM     40  C   UNL     1      -0.734   2.420  -8.381  0.00  0.00    +0.055 C 
ATOM     41  C   UNL     1      -0.959   2.332  -6.870  0.00  0.00    +0.107 C 
ATOM     42  C   UNL     1      -0.768   3.715  -6.244  0.00  0.00    +0.055 C 
ATOM     43  C   UNL     1      -2.382   1.839  -6.595  0.00  0.00    +0.055 C 
ENDBRANCH  39  41
ENDBRANCH  35  39
ENDBRANCH  34  37
ENDBRANCH  33  34
ENDBRANCH  29  33
ENDBRANCH   1  30
TORSDOF 7
