REMARK  Name = ZINC67452218
REMARK  6 active torsions:
REMARK  status: ('A' for Active; 'I' for Inactive)
REMARK    1  A    between atoms: C_1  and  C_2
REMARK    2  A    between atoms: C_2  and  C_4
REMARK    3  A    between atoms: C_2  and  N_13
REMARK    4  A    between atoms: N_13  and  C_14
REMARK    5  A    between atoms: N_18  and  C_21
REMARK    6  A    between atoms: C_25  and  N_27
REMARK                            x       y       z     vdW  Elec       q    Type
REMARK                         _______ _______ _______ _____ _____    ______ ____
ROOT
ATOM      1  C   UNL     1      -1.898  -0.590   1.383  0.00  0.00    +0.143 C 
ATOM      2  C   UNL     1      -3.444  -0.553   1.377  0.00  0.00    +0.047 C 
ATOM      3  C   UNL     1      -3.788  -1.522   2.529  0.00  0.00    +0.116 C 
ATOM      4  N   UNL     1      -2.639  -2.430   2.633  0.00  0.00    -0.270 N 
ATOM      5  C   UNL     1      -1.559  -1.927   2.004  0.00  0.00    +0.237 C 
ATOM      6  O   UNL     1      -0.475  -2.467   1.942  0.00  0.00    -0.274 OA
ENDROOT
BRANCH   4   7
ATOM      7  C   UNL     1      -2.661  -3.659   3.302  0.00  0.00    +0.038 A 
ATOM      8  C   UNL     1      -3.827  -4.094   3.919  0.00  0.00    +0.023 A 
ATOM      9  C   UNL     1      -3.846  -5.307   4.578  0.00  0.00    +0.004 A 
ATOM     10  C   UNL     1      -2.706  -6.089   4.623  0.00  0.00    +0.033 A 
ATOM     11  C   UNL     1      -1.544  -5.659   4.010  0.00  0.00    +0.128 A 
ATOM     12  C   UNL     1      -1.520  -4.448   3.345  0.00  0.00    +0.056 A 
BRANCH  11  13
ATOM     13  N   UNL     1      -0.326  -6.498   4.061  0.00  0.00    +0.056 N 
ATOM     14  O   UNL     1      -0.348  -7.560   4.640  0.00  0.00    -0.126 OA
ATOM     15  O   UNL     1       0.690  -6.122   3.525  0.00  0.00    -0.126 OA
ENDBRANCH  11  13
ENDBRANCH   4   7
BRANCH   1  16
ATOM     16  N   UNL     1      -1.376  -0.512   0.012  0.00  0.00    -0.299 NA
ATOM     17  H   UNL     1      -1.974   0.053  -0.571  0.00  0.00    +0.123 HD
BRANCH  16  19
ATOM     18  C   UNL     1      -0.019   1.526   0.010  0.00  0.00    +0.029 C 
ATOM     19  C   UNL     1       0.002  -0.004   0.002  0.00  0.00    +0.082 C 
BRANCH  19  20
ATOM     20  C   UNL     1       0.707  -0.490  -1.238  0.00  0.00    -0.027 A 
ATOM     21  C   UNL     1       0.036  -0.521  -2.446  0.00  0.00    +0.009 A 
ATOM     22  C   UNL     1       0.679  -0.965  -3.586  0.00  0.00    +0.050 A 
ATOM     23  C   UNL     1       1.999  -1.382  -3.520  0.00  0.00    +0.166 A 
ATOM     24  C   UNL     1       2.675  -1.351  -2.303  0.00  0.00    +0.167 A 
ATOM     25  C   UNL     1       2.026  -0.899  -1.166  0.00  0.00    +0.054 A 
ATOM     26  O   UNL     1       3.947  -1.806  -2.499  0.00  0.00    -0.453 OA
ATOM     27  C   UNL     1       3.917  -2.499  -3.761  0.00  0.00    +0.466 C 
ATOM     28  O   UNL     1       2.847  -1.856  -4.479  0.00  0.00    -0.453 OA
ENDBRANCH  19  20
ENDBRANCH  16  19
ENDBRANCH   1  16
TORSDOF 5
