REMARK  Name = ZINC27549937
REMARK  6 active torsions:
REMARK  status: ('A' for Active; 'I' for Inactive)
REMARK    1  A    between atoms: C_4  and  C_7
REMARK    2  A    between atoms: C_12  and  N_13
REMARK    3  A    between atoms: C_14  and  C_16
REMARK    4  A    between atoms: C_16  and  N_17
REMARK    5  A    between atoms: C_24  and  S_26
REMARK    6  A    between atoms: S_26  and  N_29
REMARK                            x       y       z     vdW  Elec       q    Type
REMARK                         _______ _______ _______ _____ _____    ______ ____
ROOT
ATOM      1  N   UNL     1       2.769   5.345  -3.261  0.00  0.00    -0.284 N 
ATOM      2  C   UNL     1       2.603   4.427  -2.288  0.00  0.00    +0.235 C 
ATOM      3  O   UNL     1       2.453   3.259  -2.575  0.00  0.00    -0.274 OA
ATOM      4  H   UNL     1       2.990   6.390  -2.999  0.00  0.00    +0.155 HD
ENDROOT
BRANCH   1  10
ATOM      5  C   UNL     1       2.132   5.860  -5.542  0.00  0.00    +0.003 A 
ATOM      6  C   UNL     1       2.033   5.476  -6.877  0.00  0.00    +0.010 A 
ATOM      7  C   UNL     1       2.446   4.218  -7.265  0.00  0.00    +0.001 A 
ATOM      8  C   UNL     1       2.964   3.335  -6.333  0.00  0.00    +0.002 A 
ATOM      9  C   UNL     1       3.072   3.706  -5.006  0.00  0.00    +0.024 A 
ATOM     10  C   UNL     1       2.661   4.968  -4.602  0.00  0.00    +0.041 A 
BRANCH   5  14
ATOM     11  C   UNL     1       0.849   9.728  -4.331  0.00  0.00    +0.000 A 
ATOM     12  C   UNL     1       1.698   9.592  -5.414  0.00  0.00    +0.001 A 
ATOM     13  C   UNL     1       2.118   8.338  -5.812  0.00  0.00    +0.008 A 
ATOM     14  C   UNL     1       1.685   7.209  -5.119  0.00  0.00    -0.016 A 
ATOM     15  C   UNL     1       0.826   7.352  -4.032  0.00  0.00    +0.008 A 
ATOM     16  C   UNL     1       0.416   8.611  -3.640  0.00  0.00    +0.001 A 
ENDBRANCH   5  14
ENDBRANCH   1  10
BRANCH   2  17
ATOM     17  C   UNL     1       2.603   4.854  -0.842  0.00  0.00    +0.201 C 
BRANCH  17  18
ATOM     18  N   UNL     1       2.472   3.670   0.018  0.00  0.00    -0.321 N 
ATOM     19  C   UNL     1       1.243   2.913  -0.306  0.00  0.00    +0.110 C 
ATOM     20  C   UNL     1       0.858   2.294   1.057  0.00  0.00    +0.056 C 
ATOM     21  C   UNL     1       1.484   3.253   2.051  0.00  0.00    -0.023 A 
ATOM     22  C   UNL     1       2.408   4.035   1.368  0.00  0.00    +0.033 A 
ATOM     23  C   UNL     1       3.114   5.014   2.065  0.00  0.00    +0.025 A 
ATOM     24  C   UNL     1       2.898   5.195   3.415  0.00  0.00    +0.030 A 
ATOM     25  C   UNL     1       1.977   4.412   4.086  0.00  0.00    +0.105 A 
ATOM     26  C   UNL     1       1.274   3.436   3.401  0.00  0.00    +0.034 A 
BRANCH  25  27
ATOM     27  S   UNL     1       1.704   4.650   5.810  0.00  0.00    +0.056 S 
ATOM     28  O   UNL     1       2.087   5.987   6.101  0.00  0.00    -0.153 OA
ATOM     29  O   UNL     1       0.402   4.154   6.088  0.00  0.00    -0.153 OA
BRANCH  27  30
ATOM     30  N   UNL     1       2.767   3.668   6.614  0.00  0.00    -0.204 NA
ATOM     31  H   UNL     1       2.628   3.788   7.699  0.00  0.00    +0.144 HD
ATOM     32  H   UNL     1       3.797   3.943   6.344  0.00  0.00    +0.144 HD
ENDBRANCH  27  30
ENDBRANCH  25  27
ENDBRANCH  17  18
ENDBRANCH   2  17
TORSDOF 6
