REMARK  Name = ZINC08302031
REMARK  7 active torsions:
REMARK  status: ('A' for Active; 'I' for Inactive)
REMARK    1  A    between atoms: C_1  and  C_2
REMARK    2  A    between atoms: C_5  and  N_9
REMARK    3  A    between atoms: C_10  and  C_12
REMARK    4  A    between atoms: C_12  and  S_13
REMARK    5  A    between atoms: S_13  and  C_14
REMARK    6  A    between atoms: C_17  and  C_19
REMARK    7  A    between atoms: C_22  and  N_25
REMARK                            x       y       z     vdW  Elec       q    Type
REMARK                         _______ _______ _______ _____ _____    ______ ____
ROOT
ATOM      1  S   UNL     1      -0.257  -6.940  -2.899  0.00  0.00    -0.056 S 
ENDROOT
BRANCH   1   2
ATOM      2  C   UNL     1      -0.358  -8.691  -2.733  0.00  0.00    +0.278 A 
ATOM      3  N   UNL     1      -0.351  -9.367  -1.607  0.00  0.00    -0.101 NA
ATOM      4  N   UNL     1      -0.440 -10.625  -1.861  0.00  0.00    -0.106 NA
ATOM      5  C   UNL     1      -0.508 -10.803  -3.158  0.00  0.00    +0.249 A 
ATOM      6  O   UNL     1      -0.464  -9.583  -3.737  0.00  0.00    -0.411 OA
BRANCH   5   7
ATOM      7  C   UNL     1      -0.619 -12.100  -3.858  0.00  0.00    +0.039 A 
ATOM      8  C   UNL     1      -0.676 -12.141  -5.252  0.00  0.00    +0.015 A 
ATOM      9  C   UNL     1      -0.780 -13.355  -5.899  0.00  0.00    +0.033 A 
ATOM     10  C   UNL     1      -0.828 -14.530  -5.170  0.00  0.00    +0.126 A 
ATOM     11  C   UNL     1      -0.771 -14.496  -3.788  0.00  0.00    +0.033 A 
ATOM     12  C   UNL     1      -0.661 -13.289  -3.128  0.00  0.00    +0.015 A 
BRANCH  10  13
ATOM     13  N   UNL     1      -0.940 -15.829  -5.871  0.00  0.00    +0.056 N 
ATOM     14  O   UNL     1      -0.990 -15.862  -7.079  0.00  0.00    -0.126 OA
ATOM     15  O   UNL     1      -0.982 -16.857  -5.236  0.00  0.00    -0.126 OA
ENDBRANCH  10  13
ENDBRANCH   5   7
ENDBRANCH   1   2
BRANCH   1  16
ATOM     16  C   UNL     1      -0.136  -6.343  -1.191  0.00  0.00    +0.175 C 
BRANCH  16  18
ATOM     17  N   UNL     1       0.057  -4.171  -0.023  0.00  0.00    -0.284 N 
ATOM     18  C   UNL     1      -0.042  -4.839  -1.190  0.00  0.00    +0.228 C 
ATOM     19  O   UNL     1      -0.055  -4.230  -2.238  0.00  0.00    -0.275 OA
ATOM     20  H   UNL     1       0.149  -4.660   0.809  0.00  0.00    +0.155 HD
BRANCH  17  25
ATOM     21  C   UNL     1      -0.064   1.502   0.016  0.00  0.00    +0.044 C 
ATOM     22  C   UNL     1      -0.031  -0.005   0.006  0.00  0.00    -0.049 A 
ATOM     23  C   UNL     1      -0.622  -0.701  -1.033  0.00  0.00    +0.005 A 
ATOM     24  C   UNL     1      -0.594  -2.082  -1.045  0.00  0.00    +0.025 A 
ATOM     25  C   UNL     1       0.028  -2.772  -0.014  0.00  0.00    +0.052 A 
ATOM     26  C   UNL     1       0.621  -2.070   1.029  0.00  0.00    +0.062 A 
ATOM     27  C   UNL     1       0.595  -0.688   1.032  0.00  0.00    +0.025 A 
ATOM     28 CL   UNL     1       1.401  -2.928   2.321  0.00  0.00    -0.082 Cl
ENDBRANCH  17  25
ENDBRANCH  16  18
ENDBRANCH   1  16
TORSDOF 6
