REMARK  Name = ZINC11778756
REMARK  10 active torsions:
REMARK  status: ('A' for Active; 'I' for Inactive)
REMARK    1  A    between atoms: C_1  and  C_2
REMARK    2  A    between atoms: C_8  and  N_10
REMARK    3  A    between atoms: C_14  and  C_16
REMARK    4  A    between atoms: C_16  and  O_17
REMARK    5  A    between atoms: O_17  and  C_18
REMARK    6  A    between atoms: C_18  and  C_20
REMARK    7  A    between atoms: C_20  and  C_21
REMARK    8  A    between atoms: C_21  and  C_23
REMARK    9  A    between atoms: C_21  and  N_29
REMARK   10  A    between atoms: C_30  and  C_32
REMARK                            x       y       z     vdW  Elec       q    Type
REMARK                         _______ _______ _______ _____ _____    ______ ____
ROOT
ATOM      1  C   UNL     1       2.066   0.581   2.047  0.00  0.00    +0.310 C 
ATOM      2  O   UNL     1       1.068   1.035   2.555  0.00  0.00    -0.251 OA
ENDROOT
BRANCH   1   3
ATOM      3  O   UNL     1       2.912  -0.163   2.777  0.00  0.00    -0.455 OA
BRANCH   3   4
ATOM      4  C   UNL     1       2.564  -0.381   4.170  0.00  0.00    +0.328 C 
BRANCH   4   9
ATOM      5  N   UNL     1       4.343  -2.658   8.012  0.00  0.00    -0.296 N 
ATOM      6  C   UNL     1       4.456  -2.325   6.711  0.00  0.00    +0.306 C 
ATOM      7  O   UNL     1       5.411  -2.710   6.065  0.00  0.00    -0.252 OA
ATOM      8  N   UNL     1       3.510  -1.564   6.125  0.00  0.00    -0.237 N 
ATOM      9  C   UNL     1       3.622  -1.231   4.824  0.00  0.00    +0.258 C 
ATOM     10  O   UNL     1       4.575  -1.615   4.180  0.00  0.00    -0.272 OA
ATOM     11  H   UNL     1       3.581  -2.350   8.527  0.00  0.00    +0.151 HD
ATOM     12  H   UNL     1       2.747  -1.257   6.640  0.00  0.00    +0.159 HD
BRANCH   5  19
ATOM     13  C   UNL     1       5.686  -1.739  10.408  0.00  0.00    +0.009 C 
ATOM     14  C   UNL     1       5.381  -3.217  10.154  0.00  0.00    +0.006 C 
ATOM     15  C   UNL     1       4.012  -3.564  10.743  0.00  0.00    +0.005 C 
ATOM     16  C   UNL     1       3.708  -5.042  10.489  0.00  0.00    +0.000 C 
ATOM     17  C   UNL     1       3.698  -5.309   8.983  0.00  0.00    +0.002 C 
ATOM     18  C   UNL     1       5.067  -4.963   8.394  0.00  0.00    +0.022 C 
ATOM     19  C   UNL     1       5.372  -3.485   8.648  0.00  0.00    +0.077 C 
ENDBRANCH   5  19
ENDBRANCH   4   9
ENDBRANCH   3   4
ENDBRANCH   1   3
BRANCH   1  20
ATOM     20  C   UNL     1       2.361   0.850   0.594  0.00  0.00    +0.147 C 
BRANCH  20  21
ATOM     21  C   UNL     1       1.248   1.716  -0.001  0.00  0.00    +0.114 C 
BRANCH  21  22
ATOM     22  C   UNL     1       1.602   2.087  -1.417  0.00  0.00    -0.027 A 
ATOM     23  C   UNL     1       1.402   1.179  -2.441  0.00  0.00    +0.005 A 
ATOM     24  C   UNL     1       1.724   1.520  -3.741  0.00  0.00    +0.000 A 
ATOM     25  C   UNL     1       2.254   2.767  -4.017  0.00  0.00    +0.000 A 
ATOM     26  C   UNL     1       2.458   3.673  -2.993  0.00  0.00    +0.000 A 
ATOM     27  C   UNL     1       2.133   3.333  -1.694  0.00  0.00    +0.005 A 
ENDBRANCH  21  22
BRANCH  21  28
ATOM     28  N   UNL     1      -0.011   0.966   0.007  0.00  0.00    -0.304 N 
ATOM     29  C   UNL     1      -1.187   1.624   0.017  0.00  0.00    +0.246 C 
ATOM     30  O   UNL     1      -1.204   2.839   0.023  0.00  0.00    -0.270 OA
ATOM     31  H   UNL     1       0.002  -0.004   0.002  0.00  0.00    +0.150 HD
BRANCH  29  32
ATOM     32  C   UNL     1      -2.457   0.868   0.018  0.00  0.00    +0.055 A 
ATOM     33  C   UNL     1      -2.442  -0.528   0.005  0.00  0.00    +0.014 A 
ATOM     34  C   UNL     1      -3.630  -1.228   0.013  0.00  0.00    +0.001 A 
ATOM     35  C   UNL     1      -4.837  -0.550   0.022  0.00  0.00    +0.001 A 
ATOM     36  C   UNL     1      -4.861   0.832   0.030  0.00  0.00    +0.021 A 
ATOM     37  C   UNL     1      -3.678   1.546   0.028  0.00  0.00    +0.053 A 
ATOM     38 CL   UNL     1      -3.709   3.282   0.037  0.00  0.00    -0.083 Cl
ENDBRANCH  29  32
ENDBRANCH  21  28
ENDBRANCH  20  21
ENDBRANCH   1  20
TORSDOF 9
