REMARK  Name = ZINC45772388
REMARK  10 active torsions:
REMARK  status: ('A' for Active; 'I' for Inactive)
REMARK    1  A    between atoms: C_1  and  C_2
REMARK    2  A    between atoms: C_2  and  C_4
REMARK    3  A    between atoms: C_2  and  S_14
REMARK    4  A    between atoms: N_6  and  C_7
REMARK    5  A    between atoms: S_14  and  C_15
REMARK    6  A    between atoms: C_18  and  C_27
REMARK    7  A    between atoms: N_19  and  C_20
REMARK    8  A    between atoms: C_20  and  C_21
REMARK    9  A    between atoms: C_27  and  C_28
REMARK   10  A    between atoms: C_28  and  C_29
REMARK                            x       y       z     vdW  Elec       q    Type
REMARK                         _______ _______ _______ _____ _____    ______ ____
ROOT
ATOM      1  C   UNL     1      -0.136  -0.101   2.817  0.00  0.00    +0.192 A 
ATOM      2  N   UNL     1      -1.271   0.554   2.733  0.00  0.00    -0.122 NA
ATOM      3  N   UNL     1      -1.744   0.759   3.911  0.00  0.00    -0.134 NA
ATOM      4  C   UNL     1      -0.946   0.252   4.808  0.00  0.00    +0.135 A 
ATOM      5  N   UNL     1       0.104  -0.319   4.143  0.00  0.00    -0.303 N 
ENDROOT
BRANCH   1   6
ATOM      6  S   UNL     1       0.882  -0.609   1.471  0.00  0.00    -0.074 S 
BRANCH   6   8
ATOM      7  C   UNL     1      -0.032   1.519   0.015  0.00  0.00    +0.029 C 
ATOM      8  C   UNL     1      -0.000  -0.010   0.003  0.00  0.00    +0.137 C 
BRANCH   8   9
ATOM      9  C   UNL     1       0.708  -0.488  -1.238  0.00  0.00    +0.230 C 
ATOM     10  O   UNL     1       1.867  -0.839  -1.178  0.00  0.00    -0.274 OA
ATOM     11  N   UNL     1       0.053  -0.526  -2.415  0.00  0.00    -0.285 N 
ATOM     12  H   UNL     1      -0.892  -0.310  -2.452  0.00  0.00    +0.155 HD
BRANCH  11  13
ATOM     13  C   UNL     1       0.736  -0.877  -3.585  0.00  0.00    +0.033 A 
ATOM     14  C   UNL     1       0.406  -0.272  -4.791  0.00  0.00    +0.024 A 
ATOM     15  C   UNL     1       1.082  -0.620  -5.944  0.00  0.00    +0.017 A 
ATOM     16  C   UNL     1       2.087  -1.571  -5.899  0.00  0.00    +0.018 A 
ATOM     17  C   UNL     1       2.417  -2.175  -4.699  0.00  0.00    +0.017 A 
ATOM     18  C   UNL     1       1.748  -1.827  -3.542  0.00  0.00    +0.024 A 
ATOM     19 BR   UNL     1       3.010  -2.045  -7.480  0.00  0.00    -0.050 Br
ENDBRANCH  11  13
ENDBRANCH   8   9
ENDBRANCH   6   8
ENDBRANCH   1   6
BRANCH   5  20
ATOM     20  C   UNL     1       1.249  -1.017   4.732  0.00  0.00    +0.157 C 
BRANCH  20  21
ATOM     21  C   UNL     1       2.369  -0.013   5.013  0.00  0.00    +0.138 C 
ATOM     22  C   UNL     1       3.556  -0.714   5.719  0.00  0.00    +0.035 C 
ATOM     23  C   UNL     1       4.730   0.223   5.325  0.00  0.00    +0.031 C 
ATOM     24  C   UNL     1       4.324   0.678   3.907  0.00  0.00    +0.160 C 
ATOM     25  O   UNL     1       2.908   0.490   3.780  0.00  0.00    -0.375 OA
ENDBRANCH  20  21
ENDBRANCH   5  20
BRANCH   4  26
ATOM     26  C   UNL     1      -1.147   0.283   6.301  0.00  0.00    +0.085 C 
BRANCH  26  27
ATOM     27  C   UNL     1      -1.930  -0.957   6.737  0.00  0.00    +0.103 C 
BRANCH  27  28
ATOM     28  C   UNL     1      -2.131  -0.925   8.230  0.00  0.00    +0.211 C 
ATOM     29  O   UNL     1      -1.691  -0.002   8.882  0.00  0.00    -0.276 OA
ATOM     30  N   UNL     1      -2.800  -1.923   8.841  0.00  0.00    -0.329 N 
ATOM     31  H   UNL     1      -3.152  -2.662   8.320  0.00  0.00    +0.145 HD
ATOM     32  H   UNL     1      -2.929  -1.903   9.802  0.00  0.00    +0.145 HD
ENDBRANCH  27  28
ENDBRANCH  26  27
ENDBRANCH   4  26
TORSDOF 9
