REMARK  Name = ZINC36657478
REMARK  7 active torsions:
REMARK  status: ('A' for Active; 'I' for Inactive)
REMARK    1  A    between atoms: C_1  and  C_2
REMARK    2  A    between atoms: C_2  and  C_3
REMARK    3  A    between atoms: C_2  and  C_4
REMARK    4  A    between atoms: C_7  and  C_10
REMARK    5  A    between atoms: C_10  and  C_11
REMARK    6  A    between atoms: C_17  and  C_19
REMARK    7  A    between atoms: C_20  and  C_21
REMARK                            x       y       z     vdW  Elec       q    Type
REMARK                         _______ _______ _______ _____ _____    ______ ____
ROOT
ATOM      1  C   UNL     1      -6.323  -1.024  -0.658  0.00  0.00    +0.223 A 
ATOM      2  N   UNL     1      -6.614  -1.018  -1.926  0.00  0.00    -0.111 NA
ATOM      3  N   UNL     1      -7.413  -0.041  -2.179  0.00  0.00    -0.092 NA
ATOM      4  C   UNL     1      -7.660   0.614  -1.072  0.00  0.00    +0.314 A 
ATOM      5  O   UNL     1      -6.980   0.003  -0.085  0.00  0.00    -0.409 OA
ATOM      6  N   UNL     1      -8.476   1.727  -0.941  0.00  0.00    -0.235 N 
ATOM      7  C   UNL     1      -9.104   2.233  -2.021  0.00  0.00    +0.244 C 
ATOM      8  O   UNL     1      -8.955   1.713  -3.111  0.00  0.00    -0.270 OA
ATOM      9  H   UNL     1      -8.594   2.142  -0.072  0.00  0.00    +0.160 HD
ENDROOT
BRANCH   7  10
ATOM     10  C   UNL     1      -9.963   3.408  -1.883  0.00  0.00    +0.068 C 
ATOM     11  C   UNL     1     -10.593   3.915  -2.964  0.00  0.00    +0.013 C 
BRANCH  11  12
ATOM     12  C   UNL     1     -11.457   5.095  -2.825  0.00  0.00    -0.021 A 
ATOM     13  C   UNL     1     -11.625   5.699  -1.574  0.00  0.00    +0.012 A 
ATOM     14  C   UNL     1     -12.436   6.805  -1.446  0.00  0.00    +0.050 A 
ATOM     15  C   UNL     1     -13.089   7.325  -2.556  0.00  0.00    +0.166 A 
ATOM     16  C   UNL     1     -12.926   6.729  -3.808  0.00  0.00    +0.167 A 
ATOM     17  C   UNL     1     -12.111   5.623  -3.945  0.00  0.00    +0.057 A 
ATOM     18  O   UNL     1     -13.666   7.423  -4.721  0.00  0.00    -0.453 OA
ATOM     19  C   UNL     1     -14.602   8.198  -3.947  0.00  0.00    +0.466 C 
ATOM     20  O   UNL     1     -13.929   8.392  -2.689  0.00  0.00    -0.453 OA
ENDBRANCH  11  12
ENDBRANCH   7  10
BRANCH   1  21
ATOM     21  C   UNL     1      -5.419  -2.005   0.043  0.00  0.00    +0.132 C 
BRANCH  21  25
ATOM     22  C   UNL     1      -1.412  -0.526   0.013  0.00  0.00    -0.045 A 
ATOM     23  C   UNL     1      -2.259  -0.204   1.056  0.00  0.00    +0.004 A 
ATOM     24  C   UNL     1      -3.556  -0.683   1.066  0.00  0.00    +0.004 A 
ATOM     25  C   UNL     1      -4.006  -1.482   0.032  0.00  0.00    -0.038 A 
ATOM     26  C   UNL     1      -3.159  -1.803  -1.012  0.00  0.00    +0.004 A 
ATOM     27  C   UNL     1      -1.863  -1.321  -1.024  0.00  0.00    +0.004 A 
BRANCH  22  29
ATOM     28  C   UNL     1      -0.019   1.526   0.010  0.00  0.00    +0.012 C 
ATOM     29  C   UNL     1       0.002  -0.004   0.002  0.00  0.00    +0.013 C 
ATOM     30  C   UNL     1       0.742  -0.511   1.242  0.00  0.00    +0.012 C 
ENDBRANCH  22  29
ENDBRANCH  21  25
ENDBRANCH   1  21
TORSDOF 5
