REMARK  Name = ZINC15417016
REMARK  13 active torsions:
REMARK  status: ('A' for Active; 'I' for Inactive)
REMARK    1  A    between atoms: C_1  and  C_2
REMARK    2  A    between atoms: C_2  and  C_3
REMARK    3  A    between atoms: C_3  and  C_4
REMARK    4  A    between atoms: C_4  and  N_5
REMARK    5  A    between atoms: N_5  and  C_6
REMARK    6  A    between atoms: C_7  and  N_19
REMARK    7  A    between atoms: N_8  and  C_15
REMARK    8  A    between atoms: C_15  and  C_16
REMARK    9  A    between atoms: C_16  and  C_17
REMARK   10  A    between atoms: C_16  and  C_18
REMARK   11  A    between atoms: C_20  and  C_22
REMARK   12  A    between atoms: C_22  and  N_23
REMARK   13  A    between atoms: C_31  and  C_33
REMARK                            x       y       z     vdW  Elec       q    Type
REMARK                         _______ _______ _______ _____ _____    ______ ____
ROOT
ATOM      1  N   UNL     1      -2.689  -2.585   0.028  0.00  0.00    -0.263 N 
ATOM      2  C   UNL     1      -3.119  -2.947   1.255  0.00  0.00    +0.234 C 
ATOM      3  O   UNL     1      -4.194  -3.494   1.385  0.00  0.00    -0.274 OA
ENDROOT
BRANCH   1   4
ATOM      4  C   UNL     1      -3.537  -2.738  -1.089  0.00  0.00    +0.140 A 
ATOM      5  C   UNL     1      -3.223  -3.635  -2.090  0.00  0.00    +0.127 A 
ATOM      6  N   UNL     1      -4.069  -3.762  -3.167  0.00  0.00    -0.280 N 
ATOM      7  C   UNL     1      -5.189  -3.019  -3.245  0.00  0.00    +0.331 A 
ATOM      8  O   UNL     1      -5.924  -3.146  -4.205  0.00  0.00    -0.246 OA
ATOM      9  N   UNL     1      -5.511  -2.141  -2.279  0.00  0.00    -0.273 N 
ATOM     10  H   UNL     1      -6.324  -1.618  -2.358  0.00  0.00    +0.173 HD
ATOM     11  C   UNL     1      -4.719  -1.982  -1.200  0.00  0.00    +0.277 A 
ATOM     12  O   UNL     1      -5.023  -1.186  -0.328  0.00  0.00    -0.266 OA
BRANCH   5  13
ATOM     13  N   UNL     1      -2.079  -4.392  -2.012  0.00  0.00    -0.343 N 
ATOM     14  H   UNL     1      -1.456  -4.255  -1.281  0.00  0.00    +0.144 HD
ATOM     15  H   UNL     1      -1.895  -5.064  -2.687  0.00  0.00    +0.144 HD
ENDBRANCH   5  13
BRANCH   6  16
ATOM     16  C   UNL     1      -3.749  -4.710  -4.237  0.00  0.00    +0.131 C 
BRANCH  16  17
ATOM     17  C   UNL     1      -4.368  -6.071  -3.914  0.00  0.00    +0.003 C 
ATOM     18  C   UNL     1      -4.141  -7.026  -5.087  0.00  0.00    +0.009 C 
ATOM     19  C   UNL     1      -3.713  -6.644  -2.655  0.00  0.00    +0.009 C 
ENDBRANCH  16  17
ENDBRANCH   6  16
ENDBRANCH   1   4
BRANCH   1  20
ATOM     20  C   UNL     1      -1.343  -2.033  -0.143  0.00  0.00    +0.114 C 
BRANCH  20  21
ATOM     21  C   UNL     1      -1.410  -0.505  -0.107  0.00  0.00    +0.019 C 
BRANCH  21  23
ATOM     22  C   UNL     1      -0.071   1.600  -0.250  0.00  0.00    +0.004 C 
ATOM     23  C   UNL     1      -0.004   0.072  -0.286  0.00  0.00    -0.002 C 
ENDBRANCH  21  23
ENDBRANCH  20  21
ENDBRANCH   1  20
BRANCH   2  24
ATOM     24  C   UNL     1      -2.263  -2.671   2.465  0.00  0.00    +0.181 C 
BRANCH  24  25
ATOM     25  N   UNL     1      -2.948  -3.157   3.670  0.00  0.00    -0.284 NA
ATOM     26  C   UNL     1      -4.176  -2.390   3.923  0.00  0.00    +0.107 C 
ATOM     27  C   UNL     1      -5.057  -3.139   4.931  0.00  0.00    +0.137 C 
ATOM     28  N   UNL     1      -4.226  -3.502   6.085  0.00  0.00    -0.348 N 
ATOM     29  C   UNL     1      -4.635  -3.888   7.321  0.00  0.00    +0.086 A 
ATOM     30  C   UNL     1      -3.537  -4.122   8.073  0.00  0.00    +0.019 A 
ATOM     31  C   UNL     1      -2.408  -3.870   7.265  0.00  0.00    +0.024 A 
ATOM     32  C   UNL     1      -2.856  -3.496   6.058  0.00  0.00    +0.036 A 
ATOM     33  C   UNL     1      -2.050  -3.123   4.838  0.00  0.00    +0.101 C 
ATOM     34  C   UNL     1      -0.911  -4.126   4.644  0.00  0.00    +0.031 C 
ENDBRANCH  24  25
ENDBRANCH   2  24
TORSDOF 9
