REMARK  Name = ZINC08539910
REMARK  9 active torsions:
REMARK  status: ('A' for Active; 'I' for Inactive)
REMARK    1  A    between atoms: C_1  and  C_2
REMARK    2  A    between atoms: C_3  and  C_27
REMARK    3  A    between atoms: N_4  and  C_20
REMARK    4  A    between atoms: C_5  and  N_9
REMARK    5  A    between atoms: C_6  and  C_7
REMARK    6  A    between atoms: C_10  and  C_12
REMARK    7  A    between atoms: C_12  and  S_13
REMARK    8  A    between atoms: S_13  and  C_14
REMARK    9  A    between atoms: C_20  and  C_21
REMARK                            x       y       z     vdW  Elec       q    Type
REMARK                         _______ _______ _______ _____ _____    ______ ____
ROOT
ATOM      1  C   UNL     1       0.044   1.511   0.047  0.00  0.00    +0.047 C 
ATOM      2  C   UNL     1       0.045   0.004   0.027  0.00  0.00    -0.011 A 
ATOM      3  C   UNL     1       0.044  -0.783  -1.061  0.00  0.00    +0.022 A 
ATOM      4  N   UNL     1       0.047  -2.095  -0.670  0.00  0.00    -0.327 N 
ATOM      5  C   UNL     1       0.049  -2.180   0.685  0.00  0.00    +0.124 A 
ATOM      6  C   UNL     1       0.054  -0.888   1.193  0.00  0.00    +0.095 A 
ATOM      7  C   UNL     1       0.041  -0.298  -2.488  0.00  0.00    +0.064 C 
ENDROOT
BRANCH   5   8
ATOM      8  N   UNL     1       0.052  -3.350   1.430  0.00  0.00    -0.270 N 
ATOM      9  C   UNL     1      -0.527  -3.375   2.647  0.00  0.00    +0.229 C 
ATOM     10  O   UNL     1      -1.143  -2.410   3.046  0.00  0.00    -0.275 OA
ATOM     11  H   UNL     1       0.471  -4.149   1.076  0.00  0.00    +0.156 HD
BRANCH   9  12
ATOM     12  C   UNL     1      -0.409  -4.604   3.512  0.00  0.00    +0.172 C 
BRANCH  12  13
ATOM     13  S   UNL     1      -1.288  -4.329   5.075  0.00  0.00    -0.088 S 
BRANCH  13  14
ATOM     14  C   UNL     1      -1.060  -5.834   5.963  0.00  0.00    +0.160 A 
ATOM     15  N   UNL     1      -0.404  -6.922   5.608  0.00  0.00    -0.133 NA
ATOM     16  N   UNL     1      -0.349  -7.998   6.464  0.00  0.00    -0.125 NA
ATOM     17  C   UNL     1      -0.953  -7.936   7.635  0.00  0.00    +0.180 A 
ATOM     18  S   UNL     1      -1.648  -6.291   7.586  0.00  0.00    -0.025 S 
ATOM     19  N   UNL     1      -1.024  -8.893   8.641  0.00  0.00    -0.336 N 
ATOM     20  H   UNL     1      -0.588  -9.751   8.526  0.00  0.00    +0.144 HD
ATOM     21  H   UNL     1      -1.511  -8.702   9.458  0.00  0.00    +0.144 HD
ENDBRANCH  13  14
ENDBRANCH  12  13
ENDBRANCH   9  12
ENDBRANCH   5   8
BRANCH   6  22
ATOM     22  C   UNL     1       0.063  -0.504   2.572  0.00  0.00    +0.103 C 
ATOM     23  N   UNL     1       0.070  -0.199   3.667  0.00  0.00    -0.191 NA
ENDBRANCH   6  22
BRANCH   4  24
ATOM     24  C   UNL     1       0.046  -3.242  -1.582  0.00  0.00    +0.158 C 
BRANCH  24  25
ATOM     25  C   UNL     1       1.461  -3.556  -1.995  0.00  0.00    -0.028 A 
ATOM     26  C   UNL     1       1.970  -3.036  -3.170  0.00  0.00    +0.005 A 
ATOM     27  C   UNL     1       3.268  -3.324  -3.549  0.00  0.00    +0.000 A 
ATOM     28  C   UNL     1       4.057  -4.133  -2.752  0.00  0.00    +0.000 A 
ATOM     29  C   UNL     1       3.549  -4.652  -1.577  0.00  0.00    +0.000 A 
ATOM     30  C   UNL     1       2.252  -4.361  -1.196  0.00  0.00    +0.005 A 
ENDBRANCH  24  25
ENDBRANCH   4  24
TORSDOF 7
