REMARK  Name = ZINC59148122
REMARK  6 active torsions:
REMARK  status: ('A' for Active; 'I' for Inactive)
REMARK    1  A    between atoms: C_1  and  C_2
REMARK    2  A    between atoms: C_7  and  C_8
REMARK    3  A    between atoms: N_9  and  C_12
REMARK    4  A    between atoms: C_12  and  C_13
REMARK    5  A    between atoms: N_15  and  N_16
REMARK    6  A    between atoms: C_17  and  C_18
REMARK                            x       y       z     vdW  Elec       q    Type
REMARK                         _______ _______ _______ _____ _____    ______ ____
ROOT
ATOM      1  C   UNL     1      -1.330  -5.568   1.040  0.00  0.00    +0.252 C 
ATOM      2  O   UNL     1      -2.260  -4.923   0.603  0.00  0.00    -0.272 OA
ATOM      3  N   UNL     1      -1.557  -6.577   1.903  0.00  0.00    -0.206 N 
ATOM      4  H   UNL     1      -0.814  -7.093   2.252  0.00  0.00    +0.177 HD
ENDROOT
BRANCH   3   5
ATOM      5  N   UNL     1      -2.867  -6.882   2.297  0.00  0.00    -0.188 NA
ATOM      6  C   UNL     1      -3.085  -7.854   3.128  0.00  0.00    +0.138 C 
BRANCH   6   7
ATOM      7  C   UNL     1      -4.464  -8.174   3.543  0.00  0.00    -0.005 A 
ATOM      8  C   UNL     1      -5.537  -7.437   3.037  0.00  0.00    +0.011 A 
ATOM      9  C   UNL     1      -6.824  -7.742   3.428  0.00  0.00    +0.020 A 
ATOM     10  C   UNL     1      -7.053  -8.776   4.320  0.00  0.00    +0.041 A 
ATOM     11  C   UNL     1      -5.993  -9.511   4.825  0.00  0.00    +0.020 A 
ATOM     12  C   UNL     1      -4.702  -9.220   4.438  0.00  0.00    +0.011 A 
ATOM     13 CL   UNL     1      -8.676  -9.154   4.808  0.00  0.00    -0.084 Cl
ENDBRANCH   6   7
ENDBRANCH   3   5
BRANCH   1  14
ATOM     14  C   UNL     1       0.078  -5.240   0.616  0.00  0.00    +0.220 C 
BRANCH  14  23
ATOM     15  C   UNL     1      -0.018   1.503   0.010  0.00  0.00    +0.044 C 
ATOM     16  C   UNL     1       0.002  -0.004   0.002  0.00  0.00    -0.045 A 
ATOM     17  C   UNL     1       0.006  -0.674  -1.189  0.00  0.00    +0.033 A 
ATOM     18  C   UNL     1       0.025  -2.071  -1.202  0.00  0.00    +0.089 A 
ATOM     19  C   UNL     1       0.041  -2.773   0.015  0.00  0.00    +0.069 A 
ATOM     20  C   UNL     1       0.037  -2.076   1.215  0.00  0.00    +0.031 A 
ATOM     21  C   UNL     1       0.023  -0.697   1.204  0.00  0.00    -0.045 A 
ATOM     22  C   UNL     1       0.024   0.062   2.506  0.00  0.00    +0.044 C 
ATOM     23  N   UNL     1       0.058  -4.113  -0.319  0.00  0.00    -0.321 N 
ATOM     24  C   UNL     1       0.052  -4.192  -1.677  0.00  0.00    +0.200 A 
ATOM     25  N   UNL     1       0.033  -2.998  -2.194  0.00  0.00    -0.236 NA
ENDBRANCH  14  23
ENDBRANCH   1  14
TORSDOF 4
