REMARK  Name = ZINC04177788
REMARK  10 active torsions:
REMARK  status: ('A' for Active; 'I' for Inactive)
REMARK    1  A    between atoms: C_1  and  C_2
REMARK    2  A    between atoms: N_5  and  S_11
REMARK    3  A    between atoms: C_7  and  C_10
REMARK    4  A    between atoms: S_11  and  C_14
REMARK    5  A    between atoms: C_17  and  C_20
REMARK    6  A    between atoms: N_22  and  C_23
REMARK    7  A    between atoms: C_24  and  C_34
REMARK    8  A    between atoms: C_31  and  C_32
REMARK    9  A    between atoms: C_31  and  C_33
REMARK   10  A    between atoms: C_31  and  N_67
REMARK                            x       y       z     vdW  Elec       q    Type
REMARK                         _______ _______ _______ _____ _____    ______ ____
ROOT
ATOM      1  C   UNL     1       2.690  -3.698   7.421  0.00  0.00    +0.249 C 
ATOM      2  O   UNL     1       2.139  -4.614   7.999  0.00  0.00    -0.270 OA
ATOM      3  N   UNL     1       3.478  -2.846   8.107  0.00  0.00    -0.275 N 
ATOM      4  H   UNL     1       3.919  -2.115   7.646  0.00  0.00    +0.156 HD
ENDROOT
BRANCH   3   5
ATOM      5  C   UNL     1       3.660  -3.015   9.470  0.00  0.00    +0.085 A 
ATOM      6  C   UNL     1       4.430  -2.253  10.339  0.00  0.00    +0.068 A 
ATOM      7  C   UNL     1       4.447  -2.645  11.736  0.00  0.00    -0.027 A 
ATOM      8  C   UNL     1       3.706  -3.734  12.040  0.00  0.00    -0.021 A 
ATOM      9  S   UNL     1       2.987  -4.234  10.503  0.00  0.00    -0.079 S 
ATOM     10  C   UNL     1       3.553  -4.356  13.393  0.00  0.00    -0.035 C 
ATOM     11  C   UNL     1       4.661  -2.351  14.184  0.00  0.00    -0.073 C 
ATOM     12  C   UNL     1       5.229  -1.923  12.827  0.00  0.00    +0.018 C 
ATOM     13  N   UNL     1       4.633  -3.826  14.260  0.00  0.00    +0.384 N 
ATOM     14  H   UNL     1       5.535  -4.194  13.933  0.00  0.00    -0.081 HD
BRANCH   6  15
ATOM     15  C   UNL     1       5.194  -1.095   9.864  0.00  0.00    +0.244 C 
ATOM     16  O   UNL     1       4.682   0.009   9.854  0.00  0.00    -0.270 OA
ATOM     17  N   UNL     1       6.462  -1.254   9.437  0.00  0.00    -0.325 N 
ATOM     18  H   UNL     1       6.870  -2.134   9.444  0.00  0.00    +0.145 HD
ATOM     19  H   UNL     1       6.968  -0.488   9.122  0.00  0.00    +0.145 HD
ENDBRANCH   6  15
BRANCH  13  20
ATOM     20  C   UNL     1       4.417  -4.257  15.658  0.00  0.00    -0.074 C 
ATOM     21  C   UNL     1       3.072  -3.741  16.174  0.00  0.00    -0.014 C 
ATOM     22  C   UNL     1       4.433  -5.785  15.716  0.00  0.00    -0.014 C 
ENDBRANCH  13  20
ENDBRANCH   3   5
BRANCH   1  26
ATOM     23  C   UNL     1       2.133  -3.179   3.243  0.00  0.00    +0.106 A 
ATOM     24  C   UNL     1       2.947  -2.306   3.943  0.00  0.00    +0.029 A 
ATOM     25  C   UNL     1       3.128  -2.466   5.301  0.00  0.00    +0.015 A 
ATOM     26  C   UNL     1       2.497  -3.518   5.968  0.00  0.00    +0.037 A 
ATOM     27  C   UNL     1       1.681  -4.398   5.254  0.00  0.00    +0.015 A 
ATOM     28  C   UNL     1       1.504  -4.223   3.897  0.00  0.00    +0.029 A 
BRANCH  23  29
ATOM     29  S   UNL     1       1.901  -2.963   1.510  0.00  0.00    +0.061 S 
ATOM     30  O   UNL     1       1.536  -4.234   0.988  0.00  0.00    -0.153 OA
ATOM     31  O   UNL     1       3.029  -2.241   1.036  0.00  0.00    -0.153 OA
BRANCH  29  35
ATOM     32  C   UNL     1      -0.019   1.526   0.010  0.00  0.00    +0.039 C 
ATOM     33  C   UNL     1       0.002  -0.004   0.002  0.00  0.00    +0.131 C 
ATOM     34  C   UNL     1       0.743  -0.513   1.244  0.00  0.00    +0.140 C 
ATOM     35  N   UNL     1       0.588  -1.975   1.310  0.00  0.00    -0.172 NA
ATOM     36  C   UNL     1      -0.769  -2.532   1.194  0.00  0.00    +0.140 C 
ATOM     37  C   UNL     1      -1.437  -1.925  -0.045  0.00  0.00    +0.131 C 
ATOM     38  O   UNL     1      -1.339  -0.500   0.018  0.00  0.00    -0.371 OA
ATOM     39  C   UNL     1      -0.731  -2.430  -1.305  0.00  0.00    +0.039 C 
ENDBRANCH  29  35
ENDBRANCH  23  29
ENDBRANCH   1  26
TORSDOF 6
