REMARK  Name = ZINC36558988
REMARK  9 active torsions:
REMARK  status: ('A' for Active; 'I' for Inactive)
REMARK    1  A    between atoms: C_1  and  C_2
REMARK    2  A    between atoms: C_6  and  C_27
REMARK    3  A    between atoms: C_8  and  C_11
REMARK    4  A    between atoms: N_13  and  C_14
REMARK    5  A    between atoms: C_17  and  S_20
REMARK    6  A    between atoms: S_20  and  N_23
REMARK    7  A    between atoms: C_24  and  C_26
REMARK    8  A    between atoms: C_27  and  C_28
REMARK    9  A    between atoms: C_27  and  C_29
REMARK                            x       y       z     vdW  Elec       q    Type
REMARK                         _______ _______ _______ _____ _____    ______ ____
ROOT
ATOM      1  C   UNL     1       3.121  -0.366   2.406  0.00  0.00    +0.221 C 
ATOM      2  O   UNL     1       4.190  -0.929   2.300  0.00  0.00    -0.275 OA
ATOM      3  N   UNL     1       2.620  -0.095   3.627  0.00  0.00    -0.285 N 
ATOM      4  H   UNL     1       1.731   0.283   3.714  0.00  0.00    +0.155 HD
ENDROOT
BRANCH   1  10
ATOM      5  C   UNL     1      -0.180   0.632  -0.173  0.00  0.00    +0.007 C 
ATOM      6  C   UNL     1       0.577  -0.671  -0.440  0.00  0.00    -0.013 C 
ATOM      7  C   UNL     1       1.550  -0.466  -1.602  0.00  0.00    +0.003 C 
ATOM      8  C   UNL     1       2.547   0.638  -1.245  0.00  0.00    +0.005 C 
ATOM      9  C   UNL     1       3.326   0.235   0.009  0.00  0.00    +0.003 C 
ATOM     10  C   UNL     1       2.353   0.031   1.171  0.00  0.00    +0.079 C 
ATOM     11  C   UNL     1       1.356  -1.073   0.814  0.00  0.00    +0.016 C 
BRANCH   9  12
ATOM     12  C   UNL     1       4.323   1.340   0.366  0.00  0.00    -0.013 C 
ATOM     13  C   UNL     1       5.379   1.451  -0.736  0.00  0.00    +0.007 C 
ATOM     14  C   UNL     1       3.582   2.672   0.499  0.00  0.00    +0.007 C 
ENDBRANCH   9  12
ENDBRANCH   1  10
BRANCH   3  15
ATOM     15  C   UNL     1       3.382  -0.359   4.770  0.00  0.00    +0.034 A 
ATOM     16  C   UNL     1       3.292   0.477   5.875  0.00  0.00    +0.025 A 
ATOM     17  C   UNL     1       4.046   0.213   7.002  0.00  0.00    +0.030 A 
ATOM     18  C   UNL     1       4.889  -0.882   7.031  0.00  0.00    +0.109 A 
ATOM     19  C   UNL     1       4.981  -1.717   5.932  0.00  0.00    +0.030 A 
ATOM     20  C   UNL     1       4.225  -1.462   4.805  0.00  0.00    +0.025 A 
BRANCH  18  21
ATOM     21  S   UNL     1       5.849  -1.215   8.471  0.00  0.00    +0.074 S 
ATOM     22  O   UNL     1       6.965  -1.986   8.046  0.00  0.00    -0.150 OA
ATOM     23  O   UNL     1       5.994   0.020   9.157  0.00  0.00    -0.150 OA
BRANCH  21  24
ATOM     24  N   UNL     1       4.941  -2.196   9.448  0.00  0.00    -0.186 N 
ATOM     25  C   UNL     1       4.619  -3.441   9.042  0.00  0.00    +0.229 C 
ATOM     26  O   UNL     1       4.994  -3.842   7.961  0.00  0.00    -0.275 OA
ATOM     27  C   UNL     1       3.793  -4.333   9.932  0.00  0.00    +0.111 C 
ATOM     28  H   UNL     1       4.641  -1.875  10.313  0.00  0.00    +0.177 HD
ENDBRANCH  21  24
ENDBRANCH  18  21
ENDBRANCH   3  15
TORSDOF 5
