REMARK  Name = ZINC13146369
REMARK  11 active torsions:
REMARK  status: ('A' for Active; 'I' for Inactive)
REMARK    1  A    between atoms: C_1  and  C_2
REMARK    2  A    between atoms: C_2  and  O_3
REMARK    3  A    between atoms: O_3  and  C_4
REMARK    4  A    between atoms: C_4  and  C_6
REMARK    5  A    between atoms: C_7  and  C_20
REMARK    6  A    between atoms: C_12  and  C_14
REMARK    7  A    between atoms: C_20  and  O_21
REMARK    8  A    between atoms: O_21  and  C_22
REMARK    9  A    between atoms: C_22  and  C_24
REMARK   10  A    between atoms: C_28  and  N_29
REMARK   11  A    between atoms: C_30  and  C_32
REMARK                            x       y       z     vdW  Elec       q    Type
REMARK                         _______ _______ _______ _____ _____    ______ ____
ROOT
ATOM      1  C   UNL     1       1.126  -3.294  -2.973  0.00  0.00    +0.081 C 
ATOM      2  C   UNL     1      -0.022  -2.804  -2.458  0.00  0.00    +0.061 C 
ATOM      3  N   UNL     1      -1.149  -2.696  -3.222  0.00  0.00    -0.269 N 
ATOM      4  C   UNL     1      -1.211  -3.060  -4.509  0.00  0.00    +0.304 C 
ATOM      5  O   UNL     1      -2.260  -2.925  -5.108  0.00  0.00    -0.252 OA
ATOM      6  N   UNL     1      -0.148  -3.572  -5.161  0.00  0.00    -0.288 N 
ATOM      7  C   UNL     1       1.117  -3.730  -4.425  0.00  0.00    +0.144 C 
ATOM      8  H   UNL     1      -1.949  -2.334  -2.810  0.00  0.00    +0.156 HD
ATOM      9  H   UNL     1      -0.215  -3.830  -6.094  0.00  0.00    +0.151 HD
ENDROOT
BRANCH   7  10
ATOM     10  C   UNL     1       1.508  -5.184  -4.479  0.00  0.00    -0.022 A 
ATOM     11  C   UNL     1       0.543  -6.165  -4.343  0.00  0.00    +0.006 A 
ATOM     12  C   UNL     1       0.901  -7.499  -4.397  0.00  0.00    +0.000 A 
ATOM     13  C   UNL     1       2.225  -7.852  -4.579  0.00  0.00    +0.000 A 
ATOM     14  C   UNL     1       3.191  -6.872  -4.709  0.00  0.00    +0.000 A 
ATOM     15  C   UNL     1       2.832  -5.538  -4.659  0.00  0.00    +0.006 A 
ENDBRANCH   7  10
BRANCH   1  16
ATOM     16  C   UNL     1       2.295  -3.401  -2.184  0.00  0.00    +0.339 C 
ATOM     17  O   UNL     1       3.178  -2.571  -2.290  0.00  0.00    -0.245 OA
BRANCH  16  18
ATOM     18  O   UNL     1       2.430  -4.424  -1.315  0.00  0.00    -0.462 OA
BRANCH  18  20
ATOM     19  C   UNL     1       3.609  -5.691   0.373  0.00  0.00    +0.048 C 
ATOM     20  C   UNL     1       3.636  -4.471  -0.550  0.00  0.00    +0.229 C 
ENDBRANCH  18  20
ENDBRANCH  16  18
ENDBRANCH   1  16
BRANCH   2  21
ATOM     21  C   UNL     1      -0.059  -2.364  -1.017  0.00  0.00    +0.283 C 
BRANCH  21  22
ATOM     22  O   UNL     1      -0.290  -0.932  -0.954  0.00  0.00    -0.455 OA
BRANCH  22  23
ATOM     23  C   UNL     1      -0.351  -0.374   0.273  0.00  0.00    +0.342 C 
ATOM     24  O   UNL     1      -0.215  -1.068   1.263  0.00  0.00    -0.245 OA
BRANCH  23  25
ATOM     25  C   UNL     1      -0.581   1.065   0.413  0.00  0.00    +0.091 A 
ATOM     26  C   UNL     1       0.526   2.005   0.455  0.00  0.00    -0.021 A 
ATOM     27  C   UNL     1       0.175   3.302   0.587  0.00  0.00    -0.004 A 
ATOM     28  S   UNL     1      -1.594   3.288   0.655  0.00  0.00    -0.077 S 
ATOM     29  C   UNL     1      -1.866   1.583   0.504  0.00  0.00    +0.086 A 
ATOM     30  C   UNL     1       1.093   4.484   0.660  0.00  0.00    +0.043 C 
ATOM     31  C   UNL     1       2.514   3.975   0.940  0.00  0.00    +0.005 C 
ATOM     32  C   UNL     1       2.822   2.821  -0.019  0.00  0.00    +0.005 C 
ATOM     33  C   UNL     1       1.991   1.594   0.360  0.00  0.00    +0.037 C 
BRANCH  29  34
ATOM     34  N   UNL     1      -3.073   0.903   0.482  0.00  0.00    -0.280 N 
ATOM     35  C   UNL     1      -4.233   1.583   0.583  0.00  0.00    +0.214 C 
ATOM     36  O   UNL     1      -4.220   2.790   0.695  0.00  0.00    -0.276 OA
ATOM     37  C   UNL     1      -5.545   0.842   0.559  0.00  0.00    +0.109 C 
ATOM     38  H   UNL     1      -3.084  -0.063   0.393  0.00  0.00    +0.155 HD
ENDBRANCH  29  34
ENDBRANCH  23  25
ENDBRANCH  22  23
ENDBRANCH  21  22
ENDBRANCH   2  21
TORSDOF 9
