REMARK  Name = ZINC08826146
REMARK  13 active torsions:
REMARK  status: ('A' for Active; 'I' for Inactive)
REMARK    1  A    between atoms: C_1  and  C_2
REMARK    2  A    between atoms: C_2  and  C_4
REMARK    3  A    between atoms: C_2  and  N_56
REMARK    4  A    between atoms: C_7  and  S_16
REMARK    5  A    between atoms: N_8  and  C_9
REMARK    6  A    between atoms: S_16  and  C_17
REMARK    7  A    between atoms: C_17  and  C_18
REMARK    8  A    between atoms: C_18  and  C_20
REMARK    9  A    between atoms: C_23  and  N_26
REMARK   10  A    between atoms: N_26  and  S_27
REMARK   11  A    between atoms: S_27  and  C_30
REMARK   12  A    between atoms: C_31  and  N_56
REMARK   13  A    between atoms: C_32  and  N_56
REMARK                            x       y       z     vdW  Elec       q    Type
REMARK                         _______ _______ _______ _____ _____    ______ ____
ROOT
ATOM      1  C   UNL     1       6.315   7.651  -0.463  0.00  0.00    +0.125 A 
ATOM      2  N   UNL     1       6.604   6.380  -0.455  0.00  0.00    -0.135 NA
ATOM      3  N   UNL     1       5.527   5.682  -0.386  0.00  0.00    -0.122 NA
ATOM      4  C   UNL     1       4.481   6.475  -0.346  0.00  0.00    +0.196 A 
ATOM      5  N   UNL     1       4.951   7.759  -0.400  0.00  0.00    -0.275 N 
ENDROOT
BRANCH   5   6
ATOM      6  C   UNL     1       4.194   8.940  -0.389  0.00  0.00    +0.050 A 
ATOM      7  C   UNL     1       4.195   9.776  -1.497  0.00  0.00    +0.028 A 
ATOM      8  C   UNL     1       3.446  10.936  -1.486  0.00  0.00    +0.022 A 
ATOM      9  C   UNL     1       2.702  11.270  -0.367  0.00  0.00    +0.041 A 
ATOM     10  C   UNL     1       2.704  10.441   0.740  0.00  0.00    +0.022 A 
ATOM     11  C   UNL     1       3.448   9.277   0.732  0.00  0.00    +0.028 A 
ATOM     12 CL   UNL     1       1.765  12.732  -0.354  0.00  0.00    -0.084 Cl
ENDBRANCH   5   6
BRANCH   1  14
ATOM     13  C   UNL     1       7.843   8.905  -1.961  0.00  0.00    -0.005 C 
ATOM     14  C   UNL     1       7.300   8.789  -0.535  0.00  0.00    -0.003 C 
BRANCH  14  17
ATOM     15  C   UNL     1       9.391   9.629   0.349  0.00  0.00    -0.096 C 
ATOM     16  C   UNL     1       7.916   8.326   1.760  0.00  0.00    -0.096 C 
ATOM     17  N   UNL     1       8.423   8.512   0.384  0.00  0.00    +0.382 N 
ATOM     18  H   UNL     1       8.896   7.652   0.084  0.00  0.00    -0.082 HD
ENDBRANCH  14  17
ENDBRANCH   1  14
BRANCH   4  19
ATOM     19  S   UNL     1       2.793   5.981  -0.250  0.00  0.00    -0.078 S 
BRANCH  19  20
ATOM     20  C   UNL     1       2.994   4.182  -0.227  0.00  0.00    +0.157 C 
BRANCH  20  21
ATOM     21  C   UNL     1       1.639   3.526  -0.145  0.00  0.00    +0.173 C 
ATOM     22  O   UNL     1       0.636   4.209  -0.107  0.00  0.00    -0.291 OA
BRANCH  21  23
ATOM     23  C   UNL     1       1.533   2.063  -0.113  0.00  0.00    +0.018 A 
ATOM     24  C   UNL     1       0.274   1.452  -0.037  0.00  0.00    +0.013 A 
ATOM     25  C   UNL     1       0.180   0.090  -0.007  0.00  0.00    +0.025 A 
ATOM     26  C   UNL     1       1.332  -0.691  -0.051  0.00  0.00    +0.048 A 
ATOM     27  C   UNL     1       2.586  -0.088  -0.126  0.00  0.00    +0.025 A 
ATOM     28  C   UNL     1       2.689   1.274  -0.157  0.00  0.00    +0.013 A 
BRANCH  26  29
ATOM     29  N   UNL     1       1.232  -2.076  -0.020  0.00  0.00    -0.221 N 
ATOM     30  H   UNL     1       1.452  -2.561   0.791  0.00  0.00    +0.173 HD
BRANCH  29  31
ATOM     31  S   UNL     1       0.736  -2.901  -1.368  0.00  0.00    +0.040 S 
ATOM     32  O   UNL     1       0.744  -4.268  -0.980  0.00  0.00    -0.155 OA
ATOM     33  O   UNL     1      -0.474  -2.265  -1.758  0.00  0.00    -0.155 OA
ATOM     34  C   UNL     1       2.029  -2.595  -2.604  0.00  0.00    +0.218 C 
ENDBRANCH  29  31
ENDBRANCH  26  29
ENDBRANCH  21  23
ENDBRANCH  20  21
ENDBRANCH  19  20
ENDBRANCH   4  19
TORSDOF 9
