REMARK  Name = ZINC35644333
REMARK  13 active torsions:
REMARK  status: ('A' for Active; 'I' for Inactive)
REMARK    1  A    between atoms: C_1  and  C_2
REMARK    2  A    between atoms: C_2  and  C_3
REMARK    3  A    between atoms: C_2  and  C_4
REMARK    4  A    between atoms: C_2  and  O_24
REMARK    5  A    between atoms: C_4  and  O_6
REMARK    6  A    between atoms: O_6  and  C_7
REMARK    7  A    between atoms: C_9  and  O_23
REMARK    8  A    between atoms: C_11  and  O_22
REMARK    9  A    between atoms: C_13  and  O_21
REMARK   10  A    between atoms: C_15  and  C_18
REMARK   11  A    between atoms: O_24  and  C_25
REMARK   12  A    between atoms: C_28  and  C_31
REMARK   13  A    between atoms: C_31  and  C_33
REMARK                            x       y       z     vdW  Elec       q    Type
REMARK                         _______ _______ _______ _____ _____    ______ ____
ROOT
ATOM      1  C   UNL     1       0.787   1.159   0.962  0.00  0.00    +0.067 C 
ATOM      2  C   UNL     1       0.499  -0.339   0.843  0.00  0.00    +0.201 C 
ATOM      3  C   UNL     1       1.078  -1.067   2.058  0.00  0.00    +0.067 C 
ENDROOT
BRANCH   2   4
ATOM      4  C   UNL     1      -0.991  -0.561   0.787  0.00  0.00    +0.353 C 
ATOM      5  O   UNL     1      -1.485  -1.099  -0.175  0.00  0.00    -0.246 OA
BRANCH   4   6
ATOM      6  O   UNL     1      -1.768  -0.162   1.805  0.00  0.00    -0.429 OA
BRANCH   6   7
ATOM      7  C   UNL     1      -3.171  -0.404   1.685  0.00  0.00    +0.343 C 
ATOM      8  C   UNL     1      -3.914   0.330   2.804  0.00  0.00    +0.214 C 
ATOM      9  C   UNL     1      -5.410   0.016   2.704  0.00  0.00    +0.180 C 
ATOM     10  C   UNL     1      -5.608  -1.501   2.773  0.00  0.00    +0.186 C 
ATOM     11  C   UNL     1      -4.800  -2.164   1.655  0.00  0.00    +0.266 C 
ATOM     12  O   UNL     1      -3.422  -1.807   1.788  0.00  0.00    -0.322 OA
BRANCH  11  13
ATOM     13  C   UNL     1      -4.942  -3.662   1.752  0.00  0.00    +0.387 C 
ATOM     14  O   UNL     1      -6.030  -4.183   1.573  0.00  0.00    -0.243 OA
ATOM     15  O   UNL     1      -3.970  -4.351   2.010  0.00  0.00    -0.243 OA
ENDBRANCH  11  13
BRANCH  10  16
ATOM     16  O   UNL     1      -6.994  -1.810   2.609  0.00  0.00    -0.386 OA
ATOM     17  H   UNL     1      -7.193  -2.755   2.642  0.00  0.00    +0.210 HD
ENDBRANCH  10  16
BRANCH   9  18
ATOM     18  O   UNL     1      -6.103   0.640   3.787  0.00  0.00    -0.386 OA
ATOM     19  H   UNL     1      -6.014   1.603   3.808  0.00  0.00    +0.210 HD
ENDBRANCH   9  18
BRANCH   8  20
ATOM     20  O   UNL     1      -3.417  -0.104   4.072  0.00  0.00    -0.383 OA
ATOM     21  H   UNL     1      -2.473   0.060   4.201  0.00  0.00    +0.210 HD
ENDBRANCH   8  20
ENDBRANCH   6   7
ENDBRANCH   4   6
ENDBRANCH   2   4
BRANCH   2  22
ATOM     22  O   UNL     1       1.102  -0.847  -0.349  0.00  0.00    -0.475 OA
BRANCH  22  23
ATOM     23  C   UNL     1       0.943  -2.170  -0.604  0.00  0.00    +0.122 A 
ATOM     24  C   UNL     1       0.117  -2.938   0.209  0.00  0.00    +0.046 A 
ATOM     25  C   UNL     1      -0.047  -4.281  -0.046  0.00  0.00    +0.015 A 
ATOM     26  C   UNL     1       0.617  -4.872  -1.126  0.00  0.00    +0.022 A 
ATOM     27  C   UNL     1       1.446  -4.095  -1.941  0.00  0.00    +0.015 A 
ATOM     28  C   UNL     1       1.601  -2.752  -1.682  0.00  0.00    +0.046 A 
BRANCH  26  29
ATOM     29  C   UNL     1       0.444  -6.310  -1.403  0.00  0.00    +0.193 C 
ATOM     30  O   UNL     1      -0.542  -6.893  -0.998  0.00  0.00    -0.287 OA
BRANCH  29  31
ATOM     31  C   UNL     1       1.470  -7.042  -2.175  0.00  0.00    +0.022 A 
ATOM     32  C   UNL     1       2.780  -6.559  -2.235  0.00  0.00    +0.013 A 
ATOM     33  C   UNL     1       3.732  -7.247  -2.955  0.00  0.00    +0.021 A 
ATOM     34  C   UNL     1       3.393  -8.415  -3.620  0.00  0.00    +0.041 A 
ATOM     35  C   UNL     1       2.096  -8.899  -3.564  0.00  0.00    +0.021 A 
ATOM     36  C   UNL     1       1.135  -8.223  -2.842  0.00  0.00    +0.013 A 
ATOM     37 CL   UNL     1       4.598  -9.275  -4.526  0.00  0.00    -0.084 Cl
ENDBRANCH  29  31
ENDBRANCH  26  29
ENDBRANCH  22  23
ENDBRANCH   2  22
TORSDOF 11
