REMARK  Name = ZINC10001579
REMARK  8 active torsions:
REMARK  status: ('A' for Active; 'I' for Inactive)
REMARK    1  A    between atoms: C_1  and  C_2
REMARK    2  A    between atoms: C_3  and  C_31
REMARK    3  A    between atoms: C_6  and  N_7
REMARK    4  A    between atoms: N_7  and  S_8
REMARK    5  A    between atoms: S_8  and  C_11
REMARK    6  A    between atoms: C_14  and  N_17
REMARK    7  A    between atoms: C_18  and  C_20
REMARK    8  A    between atoms: C_21  and  C_22
REMARK                            x       y       z     vdW  Elec       q    Type
REMARK                         _______ _______ _______ _____ _____    ______ ____
ROOT
ATOM      1  C   UNL     1      -7.107  -0.622   0.301  0.00  0.00    +0.109 A 
ATOM      2  C   UNL     1      -7.185   0.756   0.213  0.00  0.00    +0.030 A 
ATOM      3  C   UNL     1      -6.032   1.510   0.123  0.00  0.00    +0.025 A 
ATOM      4  C   UNL     1      -4.793   0.884   0.120  0.00  0.00    +0.034 A 
ATOM      5  C   UNL     1      -4.717  -0.501   0.202  0.00  0.00    +0.025 A 
ATOM      6  C   UNL     1      -5.874  -1.249   0.297  0.00  0.00    +0.030 A 
ENDROOT
BRANCH   4   7
ATOM      7  N   UNL     1      -3.623   1.645   0.028  0.00  0.00    -0.282 N 
ATOM      8  C   UNL     1      -3.558   2.854   0.620  0.00  0.00    +0.241 C 
ATOM      9  O   UNL     1      -4.543   3.320   1.162  0.00  0.00    -0.270 OA
ATOM     10  H   UNL     1      -2.859   1.302  -0.461  0.00  0.00    +0.155 HD
BRANCH   8  11
ATOM     11  C   UNL     1      -2.304   3.606   0.610  0.00  0.00    +0.068 C 
ATOM     12  C   UNL     1      -2.239   4.817   1.203  0.00  0.00    +0.013 C 
BRANCH  12  13
ATOM     13  C   UNL     1      -0.976   5.570   1.199  0.00  0.00    -0.021 A 
ATOM     14  C   UNL     1       0.158   5.036   0.576  0.00  0.00    +0.012 A 
ATOM     15  C   UNL     1       1.339   5.744   0.574  0.00  0.00    +0.050 A 
ATOM     16  C   UNL     1       1.411   6.988   1.188  0.00  0.00    +0.166 A 
ATOM     17  C   UNL     1       0.284   7.527   1.811  0.00  0.00    +0.167 A 
ATOM     18  C   UNL     1      -0.906   6.826   1.813  0.00  0.00    +0.057 A 
ATOM     19  O   UNL     1       0.615   8.745   2.332  0.00  0.00    -0.453 OA
ATOM     20  C   UNL     1       1.835   9.126   1.670  0.00  0.00    +0.466 C 
ATOM     21  O   UNL     1       2.443   7.869   1.321  0.00  0.00    -0.453 OA
ENDBRANCH  12  13
ENDBRANCH   8  11
ENDBRANCH   4   7
BRANCH   1  22
ATOM     22  S   UNL     1      -8.580  -1.581   0.416  0.00  0.00    +0.075 S 
ATOM     23  O   UNL     1      -8.219  -2.808   1.036  0.00  0.00    -0.150 OA
ATOM     24  O   UNL     1      -9.582  -0.725   0.948  0.00  0.00    -0.150 OA
BRANCH  22  25
ATOM     25  N   UNL     1      -9.046  -1.951  -1.129  0.00  0.00    -0.183 N 
ATOM     26  H   UNL     1      -9.879  -1.600  -1.482  0.00  0.00    +0.177 HD
BRANCH  25  32
ATOM     27  C   UNL     1      -9.684  -2.817  -4.065  0.00  0.00    +0.051 C 
ATOM     28  C   UNL     1      -8.497  -3.156  -3.201  0.00  0.00    +0.035 A 
ATOM     29  C   UNL     1      -7.384  -3.954  -3.531  0.00  0.00    +0.085 A 
ATOM     30  N   UNL     1      -6.615  -3.973  -2.478  0.00  0.00    -0.081 NA
ATOM     31  O   UNL     1      -7.077  -3.317  -1.573  0.00  0.00    -0.338 OA
ATOM     32  C   UNL     1      -8.248  -2.760  -1.917  0.00  0.00    +0.240 A 
ATOM     33  C   UNL     1      -7.133  -4.655  -4.841  0.00  0.00    +0.069 C 
ENDBRANCH  25  32
ENDBRANCH  22  25
ENDBRANCH   1  22
TORSDOF 6
