REMARK  Name = ZINC34715825
REMARK  10 active torsions:
REMARK  status: ('A' for Active; 'I' for Inactive)
REMARK    1  A    between atoms: C_1  and  C_2
REMARK    2  A    between atoms: C_2  and  O_3
REMARK    3  A    between atoms: O_3  and  C_4
REMARK    4  A    between atoms: C_4  and  C_6
REMARK    5  A    between atoms: C_13  and  C_15
REMARK    6  A    between atoms: C_18  and  C_29
REMARK    7  A    between atoms: N_25  and  C_26
REMARK    8  A    between atoms: C_26  and  C_27
REMARK    9  A    between atoms: C_26  and  C_28
REMARK   10  A    between atoms: C_33  and  C_35
REMARK                            x       y       z     vdW  Elec       q    Type
REMARK                         _______ _______ _______ _____ _____    ______ ____
ROOT
ATOM      1  C   UNL     1      -5.978  -5.928   0.545  0.00  0.00    +0.093 C 
ATOM      2  C   UNL     1      -6.364  -6.899   1.663  0.00  0.00    +0.024 C 
ATOM      3  C   UNL     1      -6.261  -6.189   3.016  0.00  0.00    +0.037 C 
ATOM      4  C   UNL     1      -7.235  -5.007   3.043  0.00  0.00    +0.117 C 
ATOM      5  N   UNL     1      -6.963  -4.143   1.886  0.00  0.00    -0.284 N 
ATOM      6  C   UNL     1      -6.948  -4.743   0.544  0.00  0.00    +0.122 C 
ATOM      7  C   UNL     1      -6.732  -2.826   2.052  0.00  0.00    +0.302 C 
ATOM      8  O   UNL     1      -6.650  -2.359   3.172  0.00  0.00    -0.253 OA
ATOM      9  N   UNL     1      -6.590  -2.026   0.977  0.00  0.00    -0.297 N 
ATOM     10  H   UNL     1      -6.583  -2.408   0.086  0.00  0.00    +0.150 HD
ENDROOT
BRANCH   1  17
ATOM     11  C   UNL     1      -1.594  -5.326  -1.114  0.00  0.00    +0.115 C 
ATOM     12  C   UNL     1      -1.674  -6.659  -1.861  0.00  0.00    +0.018 C 
ATOM     13  C   UNL     1      -3.138  -7.085  -1.991  0.00  0.00    +0.020 C 
ATOM     14  C   UNL     1      -3.737  -7.277  -0.594  0.00  0.00    +0.108 C 
ATOM     15  N   UNL     1      -3.534  -6.045   0.180  0.00  0.00    -0.300 N 
ATOM     16  C   UNL     1      -2.176  -5.497   0.293  0.00  0.00    +0.122 C 
ATOM     17  C   UNL     1      -4.574  -5.429   0.775  0.00  0.00    +0.220 C 
ATOM     18  O   UNL     1      -4.381  -4.473   1.496  0.00  0.00    -0.275 OA
BRANCH  11  19
ATOM     19  C   UNL     1      -0.155  -4.891  -1.014  0.00  0.00    +0.312 C 
ATOM     20  O   UNL     1       0.355  -4.732   0.070  0.00  0.00    -0.250 OA
BRANCH  19  21
ATOM     21  O   UNL     1       0.562  -4.680  -2.129  0.00  0.00    -0.465 OA
BRANCH  21  23
ATOM     22  C   UNL     1       2.570  -4.079  -3.332  0.00  0.00    +0.048 C 
ATOM     23  C   UNL     1       1.920  -4.269  -1.960  0.00  0.00    +0.229 C 
ENDBRANCH  21  23
ENDBRANCH  19  21
ENDBRANCH  11  19
ENDBRANCH   1  17
BRANCH   3  24
ATOM     24  C   UNL     1      -6.610  -7.155   4.118  0.00  0.00    -0.042 A 
ATOM     25  C   UNL     1      -7.856  -7.753   4.144  0.00  0.00    +0.007 A 
ATOM     26  C   UNL     1      -8.178  -8.639   5.154  0.00  0.00    +0.039 A 
ATOM     27  C   UNL     1      -7.250  -8.929   6.141  0.00  0.00    +0.126 A 
ATOM     28  C   UNL     1      -6.003  -8.329   6.115  0.00  0.00    -0.015 A 
ATOM     29  C   UNL     1      -5.682  -7.447   5.100  0.00  0.00    +0.010 A 
ATOM     30  C   UNL     1      -4.993  -8.643   7.188  0.00  0.00    +0.047 C 
ATOM     31  F   UNL     1      -7.563  -9.795   7.130  0.00  0.00    -0.205 F 
ENDBRANCH   3  24
BRANCH   9  32
ATOM     32  C   UNL     1      -6.449  -0.578   1.154  0.00  0.00    +0.068 C 
ATOM     33  C   UNL     1      -5.815   0.029  -0.099  0.00  0.00    +0.027 C 
ATOM     34  C   UNL     1      -7.827   0.045   1.383  0.00  0.00    +0.027 C 
ENDBRANCH   9  32
TORSDOF 6
