REMARK  Name = ZINC40336453
REMARK  6 active torsions:
REMARK  status: ('A' for Active; 'I' for Inactive)
REMARK    1  A    between atoms: C_4  and  C_7
REMARK    2  A    between atoms: C_7  and  C_8
REMARK    3  A    between atoms: C_8  and  N_9
REMARK    4  A    between atoms: C_10  and  C_26
REMARK    5  A    between atoms: C_13  and  C_20
REMARK    6  A    between atoms: C_29  and  N_32
REMARK                            x       y       z     vdW  Elec       q    Type
REMARK                         _______ _______ _______ _____ _____    ______ ____
ROOT
ATOM      1  N   UNL     1       5.450  -1.678   1.382  0.00  0.00    -0.285 N 
ATOM      2  C   UNL     1       5.620  -3.137   1.367  0.00  0.00    +0.141 C 
ATOM      3  C   UNL     1       7.103  -3.384   1.352  0.00  0.00    +0.035 A 
ATOM      4  C   UNL     1       8.143  -4.319   1.335  0.00  0.00    +0.099 A 
ATOM      5  N   UNL     1       9.278  -3.648   1.332  0.00  0.00    -0.173 NA
ATOM      6  N   UNL     1       9.058  -2.382   1.345  0.00  0.00    -0.272 N 
ATOM      7  H   UNL     1       9.745  -1.697   1.346  0.00  0.00    +0.189 HD
ATOM      8  C   UNL     1       7.713  -2.144   1.359  0.00  0.00    +0.126 A 
ATOM      9  C   UNL     1       6.670  -1.112   1.371  0.00  0.00    +0.265 C 
ATOM     10  O   UNL     1       6.879   0.086   1.375  0.00  0.00    -0.268 OA
ENDROOT
BRANCH   4  11
ATOM     11  C   UNL     1       7.996  -5.796   1.323  0.00  0.00    +0.002 A 
ATOM     12  C   UNL     1       6.947  -6.400   2.012  0.00  0.00    +0.010 A 
ATOM     13  C   UNL     1       6.815  -7.774   1.998  0.00  0.00    +0.001 A 
ATOM     14  C   UNL     1       7.722  -8.551   1.300  0.00  0.00    +0.000 A 
ATOM     15  C   UNL     1       8.765  -7.957   0.614  0.00  0.00    +0.001 A 
ATOM     16  C   UNL     1       8.903  -6.583   0.617  0.00  0.00    +0.010 A 
ENDBRANCH   4  11
BRANCH   2  17
ATOM     17  C   UNL     1       4.983  -3.721   0.132  0.00  0.00    -0.022 A 
ATOM     18  C   UNL     1       5.105  -3.070  -1.082  0.00  0.00    +0.008 A 
ATOM     19  C   UNL     1       4.521  -3.606  -2.215  0.00  0.00    +0.033 A 
ATOM     20  C   UNL     1       3.816  -4.792  -2.134  0.00  0.00    +0.126 A 
ATOM     21  C   UNL     1       3.695  -5.443  -0.920  0.00  0.00    +0.033 A 
ATOM     22  C   UNL     1       4.282  -4.910   0.212  0.00  0.00    +0.008 A 
BRANCH  20  23
ATOM     23  N   UNL     1       3.190  -5.364  -3.347  0.00  0.00    +0.056 N 
ATOM     24  O   UNL     1       3.295  -4.795  -4.408  0.00  0.00    -0.126 OA
ATOM     25  O   UNL     1       2.573  -6.402  -3.276  0.00  0.00    -0.126 OA
ENDBRANCH  20  23
ENDBRANCH   2  17
BRANCH   1  26
ATOM     26  C   UNL     1       4.171  -0.963   1.399  0.00  0.00    +0.114 C 
BRANCH  26  27
ATOM     27  C   UNL     1       3.711  -0.707  -0.038  0.00  0.00    +0.054 C 
BRANCH  27  31
ATOM     28  C   UNL     1      -0.017   1.378   0.010  0.00  0.00    +0.000 A 
ATOM     29  C   UNL     1       1.171   2.086   0.002  0.00  0.00    +0.000 A 
ATOM     30  C   UNL     1       2.377   1.411  -0.013  0.00  0.00    +0.004 A 
ATOM     31  C   UNL     1       2.396   0.029  -0.020  0.00  0.00    -0.046 A 
ATOM     32  C   UNL     1       1.208  -0.679  -0.012  0.00  0.00    +0.004 A 
ATOM     33  C   UNL     1       0.002  -0.004   0.002  0.00  0.00    +0.000 A 
ENDBRANCH  27  31
ENDBRANCH  26  27
ENDBRANCH   1  26
TORSDOF 6
