REMARK  Name = ZINC39662248
REMARK  7 active torsions:
REMARK  status: ('A' for Active; 'I' for Inactive)
REMARK    1  A    between atoms: C_4  and  C_7
REMARK    2  A    between atoms: C_7  and  C_8
REMARK    3  A    between atoms: C_8  and  C_9
REMARK    4  A    between atoms: C_13  and  C_22
REMARK    5  A    between atoms: N_24  and  C_25
REMARK    6  A    between atoms: C_25  and  C_27
REMARK    7  A    between atoms: C_25  and  C_29
REMARK                            x       y       z     vdW  Elec       q    Type
REMARK                         _______ _______ _______ _____ _____    ______ ____
ROOT
ATOM      1  C   UNL     1       5.630  -1.742   1.347  0.00  0.00    +0.216 C 
ATOM      2  O   UNL     1       6.144  -2.089   0.305  0.00  0.00    -0.276 OA
ATOM      3  N   UNL     1       6.189  -2.091   2.523  0.00  0.00    -0.300 N 
ATOM      4  C   UNL     1       5.708  -1.769   3.887  0.00  0.00    +0.121 C 
ATOM      5  C   UNL     1       5.966  -3.055   4.705  0.00  0.00    +0.100 C 
ATOM      6  C   UNL     1       7.093  -3.780   3.950  0.00  0.00    -0.004 C 
ATOM      7  C   UNL     1       7.419  -2.888   2.744  0.00  0.00    +0.115 C 
ATOM      8  C   UNL     1       6.615  -5.148   3.474  0.00  0.00    -0.010 C 
ATOM      9  C   UNL     1       7.771  -5.872   2.777  0.00  0.00    -0.082 C 
ATOM     10  N   UNL     1       8.892  -6.022   3.712  0.00  0.00    +0.379 N 
ATOM     11  C   UNL     1       9.406  -4.701   4.093  0.00  0.00    -0.082 C 
ATOM     12  C   UNL     1       8.320  -3.926   4.846  0.00  0.00    -0.010 C 
ATOM     13  H   UNL     1       8.578  -6.510   4.537  0.00  0.00    -0.086 HD
ATOM     14  H   UNL     1       9.628  -6.553   3.270  0.00  0.00    -0.086 HD
ENDROOT
BRANCH   5  15
ATOM     15  C   UNL     1       6.407  -2.707   6.104  0.00  0.00    +0.219 C 
ATOM     16  O   UNL     1       7.036  -1.690   6.306  0.00  0.00    -0.275 OA
ATOM     17  N   UNL     1       6.102  -3.526   7.129  0.00  0.00    -0.296 N 
ATOM     18  H   UNL     1       5.599  -4.340   6.967  0.00  0.00    +0.150 HD
BRANCH  17  19
ATOM     19  C   UNL     1       6.531  -3.188   8.489  0.00  0.00    +0.207 C 
BRANCH  19  20
ATOM     20  C   UNL     1       5.611  -3.848   9.484  0.00  0.00    -0.013 A 
ATOM     21  C   UNL     1       5.168  -5.139   9.265  0.00  0.00    +0.006 A 
ATOM     22  C   UNL     1       4.324  -5.745  10.178  0.00  0.00    +0.000 A 
ATOM     23  C   UNL     1       3.925  -5.059  11.310  0.00  0.00    +0.000 A 
ATOM     24  C   UNL     1       4.369  -3.769  11.529  0.00  0.00    +0.000 A 
ATOM     25  C   UNL     1       5.216  -3.165  10.619  0.00  0.00    +0.006 A 
ENDBRANCH  19  20
BRANCH  19  26
ATOM     26  C   UNL     1       7.907  -3.664   8.702  0.00  0.00    +0.090 C 
ATOM     27  N   UNL     1       8.970  -4.032   8.867  0.00  0.00    -0.194 NA
ENDBRANCH  19  26
ENDBRANCH  17  19
ENDBRANCH   5  15
BRANCH   1  28
ATOM     28  C   UNL     1       4.367  -0.920   1.327  0.00  0.00    +0.100 C 
BRANCH  28  29
ATOM     29  C   UNL     1       3.947  -0.665  -0.122  0.00  0.00    +0.044 C 
BRANCH  29  33
ATOM     30  C   UNL     1       0.366   1.662  -0.182  0.00  0.00    +0.000 A 
ATOM     31  C   UNL     1       1.598   2.289  -0.183  0.00  0.00    +0.000 A 
ATOM     32  C   UNL     1       2.757   1.536  -0.164  0.00  0.00    +0.003 A 
ATOM     33  C   UNL     1       2.684   0.156  -0.142  0.00  0.00    -0.047 A 
ATOM     34  C   UNL     1       1.452  -0.471  -0.140  0.00  0.00    +0.003 A 
ATOM     35  C   UNL     1       0.293   0.282  -0.161  0.00  0.00    +0.000 A 
ENDBRANCH  29  33
ENDBRANCH  28  29
ENDBRANCH   1  28
TORSDOF 7
