REMARK  Name = ZINC02754131
REMARK  8 active torsions:
REMARK  status: ('A' for Active; 'I' for Inactive)
REMARK    1  A    between atoms: C_1  and  C_2
REMARK    2  A    between atoms: C_2  and  C_3
REMARK    3  A    between atoms: C_2  and  C_4
REMARK    4  A    between atoms: C_2  and  C_5
REMARK    5  A    between atoms: C_12  and  N_17
REMARK    6  A    between atoms: C_13  and  C_14
REMARK    7  A    between atoms: C_18  and  C_20
REMARK    8  A    between atoms: C_25  and  N_26
REMARK                            x       y       z     vdW  Elec       q    Type
REMARK                         _______ _______ _______ _____ _____    ______ ____
ROOT
ATOM      1  C   UNL     1       0.971   1.274   1.646  0.00  0.00    -0.000 C 
ATOM      2  C   UNL     1       1.347   2.758   1.645  0.00  0.00    +0.009 C 
ATOM      3  C   UNL     1       0.381   3.541   2.535  0.00  0.00    +0.037 C 
ATOM      4  C   UNL     1       0.319   2.872   3.902  0.00  0.00    -0.023 A 
ATOM      5  C   UNL     1       0.735   1.598   4.073  0.00  0.00    -0.004 A 
ATOM      6  S   UNL     1       0.477   1.265   5.793  0.00  0.00    -0.077 S 
ATOM      7  C   UNL     1      -0.173   2.795   6.280  0.00  0.00    +0.085 A 
ATOM      8  C   UNL     1      -0.176   3.527   5.101  0.00  0.00    +0.068 A 
ATOM      9  C   UNL     1       1.289   0.681   3.027  0.00  0.00    +0.046 C 
ENDROOT
BRANCH   8  10
ATOM     10  C   UNL     1      -0.661   4.910   5.066  0.00  0.00    +0.244 C 
ATOM     11  O   UNL     1       0.110   5.831   5.265  0.00  0.00    -0.270 OA
ATOM     12  N   UNL     1      -1.961   5.162   4.814  0.00  0.00    -0.325 N 
ATOM     13  H   UNL     1      -2.576   4.429   4.655  0.00  0.00    +0.145 HD
ATOM     14  H   UNL     1      -2.282   6.077   4.791  0.00  0.00    +0.145 HD
ENDBRANCH   8  10
BRANCH   1  16
ATOM     15  C   UNL     1       1.405  -0.945   0.583  0.00  0.00    +0.011 C 
ATOM     16  C   UNL     1       1.778   0.539   0.574  0.00  0.00    -0.035 C 
ATOM     17  C   UNL     1       3.272   0.691   0.867  0.00  0.00    +0.011 C 
ATOM     18  C   UNL     1       1.464   1.135  -0.799  0.00  0.00    +0.011 C 
ENDBRANCH   1  16
BRANCH   7  19
ATOM     19  N   UNL     1      -0.590   3.191   7.540  0.00  0.00    -0.275 N 
ATOM     20  C   UNL     1      -0.511   2.333   8.577  0.00  0.00    +0.251 C 
ATOM     21  O   UNL     1      -0.074   1.212   8.405  0.00  0.00    -0.270 OA
ATOM     22  H   UNL     1      -0.939   4.086   7.677  0.00  0.00    +0.156 HD
BRANCH  20  23
ATOM     23  C   UNL     1      -0.956   2.756   9.921  0.00  0.00    +0.069 A 
ATOM     24  C   UNL     1      -0.429   3.910  10.503  0.00  0.00    +0.035 A 
ATOM     25  C   UNL     1      -0.849   4.299  11.760  0.00  0.00    +0.042 A 
ATOM     26  C   UNL     1      -1.790   3.546  12.442  0.00  0.00    +0.022 A 
ATOM     27  C   UNL     1      -2.315   2.401  11.870  0.00  0.00    +0.035 A 
ATOM     28  C   UNL     1      -1.909   2.005  10.613  0.00  0.00    +0.138 A 
ATOM     29 CL   UNL     1      -0.196   5.734  12.485  0.00  0.00    -0.084 Cl
BRANCH  28  30
ATOM     30  N   UNL     1      -2.477   0.783  10.000  0.00  0.00    +0.057 N 
ATOM     31  O   UNL     1      -3.212   0.062  10.650  0.00  0.00    -0.126 OA
ATOM     32  O   UNL     1      -2.209   0.499   8.846  0.00  0.00    -0.126 OA
ENDBRANCH  28  30
ENDBRANCH  20  23
ENDBRANCH   7  19
TORSDOF 5
