REMARK  Name = ZINC39662283
REMARK  7 active torsions:
REMARK  status: ('A' for Active; 'I' for Inactive)
REMARK    1  A    between atoms: C_4  and  C_7
REMARK    2  A    between atoms: C_7  and  C_9
REMARK    3  A    between atoms: C_7  and  N_11
REMARK    4  A    between atoms: C_12  and  C_14
REMARK    5  A    between atoms: C_25  and  C_27
REMARK    6  A    between atoms: C_27  and  C_28
REMARK    7  A    between atoms: C_28  and  C_29
REMARK                            x       y       z     vdW  Elec       q    Type
REMARK                         _______ _______ _______ _____ _____    ______ ____
ROOT
ATOM      1  C   UNL     1       4.668  -3.585   2.299  0.00  0.00    +0.100 C 
ATOM      2  C   UNL     1       3.954  -3.212   3.618  0.00  0.00    +0.121 C 
ATOM      3  N   UNL     1       4.675  -3.977   4.662  0.00  0.00    -0.300 N 
ATOM      4  C   UNL     1       6.100  -3.897   4.261  0.00  0.00    +0.115 C 
ATOM      5  C   UNL     1       6.076  -4.033   2.725  0.00  0.00    -0.004 C 
ATOM      6  C   UNL     1       7.131  -3.125   2.099  0.00  0.00    -0.010 C 
ATOM      7  C   UNL     1       8.525  -3.626   2.490  0.00  0.00    -0.082 C 
ATOM      8  N   UNL     1       8.700  -5.006   2.024  0.00  0.00    +0.379 N 
ATOM      9  C   UNL     1       7.741  -5.888   2.701  0.00  0.00    -0.082 C 
ATOM     10  C   UNL     1       6.314  -5.484   2.319  0.00  0.00    -0.010 C 
ATOM     11  C   UNL     1       4.153  -4.604   5.736  0.00  0.00    +0.216 C 
ATOM     12  O   UNL     1       4.881  -5.192   6.507  0.00  0.00    -0.276 OA
ATOM     13  H   UNL     1       8.545  -5.046   1.028  0.00  0.00    -0.086 HD
ATOM     14  H   UNL     1       9.639  -5.313   2.228  0.00  0.00    -0.086 HD
ENDROOT
BRANCH   1  16
ATOM     15  N   UNL     1       4.779  -2.553   0.054  0.00  0.00    -0.296 N 
ATOM     16  C   UNL     1       4.751  -2.385   1.391  0.00  0.00    +0.219 C 
ATOM     17  O   UNL     1       4.794  -1.269   1.863  0.00  0.00    -0.275 OA
ATOM     18  H   UNL     1       4.745  -3.445  -0.324  0.00  0.00    +0.150 HD
BRANCH  15  19
ATOM     19  C   UNL     1       4.860  -1.386  -0.829  0.00  0.00    +0.207 C 
BRANCH  19  23
ATOM     20  C   UNL     1       3.209  -2.370  -4.645  0.00  0.00    +0.000 A 
ATOM     21  C   UNL     1       2.961  -1.131  -4.083  0.00  0.00    +0.000 A 
ATOM     22  C   UNL     1       3.495  -0.813  -2.848  0.00  0.00    +0.006 A 
ATOM     23  C   UNL     1       4.277  -1.734  -2.175  0.00  0.00    -0.013 A 
ATOM     24  C   UNL     1       4.524  -2.972  -2.736  0.00  0.00    +0.006 A 
ATOM     25  C   UNL     1       3.991  -3.290  -3.972  0.00  0.00    +0.000 A 
ENDBRANCH  19  23
BRANCH  19  26
ATOM     26  C   UNL     1       6.268  -0.991  -0.992  0.00  0.00    +0.090 C 
ATOM     27  N   UNL     1       7.355  -0.686  -1.117  0.00  0.00    -0.194 NA
ENDBRANCH  19  26
ENDBRANCH  15  19
ENDBRANCH   1  16
BRANCH  11  28
ATOM     28  C   UNL     1       2.666  -4.573   5.977  0.00  0.00    +0.096 C 
BRANCH  28  29
ATOM     29  C   UNL     1       2.340  -5.354   7.251  0.00  0.00    +0.013 C 
BRANCH  29  30
ATOM     30  C   UNL     1       0.830  -5.323   7.496  0.00  0.00    -0.011 C 
ATOM     31  C   UNL     1       0.382  -3.891   7.852  0.00  0.00    +0.003 C 
ATOM     32  C   UNL     1      -0.721  -4.092   8.921  0.00  0.00    +0.000 C 
ATOM     33  C   UNL     1      -0.179  -5.282   9.751  0.00  0.00    +0.000 C 
ATOM     34  C   UNL     1       0.473  -6.208   8.704  0.00  0.00    +0.003 C 
ENDBRANCH  29  30
ENDBRANCH  28  29
ENDBRANCH  11  28
TORSDOF 7
