REMARK  Name = ZINC00713669
REMARK  3 active torsions:
REMARK  status: ('A' for Active; 'I' for Inactive)
REMARK    1  A    between atoms: N_9  and  C_22
REMARK    2  A    between atoms: C_10  and  C_13
REMARK    3  A    between atoms: C_17  and  N_19
REMARK                            x       y       z     vdW  Elec       q    Type
REMARK                         _______ _______ _______ _____ _____    ______ ____
ROOT
ATOM      1  C   UNL     1       1.206   5.935  -4.786  0.00  0.00    +0.001 A 
ATOM      2  C   UNL     1       2.387   5.761  -4.082  0.00  0.00    +0.002 A 
ATOM      3  C   UNL     1       2.380   5.699  -2.702  0.00  0.00    +0.024 A 
ATOM      4  C   UNL     1       1.181   5.809  -2.017  0.00  0.00    +0.041 A 
ATOM      5  C   UNL     1      -0.021   5.969  -2.729  0.00  0.00    +0.058 A 
ATOM      6  C   UNL     1       0.003   6.042  -4.120  0.00  0.00    +0.015 A 
ATOM      7  C   UNL     1      -1.280   6.073  -1.970  0.00  0.00    +0.254 C 
ATOM      8  O   UNL     1      -2.311   6.387  -2.534  0.00  0.00    -0.270 OA
ATOM      9  N   UNL     1      -1.279   5.819  -0.646  0.00  0.00    -0.244 N 
ATOM     10  C   UNL     1      -0.092   5.281   0.020  0.00  0.00    +0.198 C 
ATOM     11  N   UNL     1       1.126   5.782  -0.628  0.00  0.00    -0.321 N 
ATOM     12  H   UNL     1       1.878   6.088  -0.098  0.00  0.00    +0.148 HD
ENDROOT
BRANCH   9  13
ATOM     13  C   UNL     1      -2.432   6.074   0.103  0.00  0.00    +0.039 A 
ATOM     14  C   UNL     1      -3.630   5.458  -0.232  0.00  0.00    +0.024 A 
ATOM     15  C   UNL     1      -4.766   5.708   0.514  0.00  0.00    +0.017 A 
ATOM     16  C   UNL     1      -4.712   6.579   1.587  0.00  0.00    +0.018 A 
ATOM     17  C   UNL     1      -3.521   7.199   1.920  0.00  0.00    +0.017 A 
ATOM     18  C   UNL     1      -2.381   6.949   1.181  0.00  0.00    +0.024 A 
ATOM     19 BR   UNL     1      -6.271   6.924   2.601  0.00  0.00    -0.050 Br
ENDBRANCH   9  13
BRANCH  10  20
ATOM     20  C   UNL     1      -0.116   3.776  -0.057  0.00  0.00    -0.007 A 
ATOM     21  C   UNL     1      -1.324   3.105  -0.094  0.00  0.00    +0.007 A 
ATOM     22  C   UNL     1      -1.346   1.725  -0.169  0.00  0.00    +0.003 A 
ATOM     23  C   UNL     1      -0.160   1.015  -0.198  0.00  0.00    +0.033 A 
ATOM     24  C   UNL     1       1.048   1.687  -0.162  0.00  0.00    +0.127 A 
ATOM     25  C   UNL     1       1.070   3.067  -0.091  0.00  0.00    +0.039 A 
BRANCH  24  26
ATOM     26  N   UNL     1       2.318   0.927  -0.198  0.00  0.00    +0.056 N 
ATOM     27  O   UNL     1       2.299  -0.289  -0.260  0.00  0.00    -0.126 OA
ATOM     28  O   UNL     1       3.382   1.519  -0.167  0.00  0.00    -0.126 OA
ENDBRANCH  24  26
ENDBRANCH  10  20
TORSDOF 3
