REMARK  Name = ZINC10157836
REMARK  3 active torsions:
REMARK  status: ('A' for Active; 'I' for Inactive)
REMARK    1  A    between atoms: C_2  and  C_3
REMARK    2  A    between atoms: C_3  and  N_4
REMARK    3  A    between atoms: N_25  and  C_26
REMARK                            x       y       z     vdW  Elec       q    Type
REMARK                         _______ _______ _______ _____ _____    ______ ____
ROOT
ATOM      1  N   UNL     1      -2.705   3.335  -0.687  0.00  0.00    -0.263 N 
ATOM      2  C   UNL     1      -2.008   3.392  -1.881  0.00  0.00    +0.045 A 
ATOM      3  C   UNL     1      -0.711   2.963  -2.171  0.00  0.00    +0.024 A 
ATOM      4  C   UNL     1      -0.259   3.144  -3.469  0.00  0.00    +0.002 A 
ATOM      5  C   UNL     1      -1.047   3.722  -4.443  0.00  0.00    +0.001 A 
ATOM      6  C   UNL     1      -2.343   4.145  -4.170  0.00  0.00    +0.010 A 
ATOM      7  C   UNL     1      -2.798   3.974  -2.880  0.00  0.00    +0.034 A 
ATOM      8  C   UNL     1      -4.101   4.317  -2.233  0.00  0.00    +0.250 C 
ATOM      9  C   UNL     1      -3.944   3.858  -0.800  0.00  0.00    +0.276 C 
ATOM     10  O   UNL     1      -4.774   3.944   0.080  0.00  0.00    -0.270 OA
ATOM     11  N   UNL     1      -4.348   5.761  -2.274  0.00  0.00    -0.214 N 
ATOM     12  C   UNL     1      -4.880   6.301  -3.457  0.00  0.00    +0.047 A 
ATOM     13  C   UNL     1      -4.906   7.675  -3.645  0.00  0.00    +0.024 A 
ATOM     14  C   UNL     1      -5.443   8.199  -4.806  0.00  0.00    +0.002 A 
ATOM     15  C   UNL     1      -5.951   7.353  -5.774  0.00  0.00    +0.000 A 
ATOM     16  C   UNL     1      -5.924   5.983  -5.588  0.00  0.00    +0.008 A 
ATOM     17  C   UNL     1      -5.387   5.451  -4.429  0.00  0.00    -0.000 A 
ATOM     18  C   UNL     1      -5.357   3.958  -4.238  0.00  0.00    +0.200 C 
ATOM     19  O   UNL     1      -5.188   3.636  -2.856  0.00  0.00    -0.339 OA
ATOM     20  C   UNL     1      -4.073   6.545  -1.213  0.00  0.00    +0.310 C 
ATOM     21  O   UNL     1      -4.427   7.709  -1.209  0.00  0.00    -0.252 OA
ATOM     22  N   UNL     1      -3.405   6.040  -0.157  0.00  0.00    -0.296 N 
ATOM     23  H   UNL     1      -3.025   5.149  -0.205  0.00  0.00    +0.151 HD
ENDROOT
BRANCH  22  24
ATOM     24  C   UNL     1      -3.253   6.837   1.063  0.00  0.00    +0.074 C 
ATOM     25  C   UNL     1      -2.039   7.758   0.922  0.00  0.00    +0.022 C 
ATOM     26  C   UNL     1      -1.880   8.590   2.196  0.00  0.00    +0.002 C 
ATOM     27  C   UNL     1      -1.677   7.658   3.392  0.00  0.00    +0.000 C 
ATOM     28  C   UNL     1      -2.891   6.737   3.533  0.00  0.00    +0.002 C 
ATOM     29  C   UNL     1      -3.050   5.905   2.259  0.00  0.00    +0.022 C 
ENDBRANCH  22  24
BRANCH   1  30
ATOM     30  C   UNL     1      -2.161   2.779   0.554  0.00  0.00    +0.140 C 
BRANCH  30  32
ATOM     31  C   UNL     1      -1.520   0.435   0.797  0.00  0.00    +0.005 C 
ATOM     32  C   UNL     1      -2.482   1.308   0.629  0.00  0.00    -0.015 C 
ENDBRANCH  30  32
ENDBRANCH   1  30
TORSDOF 3
