REMARK  Name = ZINC19615731
REMARK  12 active torsions:
REMARK  status: ('A' for Active; 'I' for Inactive)
REMARK    1  A    between atoms: C_1  and  C_2
REMARK    2  A    between atoms: C_4  and  C_30
REMARK    3  A    between atoms: C_5  and  N_9
REMARK    4  A    between atoms: C_10  and  C_12
REMARK    5  A    between atoms: C_12  and  O_13
REMARK    6  A    between atoms: O_13  and  C_14
REMARK    7  A    between atoms: C_14  and  C_16
REMARK    8  A    between atoms: C_16  and  C_17
REMARK    9  A    between atoms: C_18  and  C_29
REMARK   10  A    between atoms: C_22  and  S_27
REMARK   11  A    between atoms: C_25  and  C_26
REMARK   12  A    between atoms: S_27  and  C_28
REMARK                            x       y       z     vdW  Elec       q    Type
REMARK                         _______ _______ _______ _____ _____    ______ ____
ROOT
ATOM      1  C   UNL     1       6.729   3.689  -3.237  0.00  0.00    +0.312 C 
ATOM      2  O   UNL     1       5.572   3.366  -3.359  0.00  0.00    -0.250 OA
ENDROOT
BRANCH   1   3
ATOM      3  O   UNL     1       7.096   4.963  -3.444  0.00  0.00    -0.455 OA
BRANCH   3   4
ATOM      4  C   UNL     1       6.049   5.899  -3.812  0.00  0.00    +0.328 C 
BRANCH   4   6
ATOM      5  N   UNL     1       5.856   8.306  -4.348  0.00  0.00    -0.281 N 
ATOM      6  C   UNL     1       6.645   7.271  -4.002  0.00  0.00    +0.255 C 
ATOM      7  O   UNL     1       7.835   7.442  -3.842  0.00  0.00    -0.272 OA
ATOM      8  H   UNL     1       4.793   8.136  -4.574  0.00  0.00    +0.155 HD
BRANCH   5  13
ATOM      9  C   UNL     1       8.015  13.545  -4.648  0.00  0.00    +0.044 C 
ATOM     10  C   UNL     1       7.441  12.154  -4.568  0.00  0.00    -0.049 A 
ATOM     11  C   UNL     1       7.379  11.367  -5.703  0.00  0.00    +0.008 A 
ATOM     12  C   UNL     1       6.854  10.091  -5.634  0.00  0.00    -0.028 A 
ATOM     13  C   UNL     1       6.389   9.599  -4.422  0.00  0.00    +0.055 A 
ATOM     14  C   UNL     1       6.448  10.393  -3.284  0.00  0.00    +0.063 A 
ATOM     15  C   UNL     1       6.979  11.667  -3.359  0.00  0.00    +0.025 A 
ATOM     16 CL   UNL     1       5.861   9.785  -1.767  0.00  0.00    -0.082 Cl
ATOM     17  C   UNL     1       6.788   9.235  -6.872  0.00  0.00    +0.046 C 
ENDBRANCH   5  13
ENDBRANCH   4   6
ENDBRANCH   3   4
ENDBRANCH   1   3
BRANCH   1  18
ATOM     18  C   UNL     1       7.761   2.661  -2.852  0.00  0.00    +0.159 C 
BRANCH  18  19
ATOM     19  C   UNL     1       7.095   1.320  -2.680  0.00  0.00    +0.005 A 
ATOM     20  C   UNL     1       6.974   0.446  -3.766  0.00  0.00    +0.047 A 
ATOM     21  N   UNL     1       6.393  -0.723  -3.614  0.00  0.00    -0.216 NA
ATOM     22  C   UNL     1       5.908  -1.100  -2.425  0.00  0.00    +0.254 A 
ATOM     23  N   UNL     1       5.290  -2.204  -2.019  0.00  0.00    -0.183 NA
ATOM     24  C   UNL     1       4.997  -2.104  -0.724  0.00  0.00    +0.211 A 
ATOM     25  N   UNL     1       5.417  -0.941  -0.268  0.00  0.00    -0.137 NA
ATOM     26  N   UNL     1       6.011  -0.269  -1.345  0.00  0.00    -0.200 N 
ATOM     27  C   UNL     1       6.606   0.946  -1.469  0.00  0.00    +0.049 A 
ATOM     28  C   UNL     1       6.721   1.865  -0.281  0.00  0.00    +0.066 C 
ATOM     29  C   UNL     1       7.512   0.846  -5.115  0.00  0.00    +0.066 C 
BRANCH  24  30
ATOM     30  S   UNL     1       4.176  -3.336   0.232  0.00  0.00    -0.088 S 
ATOM     31  C   UNL     1       3.865  -4.675  -0.952  0.00  0.00    +0.093 C 
ENDBRANCH  24  30
ENDBRANCH  18  19
ENDBRANCH   1  18
TORSDOF 7
