REMARK  Name = ZINC00656335
REMARK  8 active torsions:
REMARK  status: ('A' for Active; 'I' for Inactive)
REMARK    1  A    between atoms: C_1  and  C_2
REMARK    2  A    between atoms: C_4  and  N_9
REMARK    3  A    between atoms: C_6  and  C_8
REMARK    4  A    between atoms: N_9  and  S_10
REMARK    5  A    between atoms: S_10  and  C_13
REMARK    6  A    between atoms: C_16  and  N_19
REMARK    7  A    between atoms: C_20  and  C_22
REMARK    8  A    between atoms: C_23  and  C_24
REMARK                            x       y       z     vdW  Elec       q    Type
REMARK                         _______ _______ _______ _____ _____    ______ ____
ROOT
ATOM      1  C   UNL     1      -7.107  -0.622   0.301  0.00  0.00    +0.109 A 
ATOM      2  C   UNL     1      -7.185   0.756   0.213  0.00  0.00    +0.030 A 
ATOM      3  C   UNL     1      -6.032   1.510   0.123  0.00  0.00    +0.025 A 
ATOM      4  C   UNL     1      -4.793   0.884   0.120  0.00  0.00    +0.034 A 
ATOM      5  C   UNL     1      -4.717  -0.501   0.202  0.00  0.00    +0.025 A 
ATOM      6  C   UNL     1      -5.874  -1.249   0.297  0.00  0.00    +0.030 A 
ENDROOT
BRANCH   4   7
ATOM      7  N   UNL     1      -3.623   1.645   0.028  0.00  0.00    -0.282 N 
ATOM      8  C   UNL     1      -3.558   2.854   0.620  0.00  0.00    +0.241 C 
ATOM      9  O   UNL     1      -4.543   3.320   1.162  0.00  0.00    -0.270 OA
ATOM     10  H   UNL     1      -2.859   1.302  -0.461  0.00  0.00    +0.155 HD
BRANCH   8  11
ATOM     11  C   UNL     1      -2.304   3.606   0.610  0.00  0.00    +0.068 C 
ATOM     12  C   UNL     1      -2.239   4.817   1.203  0.00  0.00    +0.013 C 
BRANCH  12  13
ATOM     13  C   UNL     1      -0.976   5.570   1.199  0.00  0.00    -0.021 A 
ATOM     14  C   UNL     1       0.158   5.036   0.576  0.00  0.00    +0.012 A 
ATOM     15  C   UNL     1       1.339   5.744   0.574  0.00  0.00    +0.050 A 
ATOM     16  C   UNL     1       1.411   6.988   1.188  0.00  0.00    +0.166 A 
ATOM     17  C   UNL     1       0.284   7.527   1.811  0.00  0.00    +0.167 A 
ATOM     18  C   UNL     1      -0.906   6.826   1.813  0.00  0.00    +0.057 A 
ATOM     19  O   UNL     1       0.615   8.745   2.332  0.00  0.00    -0.453 OA
ATOM     20  C   UNL     1       1.835   9.126   1.670  0.00  0.00    +0.466 C 
ATOM     21  O   UNL     1       2.443   7.869   1.321  0.00  0.00    -0.453 OA
ENDBRANCH  12  13
ENDBRANCH   8  11
ENDBRANCH   4   7
BRANCH   1  22
ATOM     22  S   UNL     1      -8.580  -1.581   0.416  0.00  0.00    +0.073 S 
ATOM     23  O   UNL     1      -8.219  -2.808   1.036  0.00  0.00    -0.150 OA
ATOM     24  O   UNL     1      -9.582  -0.725   0.948  0.00  0.00    -0.150 OA
BRANCH  22  25
ATOM     25  N   UNL     1      -9.046  -1.951  -1.129  0.00  0.00    -0.199 N 
ATOM     26  H   UNL     1      -9.879  -1.600  -1.482  0.00  0.00    +0.175 HD
BRANCH  25  30
ATOM     27  C   UNL     1      -8.165  -4.266  -5.383  0.00  0.00    +0.066 C 
ATOM     28  C   UNL     1      -7.798  -3.892  -3.970  0.00  0.00    +0.044 A 
ATOM     29  C   UNL     1      -8.632  -3.085  -3.221  0.00  0.00    +0.068 A 
ATOM     30  C   UNL     1      -8.247  -2.761  -1.919  0.00  0.00    +0.141 A 
ATOM     31  N   UNL     1      -7.103  -3.248  -1.446  0.00  0.00    -0.216 NA
ATOM     32  C   UNL     1      -6.340  -4.019  -2.194  0.00  0.00    +0.128 A 
ATOM     33  N   UNL     1      -6.673  -4.338  -3.429  0.00  0.00    -0.237 NA
ATOM     34  C   UNL     1      -5.051  -4.551  -1.623  0.00  0.00    +0.088 C 
ENDBRANCH  25  30
ENDBRANCH  22  25
ENDBRANCH   1  22
TORSDOF 6
