REMARK  Name = ZINC63374047
REMARK  5 active torsions:
REMARK  status: ('A' for Active; 'I' for Inactive)
REMARK    1  A    between atoms: C_1  and  O_2
REMARK    2  A    between atoms: O_2  and  C_3
REMARK    3  A    between atoms: C_10  and  C_18
REMARK    4  A    between atoms: N_24  and  C_27
REMARK    5  A    between atoms: C_27  and  C_28
REMARK                            x       y       z     vdW  Elec       q    Type
REMARK                         _______ _______ _______ _____ _____    ______ ____
ROOT
ATOM      1  C   UNL     1       0.606  -0.607  -1.056  0.00  0.00    +0.121 A 
ATOM      2  C   UNL     1       1.172   0.195  -2.062  0.00  0.00    +0.047 A 
ATOM      3  C   UNL     1       1.794  -0.326  -3.141  0.00  0.00    +0.029 A 
ATOM      4  C   UNL     1       1.895  -1.780  -3.294  0.00  0.00    +0.043 A 
ATOM      5  N   UNL     1       2.416  -2.527  -4.240  0.00  0.00    -0.376 N 
ATOM      6  C   UNL     1       2.317  -3.924  -3.831  0.00  0.00    +0.128 C 
ATOM      7  C   UNL     1       1.580  -4.788  -4.859  0.00  0.00    +0.121 C 
ATOM      8  N   UNL     1       1.276  -6.088  -4.239  0.00  0.00    -0.307 NA
ATOM      9  C   UNL     1       0.306  -5.993  -3.144  0.00  0.00    +0.086 C 
ATOM     10  C   UNL     1       0.903  -5.185  -1.977  0.00  0.00    +0.048 C 
ATOM     11  C   UNL     1       1.472  -3.914  -2.567  0.00  0.00    -0.035 C 
ATOM     12  C   UNL     1       1.289  -2.630  -2.238  0.00  0.00    +0.003 A 
ATOM     13  C   UNL     1       0.646  -1.960  -1.101  0.00  0.00    +0.055 A 
ATOM     14  H   UNL     1       0.976  -6.757  -4.931  0.00  0.00    +0.123 HD
ATOM     15  H   UNL     1       2.801  -2.205  -5.070  0.00  0.00    +0.160 HD
ENDROOT
BRANCH   7  16
ATOM     16  C   UNL     1       2.454  -4.994  -6.069  0.00  0.00    +0.100 A 
ATOM     17  H   UNL     1       2.650  -4.315  -9.230  0.00  0.00    +0.173 HD
ATOM     18  C   UNL     1       2.092  -4.479  -7.279  0.00  0.00    +0.263 A 
ATOM     19  N   UNL     1       2.903  -4.679  -8.367  0.00  0.00    -0.274 N 
ATOM     20  C   UNL     1       4.047  -5.377  -8.246  0.00  0.00    +0.332 A 
ATOM     21  O   UNL     1       4.753  -5.544  -9.222  0.00  0.00    -0.246 OA
ATOM     22  N   UNL     1       4.422  -5.892  -7.061  0.00  0.00    -0.257 N 
ATOM     23  C   UNL     1       3.657  -5.714  -5.965  0.00  0.00    +0.265 A 
ATOM     24  O   UNL     1       4.003  -6.179  -4.893  0.00  0.00    -0.267 OA
ATOM     25  O   UNL     1       0.945  -3.780  -7.404  0.00  0.00    -0.267 OA
BRANCH  22  26
ATOM     26  C   UNL     1       5.673  -6.648  -6.960  0.00  0.00    +0.156 C 
BRANCH  26  27
ATOM     27  C   UNL     1       6.802  -5.707  -6.625  0.00  0.00    -0.013 C 
ATOM     28  C   UNL     1       7.554  -5.934  -5.576  0.00  0.00    +0.005 C 
ENDBRANCH  26  27
ENDBRANCH  22  26
ENDBRANCH   7  16
BRANCH   1  30
ATOM     29  C   UNL     1      -0.017   1.425   0.010  0.00  0.00    +0.277 C 
ATOM     30  O   UNL     1       0.002  -0.004   0.002  0.00  0.00    -0.495 OA
ENDBRANCH   1  30
TORSDOF 4
