REMARK  Name = ZINC13451673
REMARK  11 active torsions:
REMARK  status: ('A' for Active; 'I' for Inactive)
REMARK    1  A    between atoms: C_1  and  C_2
REMARK    2  A    between atoms: C_2  and  N_3
REMARK    3  A    between atoms: N_3  and  C_4
REMARK    4  A    between atoms: N_3  and  S_6
REMARK    5  A    between atoms: C_4  and  C_5
REMARK    6  A    between atoms: S_6  and  C_9
REMARK    7  A    between atoms: C_15  and  S_18
REMARK    8  A    between atoms: S_18  and  C_19
REMARK    9  A    between atoms: C_19  and  C_20
REMARK   10  A    between atoms: N_22  and  C_23
REMARK   11  A    between atoms: C_28  and  C_29
REMARK                            x       y       z     vdW  Elec       q    Type
REMARK                         _______ _______ _______ _____ _____    ______ ____
ROOT
ATOM      1  C   UNL     1      -1.084   1.816   6.217  0.00  0.00    +0.122 A 
ATOM      2  C   UNL     1      -0.082   1.109   6.908  0.00  0.00    +0.033 A 
ATOM      3  C   UNL     1       0.873   0.437   6.213  0.00  0.00    +0.050 A 
ATOM      4  C   UNL     1       0.844   0.460   4.804  0.00  0.00    +0.162 A 
ATOM      5  N   UNL     1       1.607  -0.077   3.870  0.00  0.00    -0.129 NA
ATOM      6  N   UNL     1       1.155   0.237   2.707  0.00  0.00    -0.122 NA
ATOM      7  C   UNL     1       0.089   0.996   2.822  0.00  0.00    +0.196 A 
ATOM      8  N   UNL     1      -0.150   1.161   4.155  0.00  0.00    -0.276 N 
ATOM      9  C   UNL     1      -1.103   1.832   4.869  0.00  0.00    +0.123 A 
ENDROOT
BRANCH   1  10
ATOM     10  S   UNL     1      -2.321   2.687   7.120  0.00  0.00    +0.062 S 
ATOM     11  O   UNL     1      -3.445   2.807   6.258  0.00  0.00    -0.153 OA
ATOM     12  O   UNL     1      -2.403   2.069   8.397  0.00  0.00    -0.153 OA
BRANCH  10  13
ATOM     13  N   UNL     1      -1.753   4.222   7.373  0.00  0.00    -0.177 NA
BRANCH  13  15
ATOM     14  C   UNL     1      -3.275   6.058   6.829  0.00  0.00    +0.022 C 
ATOM     15  C   UNL     1      -2.033   5.277   6.396  0.00  0.00    +0.106 C 
ENDBRANCH  13  15
BRANCH  13  16
ATOM     16  C   UNL     1      -0.972   4.525   8.575  0.00  0.00    +0.106 C 
ATOM     17  C   UNL     1       0.520   4.419   8.253  0.00  0.00    +0.022 C 
ENDBRANCH  13  16
ENDBRANCH  10  13
ENDBRANCH   1  10
BRANCH   7  18
ATOM     18  S   UNL     1      -0.862   1.668   1.500  0.00  0.00    -0.076 S 
BRANCH  18  19
ATOM     19  C   UNL     1      -0.018   1.076   0.007  0.00  0.00    +0.173 C 
BRANCH  19  20
ATOM     20  C   UNL     1      -0.740   1.586  -1.213  0.00  0.00    +0.228 C 
ATOM     21  O   UNL     1      -1.726   2.280  -1.089  0.00  0.00    -0.275 OA
ATOM     22  N   UNL     1      -0.289   1.270  -2.444  0.00  0.00    -0.284 N 
ATOM     23  H   UNL     1       0.544   0.783  -2.545  0.00  0.00    +0.155 HD
BRANCH  22  24
ATOM     24  C   UNL     1      -1.018   1.644  -3.570  0.00  0.00    +0.048 A 
ATOM     25  C   UNL     1      -2.388   1.850  -3.477  0.00  0.00    +0.025 A 
ATOM     26  C   UNL     1      -3.110   2.221  -4.593  0.00  0.00    +0.022 A 
ATOM     27  C   UNL     1      -2.475   2.390  -5.814  0.00  0.00    +0.042 A 
ATOM     28  C   UNL     1      -1.115   2.189  -5.926  0.00  0.00    +0.037 A 
ATOM     29  C   UNL     1      -0.372   1.819  -4.803  0.00  0.00    +0.086 A 
ATOM     30 CL   UNL     1      -3.397   2.857  -7.210  0.00  0.00    -0.084 Cl
BRANCH  29  31
ATOM     31  C   UNL     1       1.083   1.608  -4.913  0.00  0.00    +0.388 C 
ATOM     32  O   UNL     1       1.711   1.196  -3.958  0.00  0.00    -0.241 OA
ATOM     33  O   UNL     1       1.716   1.873  -6.073  0.00  0.00    -0.241 OA
ENDBRANCH  29  31
ENDBRANCH  22  24
ENDBRANCH  19  20
ENDBRANCH  18  19
ENDBRANCH   7  18
TORSDOF 9
