REMARK  Name = ZINC00956649
REMARK  6 active torsions:
REMARK  status: ('A' for Active; 'I' for Inactive)
REMARK    1  A    between atoms: C_1  and  C_2
REMARK    2  A    between atoms: C_3  and  C_26
REMARK    3  A    between atoms: C_4  and  C_12
REMARK    4  A    between atoms: C_15  and  O_18
REMARK    5  A    between atoms: O_18  and  C_19
REMARK    6  A    between atoms: C_19  and  C_20
REMARK                            x       y       z     vdW  Elec       q    Type
REMARK                         _______ _______ _______ _____ _____    ______ ____
ROOT
ATOM      1  C   UNL     1       0.638   1.238   0.151  0.00  0.00    +0.066 C 
ATOM      2  C   UNL     1       0.387  -0.245   0.057  0.00  0.00    +0.052 C 
ATOM      3  C   UNL     1      -0.883  -0.689  -0.180  0.00  0.00    +0.061 C 
ATOM      4  C   UNL     1      -1.088  -2.192  -0.267  0.00  0.00    +0.164 C 
ATOM      5  N   UNL     1       0.111  -3.017  -0.084  0.00  0.00    -0.208 N 
ATOM      6  C   UNL     1       1.315  -2.398   0.148  0.00  0.00    +0.237 C 
ATOM      7  N   UNL     1       1.406  -1.080   0.203  0.00  0.00    -0.218 NA
ATOM      8  N   UNL     1       2.239  -3.369   0.277  0.00  0.00    -0.205 NA
ATOM      9  C   UNL     1       1.683  -4.545   0.140  0.00  0.00    +0.203 C 
ATOM     10  N   UNL     1       0.357  -4.392  -0.087  0.00  0.00    -0.251 N 
ATOM     11  H   UNL     1      -0.293  -5.098  -0.225  0.00  0.00    +0.171 HD
ENDROOT
BRANCH   4  12
ATOM     12  C   UNL     1      -1.670  -2.509  -1.620  0.00  0.00    -0.021 A 
ATOM     13  C   UNL     1      -0.886  -2.396  -2.753  0.00  0.00    +0.009 A 
ATOM     14  C   UNL     1      -1.417  -2.687  -3.994  0.00  0.00    +0.046 A 
ATOM     15  C   UNL     1      -2.740  -3.092  -4.104  0.00  0.00    +0.121 A 
ATOM     16  C   UNL     1      -3.525  -3.205  -2.965  0.00  0.00    +0.046 A 
ATOM     17  C   UNL     1      -2.987  -2.919  -1.726  0.00  0.00    +0.009 A 
BRANCH  15  18
ATOM     18  O   UNL     1      -3.265  -3.378  -5.324  0.00  0.00    -0.487 OA
BRANCH  18  19
ATOM     19  C   UNL     1      -4.633  -3.789  -5.361  0.00  0.00    +0.264 C 
BRANCH  19  20
ATOM     20  C   UNL     1      -5.038  -4.061  -6.787  0.00  0.00    -0.010 A 
ATOM     21  C   UNL     1      -5.558  -3.042  -7.564  0.00  0.00    +0.007 A 
ATOM     22  C   UNL     1      -5.929  -3.291  -8.872  0.00  0.00    +0.000 A 
ATOM     23  C   UNL     1      -5.779  -4.558  -9.403  0.00  0.00    +0.000 A 
ATOM     24  C   UNL     1      -5.258  -5.576  -8.627  0.00  0.00    +0.000 A 
ATOM     25  C   UNL     1      -4.883  -5.327  -7.320  0.00  0.00    +0.007 A 
ENDBRANCH  19  20
ENDBRANCH  18  19
ENDBRANCH  15  18
ENDBRANCH   4  12
BRANCH   3  26
ATOM     26  C   UNL     1      -1.956   0.208  -0.338  0.00  0.00    +0.241 C 
ATOM     27  O   UNL     1      -1.746   1.408  -0.378  0.00  0.00    -0.271 OA
ATOM     28  N   UNL     1      -3.216  -0.260  -0.444  0.00  0.00    -0.325 N 
ATOM     29  H   UNL     1      -3.392  -1.208  -0.335  0.00  0.00    +0.145 HD
ATOM     30  H   UNL     1      -3.946   0.351  -0.629  0.00  0.00    +0.145 HD
ENDBRANCH   3  26
TORSDOF 5
