REMARK  Name = ZINC04779214
REMARK  8 active torsions:
REMARK  status: ('A' for Active; 'I' for Inactive)
REMARK    1  A    between atoms: C_1  and  C_2
REMARK    2  A    between atoms: C_8  and  N_10
REMARK    3  A    between atoms: C_11  and  C_13
REMARK    4  A    between atoms: C_13  and  O_14
REMARK    5  A    between atoms: O_14  and  C_15
REMARK    6  A    between atoms: C_15  and  C_17
REMARK    7  A    between atoms: C_20  and  C_22
REMARK    8  A    between atoms: C_25  and  N_28
REMARK                            x       y       z     vdW  Elec       q    Type
REMARK                         _______ _______ _______ _____ _____    ______ ____
ROOT
ATOM      1  C   UNL     1      -3.657   1.500   0.028  0.00  0.00    +0.375 C 
ATOM      2  O   UNL     1      -3.833   2.703   0.035  0.00  0.00    -0.241 OA
ENDROOT
BRANCH   1   3
ATOM      3  C   UNL     1      -4.805   0.593   0.028  0.00  0.00    +0.212 A 
ATOM      4  C   UNL     1      -6.132   0.966   0.036  0.00  0.00    +0.057 A 
ATOM      5  C   UNL     1      -6.883  -0.213   0.034  0.00  0.00    +0.051 A 
ATOM      6  C   UNL     1      -5.998  -1.253   0.024  0.00  0.00    +0.136 A 
ATOM      7  O   UNL     1      -4.750  -0.756   0.015  0.00  0.00    -0.448 OA
BRANCH   6   8
ATOM      8  C   UNL     1      -6.354  -2.686   0.018  0.00  0.00    +0.017 A 
ATOM      9  C   UNL     1      -7.695  -3.076   0.028  0.00  0.00    +0.014 A 
ATOM     10  C   UNL     1      -8.021  -4.416   0.018  0.00  0.00    +0.033 A 
ATOM     11  C   UNL     1      -7.022  -5.374   0.007  0.00  0.00    +0.126 A 
ATOM     12  C   UNL     1      -5.691  -4.995   0.002  0.00  0.00    +0.033 A 
ATOM     13  C   UNL     1      -5.351  -3.658   0.008  0.00  0.00    +0.014 A 
BRANCH  11  14
ATOM     14  N   UNL     1      -7.379  -6.810   0.002  0.00  0.00    +0.056 N 
ATOM     15  O   UNL     1      -6.502  -7.656  -0.007  0.00  0.00    -0.126 OA
ATOM     16  O   UNL     1      -8.549  -7.147   0.006  0.00  0.00    -0.126 OA
ENDBRANCH  11  14
ENDBRANCH   6   8
ENDBRANCH   1   3
BRANCH   1  17
ATOM     17  O   UNL     1      -2.403   1.001   0.019  0.00  0.00    -0.450 OA
BRANCH  17  18
ATOM     18  C   UNL     1      -1.330   1.944   0.019  0.00  0.00    +0.328 C 
BRANCH  18  20
ATOM     19  N   UNL     1       1.143   1.898   0.001  0.00  0.00    -0.309 N 
ATOM     20  C   UNL     1      -0.014   1.209   0.009  0.00  0.00    +0.251 C 
ATOM     21  O   UNL     1       0.002  -0.004   0.002  0.00  0.00    -0.272 OA
ATOM     22  H   UNL     1       1.130   2.868   0.007  0.00  0.00    +0.149 HD
BRANCH  19  29
ATOM     23  C   UNL     1       3.141   2.423   2.032  0.00  0.00    +0.009 C 
ATOM     24  C   UNL     1       3.511   2.072   0.589  0.00  0.00    +0.006 C 
ATOM     25  C   UNL     1       4.846   1.325   0.573  0.00  0.00    +0.005 C 
ATOM     26  C   UNL     1       5.216   0.974  -0.870  0.00  0.00    +0.000 C 
ATOM     27  C   UNL     1       4.127   0.085  -1.474  0.00  0.00    +0.002 C 
ATOM     28  C   UNL     1       2.792   0.832  -1.457  0.00  0.00    +0.022 C 
ATOM     29  C   UNL     1       2.422   1.183  -0.015  0.00  0.00    +0.076 C 
ENDBRANCH  19  29
ENDBRANCH  18  20
ENDBRANCH  17  18
ENDBRANCH   1  17
TORSDOF 7
