REMARK  Name = ZINC35080553
REMARK  11 active torsions:
REMARK  status: ('A' for Active; 'I' for Inactive)
REMARK    1  A    between atoms: C_1  and  C_2
REMARK    2  A    between atoms: C_5  and  C_8
REMARK    3  A    between atoms: C_14  and  C_16
REMARK    4  A    between atoms: C_16  and  C_18
REMARK    5  A    between atoms: C_16  and  N_21
REMARK    6  A    between atoms: C_18  and  C_19
REMARK    7  A    between atoms: C_18  and  C_20
REMARK    8  A    between atoms: N_21  and  S_22
REMARK    9  A    between atoms: S_22  and  C_25
REMARK   10  A    between atoms: C_28  and  N_31
REMARK   11  A    between atoms: C_32  and  C_34
REMARK                            x       y       z     vdW  Elec       q    Type
REMARK                         _______ _______ _______ _____ _____    ______ ____
ROOT
ATOM      1  C   UNL     1       0.087 -10.371   0.386  0.00  0.00    +0.165 C 
ENDROOT
BRANCH   1   8
ATOM      2  C   UNL     1      -3.971  -5.514   0.611  0.00  0.00    +0.134 A 
ATOM      3  N   UNL     1      -3.336  -5.945  -0.472  0.00  0.00    -0.140 NA
ATOM      4  N   UNL     1      -2.569  -6.944  -0.372  0.00  0.00    -0.125 NA
ATOM      5  C   UNL     1      -2.382  -7.569   0.775  0.00  0.00    +0.188 A 
ATOM      6  S   UNL     1      -3.362  -6.680   1.821  0.00  0.00    -0.030 S 
ATOM      7  N   UNL     1      -1.581  -8.670   1.052  0.00  0.00    -0.262 N 
ATOM      8  C   UNL     1      -0.860  -9.243   0.067  0.00  0.00    +0.238 C 
ATOM      9  O   UNL     1      -0.974  -8.851  -1.075  0.00  0.00    -0.274 OA
ATOM     10  H   UNL     1      -1.541  -9.027   1.953  0.00  0.00    +0.157 HD
BRANCH   2  15
ATOM     11  C   UNL     1      -7.632  -1.119   1.238  0.00  0.00    +0.044 C 
ATOM     12  C   UNL     1      -6.674  -2.270   1.074  0.00  0.00    -0.050 A 
ATOM     13  C   UNL     1      -6.130  -2.542  -0.169  0.00  0.00    +0.004 A 
ATOM     14  C   UNL     1      -5.252  -3.594  -0.327  0.00  0.00    +0.011 A 
ATOM     15  C   UNL     1      -4.911  -4.385   0.772  0.00  0.00    +0.009 A 
ATOM     16  C   UNL     1      -5.463  -4.105   2.023  0.00  0.00    +0.011 A 
ATOM     17  C   UNL     1      -6.336  -3.047   2.168  0.00  0.00    +0.004 A 
ENDBRANCH   2  15
ENDBRANCH   1   8
BRANCH   1  18
ATOM     18  C   UNL     1       1.394  -9.798   0.938  0.00  0.00    +0.010 C 
ATOM     19  C   UNL     1       2.314 -10.944   1.363  0.00  0.00    +0.009 C 
ATOM     20  C   UNL     1       2.084  -8.965  -0.144  0.00  0.00    +0.009 C 
ENDBRANCH   1  18
BRANCH   1  21
ATOM     21  N   UNL     1       0.365 -11.134  -0.833  0.00  0.00    -0.178 NA
ATOM     22  H   UNL     1       0.839 -10.716  -1.569  0.00  0.00    +0.149 HD
BRANCH  21  23
ATOM     23  S   UNL     1      -0.129 -12.710  -0.954  0.00  0.00    +0.059 S 
ATOM     24  O   UNL     1       0.241 -13.153  -2.252  0.00  0.00    -0.153 OA
ATOM     25  O   UNL     1       0.309 -13.365   0.228  0.00  0.00    -0.153 OA
BRANCH  23  26
ATOM     26  C   UNL     1      -1.890 -12.708  -0.906  0.00  0.00    +0.105 A 
ATOM     27  C   UNL     1      -2.547 -12.804   0.307  0.00  0.00    +0.030 A 
ATOM     28  C   UNL     1      -3.928 -12.803   0.348  0.00  0.00    +0.025 A 
ATOM     29  C   UNL     1      -4.656 -12.706  -0.830  0.00  0.00    +0.033 A 
ATOM     30  C   UNL     1      -3.993 -12.609  -2.047  0.00  0.00    +0.025 A 
ATOM     31  C   UNL     1      -2.612 -12.606  -2.081  0.00  0.00    +0.030 A 
BRANCH  29  32
ATOM     32  N   UNL     1      -6.055 -12.705  -0.792  0.00  0.00    -0.286 N 
ATOM     33  C   UNL     1      -6.700 -12.165   0.261  0.00  0.00    +0.214 C 
ATOM     34  O   UNL     1      -6.073 -11.592   1.127  0.00  0.00    -0.276 OA
ATOM     35  C   UNL     1      -8.200 -12.271   0.361  0.00  0.00    +0.109 C 
ATOM     36  H   UNL     1      -6.560 -13.094  -1.523  0.00  0.00    +0.155 HD
ENDBRANCH  29  32
ENDBRANCH  23  26
ENDBRANCH  21  23
ENDBRANCH   1  21
TORSDOF 7
