REMARK  Name = ZINC13053613
REMARK  10 active torsions:
REMARK  status: ('A' for Active; 'I' for Inactive)
REMARK    1  A    between atoms: C_1  and  C_2
REMARK    2  A    between atoms: C_5  and  C_8
REMARK    3  A    between atoms: C_8  and  N_9
REMARK    4  A    between atoms: C_10  and  C_12
REMARK    5  A    between atoms: C_12  and  C_14
REMARK    6  A    between atoms: C_12  and  S_15
REMARK    7  A    between atoms: S_15  and  C_16
REMARK    8  A    between atoms: C_20  and  C_34
REMARK    9  A    between atoms: N_26  and  C_27
REMARK   10  A    between atoms: C_27  and  C_28
REMARK                            x       y       z     vdW  Elec       q    Type
REMARK                         _______ _______ _______ _____ _____    ______ ____
ROOT
ATOM      1  C   UNL     1      -2.606   0.836   3.808  0.00  0.00    +0.173 A 
ATOM      2  N   UNL     1      -3.348   1.263   4.801  0.00  0.00    -0.223 NA
ATOM      3  C   UNL     1      -2.889   2.181   5.684  0.00  0.00    +0.080 A 
ATOM      4  C   UNL     1      -3.682   2.635   6.742  0.00  0.00    +0.043 A 
ATOM      5  C   UNL     1      -3.169   3.578   7.624  0.00  0.00    +0.065 A 
ATOM      6  C   UNL     1      -1.868   4.072   7.458  0.00  0.00    +0.016 A 
ATOM      7  C   UNL     1      -1.085   3.635   6.429  0.00  0.00    +0.016 A 
ATOM      8  C   UNL     1      -1.580   2.690   5.531  0.00  0.00    +0.065 A 
ATOM      9  C   UNL     1      -0.768   2.188   4.411  0.00  0.00    +0.262 A 
ATOM     10  O   UNL     1       0.369   2.584   4.229  0.00  0.00    -0.267 OA
ATOM     11  N   UNL     1      -1.332   1.274   3.588  0.00  0.00    -0.285 N 
ENDROOT
BRANCH   5  12
ATOM     12  C   UNL     1      -4.002   4.063   8.746  0.00  0.00    +0.387 C 
ATOM     13  O   UNL     1      -5.129   3.638   8.894  0.00  0.00    -0.241 OA
ATOM     14  O   UNL     1      -3.509   4.977   9.604  0.00  0.00    -0.241 OA
ENDBRANCH   5  12
BRANCH   1  15
ATOM     15  S   UNL     1      -3.285  -0.361   2.707  0.00  0.00    -0.075 S 
BRANCH  15  16
ATOM     16  C   UNL     1      -4.926  -0.569   3.442  0.00  0.00    +0.137 C 
ATOM     17  C   UNL     1      -5.709   0.740   3.321  0.00  0.00    +0.029 C 
BRANCH  16  19
ATOM     18  N   UNL     1      -6.712  -2.275   3.308  0.00  0.00    -0.310 N 
ATOM     19  C   UNL     1      -5.665  -1.665   2.718  0.00  0.00    +0.226 C 
ATOM     20  O   UNL     1      -5.318  -1.998   1.605  0.00  0.00    -0.275 OA
ATOM     21  H   UNL     1      -6.989  -2.009   4.199  0.00  0.00    +0.149 HD
BRANCH  18  22
ATOM     22  C   UNL     1      -7.430  -3.341   2.605  0.00  0.00    +0.139 C 
BRANCH  22  27
ATOM     23  C   UNL     1     -11.718  -5.303   5.945  0.00  0.00    +0.044 C 
ATOM     24  C   UNL     1     -10.600  -4.792   5.074  0.00  0.00    -0.050 A 
ATOM     25  C   UNL     1     -10.828  -3.744   4.201  0.00  0.00    +0.003 A 
ATOM     26  C   UNL     1      -9.802  -3.275   3.402  0.00  0.00    +0.005 A 
ATOM     27  C   UNL     1      -8.549  -3.853   3.476  0.00  0.00    -0.030 A 
ATOM     28  C   UNL     1      -8.322  -4.903   4.345  0.00  0.00    +0.005 A 
ATOM     29  C   UNL     1      -9.347  -5.370   5.147  0.00  0.00    +0.003 A 
ENDBRANCH  22  27
ENDBRANCH  18  22
ENDBRANCH  16  19
ENDBRANCH  15  16
ENDBRANCH   1  15
BRANCH  11  30
ATOM     30  C   UNL     1      -0.568   0.746   2.455  0.00  0.00    +0.159 C 
BRANCH  30  31
ATOM     31  C   UNL     1      -0.810   1.621   1.224  0.00  0.00    +0.138 C 
ATOM     32  C   UNL     1      -0.013   1.086   0.008  0.00  0.00    +0.035 C 
ATOM     33  C   UNL     1      -0.833   1.634  -1.185  0.00  0.00    +0.031 C 
ATOM     34  C   UNL     1      -2.223   1.924  -0.587  0.00  0.00    +0.160 C 
ATOM     35  O   UNL     1      -2.186   1.524   0.793  0.00  0.00    -0.375 OA
ENDBRANCH  30  31
ENDBRANCH  11  30
TORSDOF 8
