REMARK  Name = ZINC15830192
REMARK  9 active torsions:
REMARK  status: ('A' for Active; 'I' for Inactive)
REMARK    1  A    between atoms: C_1  and  C_2
REMARK    2  A    between atoms: C_2  and  C_3
REMARK    3  A    between atoms: C_2  and  N_4
REMARK    4  A    between atoms: C_11  and  C_23
REMARK    5  A    between atoms: C_14  and  C_16
REMARK    6  A    between atoms: C_21  and  O_22
REMARK    7  A    between atoms: C_27  and  O_30
REMARK    8  A    between atoms: C_28  and  O_29
REMARK    9  A    between atoms: O_30  and  C_31
REMARK                            x       y       z     vdW  Elec       q    Type
REMARK                         _______ _______ _______ _____ _____    ______ ____
ROOT
ATOM      1  N   UNL     1      -1.376  -0.512   0.012  0.00  0.00    +0.381 N 
ATOM      2  C   UNL     1      -2.087  -0.018  -1.172  0.00  0.00    -0.075 C 
ATOM      3  C   UNL     1      -3.546  -0.479  -1.126  0.00  0.00    +0.027 C 
ATOM      4  C   UNL     1      -3.589  -2.011  -1.108  0.00  0.00    +0.109 C 
ATOM      5  C   UNL     1      -2.785  -2.516   0.095  0.00  0.00    +0.027 C 
ATOM      6  C   UNL     1      -1.355  -1.980   0.004  0.00  0.00    -0.075 C 
ATOM      7  N   UNL     1      -4.984  -2.453  -0.978  0.00  0.00    -0.286 NA
ATOM      8  C   UNL     1      -5.731  -2.144  -2.209  0.00  0.00    +0.095 C 
ATOM      9  C   UNL     1      -5.185  -3.027  -3.335  0.00  0.00    +0.079 C 
ATOM     10  C   UNL     1      -3.682  -2.975  -3.328  0.00  0.00    +0.050 C 
ATOM     11  N   UNL     1      -3.002  -2.529  -2.339  0.00  0.00    -0.266 NA
ATOM     12  H   UNL     1      -5.032  -3.438  -0.763  0.00  0.00    +0.125 HD
ATOM     13  H   UNL     1      -1.847  -0.189   0.844  0.00  0.00    -0.081 HD
ENDROOT
BRANCH  10  14
ATOM     14  C   UNL     1      -2.958  -3.460  -4.516  0.00  0.00    +0.037 A 
ATOM     15  C   UNL     1      -3.664  -3.948  -5.619  0.00  0.00    +0.013 A 
ATOM     16  C   UNL     1      -2.980  -4.400  -6.727  0.00  0.00    +0.001 A 
ATOM     17  C   UNL     1      -1.596  -4.372  -6.754  0.00  0.00    +0.004 A 
ATOM     18  C   UNL     1      -0.886  -3.891  -5.671  0.00  0.00    +0.046 A 
ATOM     19  C   UNL     1      -1.557  -3.428  -4.550  0.00  0.00    +0.126 A 
BRANCH  19  20
ATOM     20  O   UNL     1      -0.861  -2.950  -3.487  0.00  0.00    -0.506 OA
ATOM     21  H   UNL     1      -0.632  -3.624  -2.832  0.00  0.00    +0.292 HD
ENDBRANCH  19  20
ENDBRANCH  10  14
BRANCH   8  22
ATOM     22  C   UNL     1      -7.196  -2.433  -2.000  0.00  0.00    +0.015 A 
ATOM     23  C   UNL     1      -7.596  -3.273  -0.978  0.00  0.00    +0.009 A 
ATOM     24  C   UNL     1      -8.938  -3.540  -0.783  0.00  0.00    +0.004 A 
ATOM     25  C   UNL     1      -9.887  -2.968  -1.612  0.00  0.00    +0.049 A 
ATOM     26  C   UNL     1      -9.493  -2.126  -2.638  0.00  0.00    +0.162 A 
ATOM     27  C   UNL     1      -8.141  -1.852  -2.830  0.00  0.00    +0.163 A 
BRANCH  27  28
ATOM     28  O   UNL     1      -7.750  -1.021  -3.833  0.00  0.00    -0.503 OA
ATOM     29  H   UNL     1      -7.579  -1.471  -4.671  0.00  0.00    +0.292 HD
ENDBRANCH  27  28
BRANCH  26  30
ATOM     30  O   UNL     1     -10.424  -1.563  -3.454  0.00  0.00    -0.491 OA
ATOM     31  C   UNL     1     -11.792  -1.884  -3.194  0.00  0.00    +0.277 C 
ENDBRANCH  26  30
ENDBRANCH   8  22
BRANCH   1  33
ATOM     32  C   UNL     1      -0.019   1.526   0.010  0.00  0.00    -0.014 C 
ATOM     33  C   UNL     1       0.002  -0.004   0.002  0.00  0.00    -0.075 C 
ATOM     34  C   UNL     1       0.742  -0.511   1.242  0.00  0.00    -0.014 C 
ENDBRANCH   1  33
TORSDOF 6
