REMARK  Name = ZINC14732908
REMARK  10 active torsions:
REMARK  status: ('A' for Active; 'I' for Inactive)
REMARK    1  A    between atoms: C_1  and  C_2
REMARK    2  A    between atoms: C_2  and  C_3
REMARK    3  A    between atoms: C_2  and  C_4
REMARK    4  A    between atoms: C_2  and  N_53
REMARK    5  A    between atoms: C_4  and  O_5
REMARK    6  A    between atoms: C_6  and  N_53
REMARK    7  A    between atoms: C_12  and  C_16
REMARK    8  A    between atoms: N_14  and  C_15
REMARK    9  A    between atoms: N_18  and  C_19
REMARK   10  A    between atoms: C_19  and  C_20
REMARK                            x       y       z     vdW  Elec       q    Type
REMARK                         _______ _______ _______ _____ _____    ______ ____
ROOT
ATOM      1  C   UNL     1      -2.686  -2.558   0.178  0.00  0.00    -0.066 C 
ATOM      2  C   UNL     1      -3.321  -2.767  -1.200  0.00  0.00    -0.009 C 
ATOM      3  C   UNL     1      -4.802  -3.130  -1.035  0.00  0.00    +0.054 C 
ATOM      4  C   UNL     1      -4.907  -4.250  -0.032  0.00  0.00    +0.043 A 
ATOM      5  C   UNL     1      -3.915  -4.591   0.826  0.00  0.00    +0.004 A 
ATOM      6  C   UNL     1      -4.408  -5.671   1.577  0.00  0.00    +0.150 A 
ATOM      7  N   UNL     1      -5.634  -5.907   1.141  0.00  0.00    -0.166 NA
ATOM      8  N   UNL     1      -5.936  -5.081   0.200  0.00  0.00    -0.270 N 
ATOM      9  C   UNL     1      -7.216  -5.052  -0.513  0.00  0.00    +0.172 C 
ATOM     10  C   UNL     1      -2.578  -3.906   0.903  0.00  0.00    +0.023 C 
ENDROOT
BRANCH   6  11
ATOM     11  C   UNL     1      -3.696  -6.401   2.646  0.00  0.00    +0.265 C 
ATOM     12  O   UNL     1      -2.565  -6.079   2.952  0.00  0.00    -0.268 OA
ATOM     13  N   UNL     1      -4.302  -7.423   3.283  0.00  0.00    -0.306 N 
ATOM     14  H   UNL     1      -5.205  -7.679   3.039  0.00  0.00    +0.149 HD
BRANCH  13  15
ATOM     15  C   UNL     1      -3.596  -8.146   4.343  0.00  0.00    +0.140 C 
BRANCH  15  16
ATOM     16  C   UNL     1      -4.486  -9.234   4.888  0.00  0.00    -0.030 A 
ATOM     17  C   UNL     1      -5.327  -8.969   5.953  0.00  0.00    +0.008 A 
ATOM     18  C   UNL     1      -6.147  -9.964   6.450  0.00  0.00    +0.038 A 
ATOM     19  C   UNL     1      -6.119 -11.229   5.888  0.00  0.00    +0.123 A 
ATOM     20  C   UNL     1      -5.274 -11.494   4.824  0.00  0.00    +0.038 A 
ATOM     21  C   UNL     1      -4.458 -10.496   4.325  0.00  0.00    +0.008 A 
ATOM     22  F   UNL     1      -6.918 -12.204   6.376  0.00  0.00    -0.205 F 
ENDBRANCH  15  16
ENDBRANCH  13  15
ENDBRANCH   6  11
BRANCH   1  23
ATOM     23  N   UNL     1      -1.337  -1.985   0.012  0.00  0.00    +0.386 N 
ATOM     24  H   UNL     1      -0.662  -2.551   0.540  0.00  0.00    -0.085 HD
ATOM     25  H   UNL     1      -1.085  -1.993  -0.983  0.00  0.00    -0.085 HD
BRANCH  23  27
ATOM     26  C   UNL     1      -2.363   0.235  -0.215  0.00  0.00    -0.008 C 
ATOM     27  C   UNL     1      -1.304  -0.597   0.511  0.00  0.00    -0.050 C 
ATOM     28  C   UNL     1       0.081  -0.002   0.248  0.00  0.00    -0.008 C 
BRANCH  27  29
ATOM     29  C   UNL     1      -1.588  -0.585   2.014  0.00  0.00    +0.143 C 
BRANCH  29  30
ATOM     30  O   UNL     1      -1.564   0.761   2.493  0.00  0.00    -0.396 OA
ATOM     31  H   UNL     1      -1.736   0.845   3.440  0.00  0.00    +0.209 HD
ENDBRANCH  29  30
ENDBRANCH  27  29
ENDBRANCH  23  27
ENDBRANCH   1  23
TORSDOF 7
