REMARK  Name = ZINC39755980
REMARK  9 active torsions:
REMARK  status: ('A' for Active; 'I' for Inactive)
REMARK    1  A    between atoms: C_1  and  C_2
REMARK    2  A    between atoms: C_2  and  N_3
REMARK    3  A    between atoms: C_4  and  C_20
REMARK    4  A    between atoms: C_7  and  S_8
REMARK    5  A    between atoms: S_8  and  C_9
REMARK    6  A    between atoms: C_9  and  C_10
REMARK    7  A    between atoms: C_15  and  C_19
REMARK    8  A    between atoms: C_16  and  C_18
REMARK    9  A    between atoms: C_21  and  C_29
REMARK                            x       y       z     vdW  Elec       q    Type
REMARK                         _______ _______ _______ _____ _____    ______ ____
ROOT
ATOM      1  N   UNL     1      -1.372  -0.511   0.012  0.00  0.00    -0.300 N 
ATOM      2  C   UNL     1      -2.145  -0.800   1.116  0.00  0.00    +0.201 A 
ATOM      3  N   UNL     1      -3.307  -1.227   0.671  0.00  0.00    -0.125 NA
ATOM      4  N   UNL     1      -3.312  -1.224  -0.614  0.00  0.00    -0.122 NA
ATOM      5  C   UNL     1      -2.157  -0.791  -1.070  0.00  0.00    +0.192 A 
ENDROOT
BRANCH   2   6
ATOM      6  C   UNL     1      -1.746  -0.658   2.525  0.00  0.00    +0.176 A 
ATOM      7  C   UNL     1      -2.530  -0.957   3.593  0.00  0.00    +0.006 A 
ATOM      8  C   UNL     1      -1.726  -0.663   4.780  0.00  0.00    +0.024 A 
ATOM      9  C   UNL     1      -1.952  -0.755   6.155  0.00  0.00    +0.012 A 
ATOM     10  C   UNL     1      -0.965  -0.391   7.029  0.00  0.00    +0.001 A 
ATOM     11  C   UNL     1       0.256   0.068   6.559  0.00  0.00    +0.004 A 
ATOM     12  C   UNL     1       0.498   0.166   5.204  0.00  0.00    +0.047 A 
ATOM     13  C   UNL     1      -0.489  -0.198   4.298  0.00  0.00    +0.136 A 
ATOM     14  O   UNL     1      -0.544  -0.217   2.950  0.00  0.00    -0.451 OA
ATOM     15  C   UNL     1      -3.941  -1.483   3.561  0.00  0.00    +0.048 C 
ENDBRANCH   2   6
BRANCH   1  17
ATOM     16  C   UNL     1      -0.019   1.526   0.010  0.00  0.00    +0.027 C 
ATOM     17  C   UNL     1       0.002  -0.004   0.002  0.00  0.00    +0.122 C 
ENDBRANCH   1  17
BRANCH   5  18
ATOM     18  S   UNL     1      -1.705  -0.608  -2.763  0.00  0.00    -0.077 S 
BRANCH  18  19
ATOM     19  C   UNL     1      -3.181  -1.144  -3.672  0.00  0.00    +0.173 C 
BRANCH  19  20
ATOM     20  C   UNL     1      -2.926  -1.036  -5.153  0.00  0.00    +0.229 C 
ATOM     21  O   UNL     1      -1.854  -0.637  -5.556  0.00  0.00    -0.275 OA
ATOM     22  N   UNL     1      -3.889  -1.383  -6.030  0.00  0.00    -0.264 N 
ATOM     23  C   UNL     1      -3.654  -1.283  -7.396  0.00  0.00    +0.165 A 
ATOM     24  N   UNL     1      -2.562  -0.881  -8.010  0.00  0.00    -0.230 NA
ATOM     25  C   UNL     1      -2.495  -0.843  -9.328  0.00  0.00    +0.050 A 
ATOM     26  C   UNL     1      -3.598  -1.236 -10.012  0.00  0.00    +0.011 A 
ATOM     27  S   UNL     1      -4.693  -1.655  -8.666  0.00  0.00    -0.057 S 
ATOM     28  C   UNL     1      -3.833  -1.305 -11.499  0.00  0.00    +0.053 C 
ATOM     29  C   UNL     1      -1.249  -0.383 -10.040  0.00  0.00    +0.066 C 
ATOM     30  H   UNL     1      -4.746  -1.702  -5.707  0.00  0.00    +0.157 HD
ENDBRANCH  19  20
ENDBRANCH  18  19
ENDBRANCH   5  18
TORSDOF 5
