REMARK  Name = ZINC21708009
REMARK  9 active torsions:
REMARK  status: ('A' for Active; 'I' for Inactive)
REMARK    1  A    between atoms: C_1  and  C_2
REMARK    2  A    between atoms: C_4  and  N_7
REMARK    3  A    between atoms: N_7  and  S_8
REMARK    4  A    between atoms: S_8  and  C_11
REMARK    5  A    between atoms: C_13  and  C_18
REMARK    6  A    between atoms: N_14  and  C_17
REMARK    7  A    between atoms: C_15  and  C_16
REMARK    8  A    between atoms: C_20  and  C_32
REMARK    9  A    between atoms: C_21  and  C_23
REMARK                            x       y       z     vdW  Elec       q    Type
REMARK                         _______ _______ _______ _____ _____    ______ ____
ROOT
ATOM      1  C   UNL     1      -1.729   3.630   8.179  0.00  0.00    +0.131 A 
ATOM      2  C   UNL     1      -1.760   3.261   6.827  0.00  0.00    +0.059 A 
ATOM      3  C   UNL     1      -2.651   4.087   6.201  0.00  0.00    +0.076 A 
ATOM      4  N   UNL     1      -3.155   4.952   7.143  0.00  0.00    -0.344 N 
ATOM      5  C   UNL     1      -2.591   4.660   8.345  0.00  0.00    +0.043 A 
ATOM      6  C   UNL     1      -2.873   5.369   9.645  0.00  0.00    +0.065 C 
ATOM      7  C   UNL     1      -4.139   6.008   6.894  0.00  0.00    +0.149 C 
ENDROOT
BRANCH   3   8
ATOM      8  C   UNL     1      -3.001   4.061   4.774  0.00  0.00    +0.126 A 
ATOM      9  N   UNL     1      -3.855   4.832   4.102  0.00  0.00    -0.242 NA
ATOM     10  C   UNL     1      -4.054   4.676   2.824  0.00  0.00    +0.058 A 
ATOM     11  C   UNL     1      -3.359   3.682   2.145  0.00  0.00    +0.097 A 
ATOM     12  S   UNL     1      -2.401   2.979   3.483  0.00  0.00    -0.061 S 
ATOM     13  C   UNL     1      -5.025   5.563   2.089  0.00  0.00    +0.067 C 
BRANCH  11  14
ATOM     14  C   UNL     1      -3.403   3.309   0.730  0.00  0.00    +0.255 C 
ATOM     15  O   UNL     1      -4.016   3.999  -0.062  0.00  0.00    -0.269 OA
ATOM     16  N   UNL     1      -2.764   2.201   0.305  0.00  0.00    -0.297 N 
ATOM     17  C   UNL     1      -2.015   1.421   1.265  0.00  0.00    +0.108 C 
ATOM     18  C   UNL     1      -0.564   1.947   1.341  0.00  0.00    +0.019 C 
ATOM     19  C   UNL     1       0.174   1.599   0.117  0.00  0.00    +0.002 C 
ATOM     20  C   UNL     1      -0.389   2.229  -1.154  0.00  0.00    +0.002 C 
ATOM     21  C   UNL     1      -1.504   1.365  -1.689  0.00  0.00    +0.019 C 
ATOM     22  C   UNL     1      -2.856   1.835  -1.122  0.00  0.00    +0.108 C 
ENDBRANCH  11  14
ENDBRANCH   3   8
BRANCH   1  23
ATOM     23  S   UNL     1      -0.745   2.885   9.436  0.00  0.00    +0.095 S 
ATOM     24  O   UNL     1      -0.016   1.836   8.814  0.00  0.00    -0.148 OA
ATOM     25  O   UNL     1      -0.107   3.946  10.134  0.00  0.00    -0.148 OA
BRANCH  23  26
ATOM     26  N   UNL     1      -1.782   2.168  10.510  0.00  0.00    -0.074 NA
BRANCH  26  30
ATOM     27  C   UNL     1      -5.240  -1.412  10.296  0.00  0.00    +0.089 C 
ATOM     28  C   UNL     1      -4.130  -0.436  10.004  0.00  0.00    +0.136 A 
ATOM     29  C   UNL     1      -3.619   0.485  10.853  0.00  0.00    +0.094 A 
ATOM     30  C   UNL     1      -2.611   1.133  10.090  0.00  0.00    +0.205 A 
ATOM     31  N   UNL     1      -2.622   0.564   8.913  0.00  0.00    -0.060 NA
ATOM     32  O   UNL     1      -3.455  -0.311   8.852  0.00  0.00    -0.358 OA
ENDBRANCH  26  30
ENDBRANCH  23  26
ENDBRANCH   1  23
TORSDOF 5
