REMARK  Name = ZINC24992554
REMARK  10 active torsions:
REMARK  status: ('A' for Active; 'I' for Inactive)
REMARK    1  A    between atoms: C_4  and  C_7
REMARK    2  A    between atoms: C_7  and  N_8
REMARK    3  A    between atoms: C_9  and  N_35
REMARK    4  A    between atoms: C_10  and  N_17
REMARK    5  A    between atoms: N_17  and  C_18
REMARK    6  A    between atoms: N_17  and  C_26
REMARK    7  A    between atoms: C_18  and  C_19
REMARK    8  A    between atoms: C_19  and  C_20
REMARK    9  A    between atoms: C_26  and  C_27
REMARK   10  A    between atoms: C_29  and  C_32
REMARK                            x       y       z     vdW  Elec       q    Type
REMARK                         _______ _______ _______ _____ _____    ______ ____
ROOT
ATOM      1  N   UNL     1      -3.509  -4.568   0.892  0.00  0.00    -0.276 N 
ATOM      2  C   UNL     1      -3.633  -3.333   0.298  0.00  0.00    +0.127 A 
ATOM      3  C   UNL     1      -2.884  -3.043  -0.810  0.00  0.00    +0.134 A 
ATOM      4  C   UNL     1      -1.996  -4.014  -1.307  0.00  0.00    +0.277 A 
ATOM      5  O   UNL     1      -1.315  -3.777  -2.290  0.00  0.00    -0.266 OA
ATOM      6  N   UNL     1      -1.905  -5.209  -0.690  0.00  0.00    -0.273 N 
ATOM      7  H   UNL     1      -1.213  -5.974  -1.073  0.00  0.00    +0.173 HD
ATOM      8  C   UNL     1      -2.653  -5.479   0.395  0.00  0.00    +0.331 A 
ATOM      9  O   UNL     1      -2.553  -6.564   0.935  0.00  0.00    -0.246 OA
ENDROOT
BRANCH   2  10
ATOM     10  N   UNL     1      -4.506  -2.400   0.810  0.00  0.00    -0.343 N 
ATOM     11  H   UNL     1      -4.601  -1.414   0.331  0.00  0.00    +0.144 HD
ATOM     12  H   UNL     1      -5.109  -2.640   1.698  0.00  0.00    +0.144 HD
ENDBRANCH   2  10
BRANCH   1  13
ATOM     13  C   UNL     1      -4.311  -4.891   2.075  0.00  0.00    +0.163 C 
BRANCH  13  17
ATOM     14  C   UNL     1      -2.174  -3.757   5.596  0.00  0.00    +0.000 A 
ATOM     15  C   UNL     1      -3.023  -2.855   4.981  0.00  0.00    +0.000 A 
ATOM     16  C   UNL     1      -3.714  -3.222   3.842  0.00  0.00    +0.005 A 
ATOM     17  C   UNL     1      -3.557  -4.491   3.317  0.00  0.00    -0.028 A 
ATOM     18  C   UNL     1      -2.712  -5.395   3.934  0.00  0.00    +0.005 A 
ATOM     19  C   UNL     1      -2.017  -5.026   5.070  0.00  0.00    +0.000 A 
ENDBRANCH  13  17
ENDBRANCH   1  13
BRANCH   3  20
ATOM     20  N   UNL     1      -2.995  -1.783  -1.442  0.00  0.00    -0.314 N 
BRANCH  20  21
ATOM     21  C   UNL     1      -1.707  -1.076  -1.439  0.00  0.00    +0.110 C 
BRANCH  21  22
ATOM     22  C   UNL     1      -1.319  -0.729  -0.001  0.00  0.00    +0.049 C 
BRANCH  22  23
ATOM     23  C   UNL     1       0.002  -0.004   0.002  0.00  0.00    -0.072 C 
ATOM     24  C   UNL     1      -0.015   1.290   0.009  0.00  0.00    -0.028 C 
ATOM     25  C   UNL     1       1.216   2.148   0.002  0.00  0.00    +0.027 C 
ATOM     26  C   UNL     1       2.437   1.320   0.409  0.00  0.00    +0.004 C 
ATOM     27  C   UNL     1       2.450   0.033  -0.424  0.00  0.00    +0.005 C 
ATOM     28  C   UNL     1       1.256  -0.828  -0.004  0.00  0.00    +0.030 C 
ENDBRANCH  22  23
ENDBRANCH  21  22
ENDBRANCH  20  21
BRANCH  20  29
ATOM     29  C   UNL     1      -3.516  -1.923  -2.808  0.00  0.00    +0.204 C 
BRANCH  29  30
ATOM     30  C   UNL     1      -3.852  -0.562  -3.361  0.00  0.00    +0.245 A 
ATOM     31  N   UNL     1      -3.047   0.233  -4.024  0.00  0.00    -0.194 NA
ATOM     32  C   UNL     1      -3.775   1.326  -4.314  0.00  0.00    +0.175 A 
ATOM     33  N   UNL     1      -4.961   1.147  -3.815  0.00  0.00    -0.061 NA
ATOM     34  O   UNL     1      -5.027   0.068  -3.263  0.00  0.00    -0.336 OA
BRANCH  32  35
ATOM     35  C   UNL     1      -3.300   2.538  -5.073  0.00  0.00    +0.060 C 
ATOM     36  C   UNL     1      -4.226   3.755  -5.111  0.00  0.00    +0.012 C 
ATOM     37  C   UNL     1      -4.039   2.897  -6.364  0.00  0.00    +0.012 C 
ENDBRANCH  32  35
ENDBRANCH  29  30
ENDBRANCH  20  29
ENDBRANCH   3  20
TORSDOF 10
