REMARK  Name = ZINC60043986
REMARK  10 active torsions:
REMARK  status: ('A' for Active; 'I' for Inactive)
REMARK    1  A    between atoms: C_1  and  C_2
REMARK    2  A    between atoms: C_5  and  C_7
REMARK    3  A    between atoms: N_9  and  C_10
REMARK    4  A    between atoms: C_13  and  C_16
REMARK    5  A    between atoms: C_16  and  O_18
REMARK    6  A    between atoms: O_18  and  C_19
REMARK    7  A    between atoms: C_19  and  C_20
REMARK    8  A    between atoms: C_20  and  N_21
REMARK    9  A    between atoms: C_22  and  C_24
REMARK   10  A    between atoms: C_27  and  N_31
REMARK                            x       y       z     vdW  Elec       q    Type
REMARK                         _______ _______ _______ _____ _____    ______ ____
ROOT
ATOM      1  O   UNL     1      -0.981  -7.943   5.930  0.00  0.00    -0.460 OA
ENDROOT
BRANCH   1   2
ATOM      2  C   UNL     1      -1.539  -7.372   4.845  0.00  0.00    +0.339 C 
ATOM      3  O   UNL     1      -2.523  -7.869   4.335  0.00  0.00    -0.245 OA
BRANCH   2   7
ATOM      4  C   UNL     1       0.143  -3.835   3.205  0.00  0.00    +0.033 A 
ATOM      5  C   UNL     1      -0.984  -4.403   2.620  0.00  0.00    +0.024 A 
ATOM      6  C   UNL     1      -1.532  -5.550   3.148  0.00  0.00    +0.017 A 
ATOM      7  C   UNL     1      -0.955  -6.144   4.275  0.00  0.00    +0.059 A 
ATOM      8  C   UNL     1       0.178  -5.570   4.860  0.00  0.00    +0.017 A 
ATOM      9  C   UNL     1       0.724  -4.426   4.324  0.00  0.00    +0.024 A 
BRANCH   4  12
ATOM     10  C   UNL     1      -0.106  -1.730   2.134  0.00  0.00    +0.221 C 
ATOM     11  O   UNL     1      -1.300  -1.928   2.046  0.00  0.00    -0.275 OA
ATOM     12  N   UNL     1       0.695  -2.673   2.667  0.00  0.00    -0.285 N 
ATOM     13  H   UNL     1       1.657  -2.544   2.677  0.00  0.00    +0.155 HD
BRANCH  10  17
ATOM     14  C   UNL     1      -0.178   2.078   1.301  0.00  0.00    +0.008 C 
ATOM     15  C   UNL     1      -0.482   0.599   1.051  0.00  0.00    -0.002 C 
ATOM     16  C   UNL     1       0.471  -0.173   0.137  0.00  0.00    +0.017 C 
ATOM     17  C   UNL     1       0.480  -0.431   1.646  0.00  0.00    +0.078 C 
ENDBRANCH  10  17
ENDBRANCH   4  12
ENDBRANCH   2   7
ENDBRANCH   1   2
BRANCH   1  18
ATOM     18  C   UNL     1      -1.600  -9.131   6.428  0.00  0.00    +0.251 C 
BRANCH  18  19
ATOM     19  C   UNL     1      -0.832  -9.630   7.654  0.00  0.00    +0.145 C 
BRANCH  19  20
ATOM     20  N   UNL     1      -0.949  -8.649   8.736  0.00  0.00    -0.308 N 
ATOM     21  C   UNL     1      -0.349  -8.877   9.921  0.00  0.00    +0.246 C 
ATOM     22  O   UNL     1       0.289  -9.898  10.092  0.00  0.00    -0.270 OA
ATOM     23  H   UNL     1      -1.459  -7.835   8.600  0.00  0.00    +0.149 HD
BRANCH  21  24
ATOM     24  C   UNL     1      -0.467  -7.888  11.012  0.00  0.00    +0.055 A 
ATOM     25  C   UNL     1      -1.205  -6.718  10.821  0.00  0.00    +0.017 A 
ATOM     26  C   UNL     1      -1.311  -5.799  11.844  0.00  0.00    +0.033 A 
ATOM     27  C   UNL     1      -0.689  -6.033  13.058  0.00  0.00    +0.128 A 
ATOM     28  C   UNL     1       0.043  -7.189  13.255  0.00  0.00    +0.053 A 
ATOM     29  C   UNL     1       0.153  -8.122  12.242  0.00  0.00    +0.055 A 
ATOM     30 CL   UNL     1       1.067  -9.576  12.493  0.00  0.00    -0.083 Cl
BRANCH  27  31
ATOM     31  N   UNL     1      -0.808  -5.041  14.150  0.00  0.00    +0.056 N 
ATOM     32  O   UNL     1      -1.448  -4.029  13.981  0.00  0.00    -0.126 OA
ATOM     33  O   UNL     1      -0.266  -5.243  15.212  0.00  0.00    -0.126 OA
ENDBRANCH  27  31
ENDBRANCH  21  24
ENDBRANCH  19  20
ENDBRANCH  18  19
ENDBRANCH   1  18
TORSDOF 9
