REMARK  Name = ZINC31632772
REMARK  6 active torsions:
REMARK  status: ('A' for Active; 'I' for Inactive)
REMARK    1  A    between atoms: C_1  and  C_2
REMARK    2  A    between atoms: C_2  and  C_24
REMARK    3  A    between atoms: N_5  and  C_9
REMARK    4  A    between atoms: C_9  and  C_10
REMARK    5  A    between atoms: N_12  and  C_13
REMARK    6  A    between atoms: C_14  and  C_21
REMARK                            x       y       z     vdW  Elec       q    Type
REMARK                         _______ _______ _______ _____ _____    ______ ____
ROOT
ATOM      1  C   UNL     1      -4.546  -1.756   8.736  0.00  0.00    +0.047 C 
ATOM      2  C   UNL     1      -4.973  -1.470   7.295  0.00  0.00    +0.136 C 
ATOM      3  C   UNL     1      -3.759  -1.308   6.401  0.00  0.00    +0.251 C 
ATOM      4  O   UNL     1      -2.905  -2.137   6.169  0.00  0.00    -0.272 OA
ATOM      5  N   UNL     1      -3.827  -0.051   5.919  0.00  0.00    -0.215 N 
ATOM      6  C   UNL     1      -4.901   0.598   6.383  0.00  0.00    +0.310 C 
ATOM      7  O   UNL     1      -5.173   1.746   6.092  0.00  0.00    -0.252 OA
ATOM      8  N   UNL     1      -5.646  -0.163   7.204  0.00  0.00    -0.281 N 
ATOM      9  H   UNL     1      -6.579   0.015   7.759  0.00  0.00    +0.152 HD
ENDROOT
BRANCH   2  10
ATOM     10  C   UNL     1      -5.867  -2.568   6.781  0.00  0.00    -0.008 A 
ATOM     11  C   UNL     1      -7.132  -2.283   6.365  0.00  0.00    +0.007 A 
ATOM     12  C   UNL     1      -7.973  -3.285   5.887  0.00  0.00    +0.001 A 
ATOM     13  C   UNL     1      -7.555  -4.578   5.820  0.00  0.00    +0.008 A 
ATOM     14  C   UNL     1      -6.256  -4.912   6.239  0.00  0.00    -0.018 A 
ATOM     15  C   UNL     1      -5.399  -3.891   6.722  0.00  0.00    -0.012 A 
ATOM     16  C   UNL     1      -4.101  -4.226   7.146  0.00  0.00    +0.009 A 
ATOM     17  C   UNL     1      -3.683  -5.519   7.080  0.00  0.00    +0.001 A 
ATOM     18  C   UNL     1      -4.525  -6.522   6.601  0.00  0.00    +0.001 A 
ATOM     19  C   UNL     1      -5.789  -6.236   6.186  0.00  0.00    +0.008 A 
ENDBRANCH   2  10
BRANCH   5  20
ATOM     20  C   UNL     1      -2.843   0.533   5.005  0.00  0.00    +0.214 C 
BRANCH  20  21
ATOM     21  C   UNL     1      -3.260   0.267   3.581  0.00  0.00    +0.236 C 
ATOM     22  O   UNL     1      -4.278  -0.350   3.353  0.00  0.00    -0.274 OA
ATOM     23  N   UNL     1      -2.500   0.715   2.562  0.00  0.00    -0.278 N 
ATOM     24  H   UNL     1      -1.576   1.275   2.769  0.00  0.00    +0.155 HD
BRANCH  23  25
ATOM     25  C   UNL     1      -2.884   0.470   1.252  0.00  0.00    +0.084 A 
ATOM     26  C   UNL     1      -2.243   0.845   0.083  0.00  0.00    +0.068 A 
ATOM     27  C   UNL     1      -2.861   0.454  -1.183  0.00  0.00    -0.023 A 
ATOM     28  C   UNL     1      -4.008  -0.239  -1.069  0.00  0.00    -0.004 A 
ATOM     29  S   UNL     1      -4.282  -0.376   0.680  0.00  0.00    -0.077 S 
ATOM     30  C   UNL     1      -4.580  -0.609  -2.411  0.00  0.00    +0.043 C 
ATOM     31  C   UNL     1      -3.406  -0.424  -3.398  0.00  0.00    +0.010 C 
ATOM     32  C   UNL     1      -2.545   0.627  -2.670  0.00  0.00    +0.037 C 
BRANCH  26  33
ATOM     33  C   UNL     1      -0.988   1.602   0.114  0.00  0.00    +0.244 C 
ATOM     34  O   UNL     1      -1.010   2.819   0.114  0.00  0.00    -0.270 OA
ATOM     35  N   UNL     1       0.192   0.950   0.144  0.00  0.00    -0.325 N 
ATOM     36  H   UNL     1       1.133   1.518   0.168  0.00  0.00    +0.145 HD
ATOM     37  H   UNL     1       0.212  -0.150   0.145  0.00  0.00    +0.145 HD
ENDBRANCH  26  33
ENDBRANCH  23  25
ENDBRANCH  20  21
ENDBRANCH   5  20
TORSDOF 5
