REMARK  Name = ZINC13187917
REMARK  11 active torsions:
REMARK  status: ('A' for Active; 'I' for Inactive)
REMARK    1  A    between atoms: C_1  and  C_2
REMARK    2  A    between atoms: C_2  and  O_3
REMARK    3  A    between atoms: O_3  and  C_4
REMARK    4  A    between atoms: C_4  and  C_6
REMARK    5  A    between atoms: C_7  and  C_27
REMARK    6  A    between atoms: C_10  and  N_11
REMARK    7  A    between atoms: C_12  and  C_14
REMARK    8  A    between atoms: C_14  and  O_15
REMARK    9  A    between atoms: O_15  and  C_16
REMARK   10  A    between atoms: C_18  and  C_25
REMARK   11  A    between atoms: C_21  and  N_22
REMARK                            x       y       z     vdW  Elec       q    Type
REMARK                         _______ _______ _______ _____ _____    ______ ____
ROOT
ATOM      1  N   UNL     1      -1.072  -0.880   0.008  0.00  0.00    -0.277 N 
ATOM      2  C   UNL     1      -2.332  -0.401   0.023  0.00  0.00    +0.255 C 
ATOM      3  O   UNL     1      -2.526   0.796   0.031  0.00  0.00    -0.272 OA
ATOM      4  H   UNL     1      -0.917  -1.837   0.001  0.00  0.00    +0.155 HD
ENDROOT
BRANCH   1   9
ATOM      5  C   UNL     1       1.360  -0.303  -0.013  0.00  0.00    +0.091 A 
ATOM      6  C   UNL     1       2.271   0.818  -0.015  0.00  0.00    -0.021 A 
ATOM      7  C   UNL     1       1.730   2.049  -0.004  0.00  0.00    +0.051 A 
ATOM      8  S   UNL     1      -0.021   1.727   0.011  0.00  0.00    -0.081 S 
ATOM      9  C   UNL     1       0.002  -0.004   0.002  0.00  0.00    +0.086 A 
BRANCH   6  10
ATOM     10  C   UNL     1       3.764   0.616  -0.030  0.00  0.00    +0.020 C 
ATOM     11  C   UNL     1       4.646   1.850   0.172  0.00  0.00    +0.009 C 
ATOM     12  C   UNL     1       4.544   1.200  -1.210  0.00  0.00    +0.009 C 
ENDBRANCH   6  10
BRANCH   5  13
ATOM     13  C   UNL     1       1.843  -1.685  -0.024  0.00  0.00    +0.342 C 
ATOM     14  O   UNL     1       2.034  -2.254  -1.082  0.00  0.00    -0.245 OA
BRANCH  13  15
ATOM     15  O   UNL     1       2.076  -2.328   1.139  0.00  0.00    -0.461 OA
BRANCH  15  17
ATOM     16  C   UNL     1       2.759  -4.256   2.460  0.00  0.00    +0.048 C 
ATOM     17  C   UNL     1       2.553  -3.697   1.051  0.00  0.00    +0.229 C 
ENDBRANCH  15  17
ENDBRANCH  13  15
ENDBRANCH   5  13
ENDBRANCH   1   9
BRANCH   2  18
ATOM     18  C   UNL     1      -3.500  -1.353   0.029  0.00  0.00    +0.325 C 
BRANCH  18  19
ATOM     19  O   UNL     1      -4.720  -0.610   0.045  0.00  0.00    -0.480 OA
BRANCH  19  20
ATOM     20  C   UNL     1      -5.877  -1.323   0.052  0.00  0.00    +0.152 A 
ATOM     21  C   UNL     1      -5.837  -2.707   0.038  0.00  0.00    +0.063 A 
ATOM     22  C   UNL     1      -7.027  -3.436   0.051  0.00  0.00    +0.067 A 
ATOM     23  C   UNL     1      -8.251  -2.763   0.066  0.00  0.00    +0.017 A 
ATOM     24  C   UNL     1      -8.279  -1.384   0.075  0.00  0.00    +0.037 A 
ATOM     25  C   UNL     1      -7.099  -0.664   0.068  0.00  0.00    +0.168 A 
BRANCH  25  26
ATOM     26  N   UNL     1      -7.138   0.816   0.077  0.00  0.00    +0.060 N 
ATOM     27  O   UNL     1      -8.208   1.397   0.091  0.00  0.00    -0.126 OA
ATOM     28  O   UNL     1      -6.099   1.452   0.070  0.00  0.00    -0.126 OA
ENDBRANCH  25  26
BRANCH  22  29
ATOM     29  C   UNL     1      -6.993  -4.913   0.042  0.00  0.00    +0.387 C 
ATOM     30  O   UNL     1      -5.927  -5.495   0.028  0.00  0.00    -0.241 OA
ATOM     31  O   UNL     1      -8.143  -5.613   0.049  0.00  0.00    -0.241 OA
ENDBRANCH  22  29
ENDBRANCH  19  20
ENDBRANCH  18  19
ENDBRANCH   2  18
TORSDOF 10
