REMARK  Name = ZINC10759668
REMARK  9 active torsions:
REMARK  status: ('A' for Active; 'I' for Inactive)
REMARK    1  A    between atoms: C_1  and  C_2
REMARK    2  A    between atoms: N_11  and  C_15
REMARK    3  A    between atoms: C_15  and  C_16
REMARK    4  A    between atoms: C_16  and  O_18
REMARK    5  A    between atoms: O_18  and  C_19
REMARK    6  A    between atoms: C_19  and  C_20
REMARK    7  A    between atoms: C_23  and  C_25
REMARK    8  A    between atoms: C_29  and  O_31
REMARK    9  A    between atoms: O_31  and  C_32
REMARK                            x       y       z     vdW  Elec       q    Type
REMARK                         _______ _______ _______ _____ _____    ______ ____
ROOT
ATOM      1  C   UNL     1      -2.661  10.692   0.082  0.00  0.00    +0.326 C 
ATOM      2  O   UNL     1      -3.827  10.374   0.091  0.00  0.00    -0.249 OA
ENDROOT
BRANCH   1   3
ATOM      3  C   UNL     1      -2.277  12.149   0.085  0.00  0.00    +0.238 C 
BRANCH   3  13
ATOM      4  C   UNL     1      -6.691  12.137   0.712  0.00  0.00    +0.010 C 
ATOM      5  C   UNL     1      -6.592  13.569   1.242  0.00  0.00    +0.018 C 
ATOM      6  C   UNL     1      -7.783  14.384   0.733  0.00  0.00    +0.006 C 
ATOM      7  C   UNL     1      -7.673  15.821   1.247  0.00  0.00    +0.000 C 
ATOM      8  C   UNL     1      -6.378  16.450   0.729  0.00  0.00    +0.003 C 
ATOM      9  C   UNL     1      -5.181  15.643   1.238  0.00  0.00    +0.035 C 
ATOM     10  C   UNL     1      -5.293  14.202   0.754  0.00  0.00    +0.115 C 
ATOM     11  C   UNL     1      -4.105  13.395   1.224  0.00  0.00    +0.247 C 
ATOM     12  O   UNL     1      -3.775  13.173   2.369  0.00  0.00    -0.273 OA
ATOM     13  N   UNL     1      -3.489  12.973   0.100  0.00  0.00    -0.213 N 
ATOM     14  C   UNL     1      -4.118  13.406  -0.999  0.00  0.00    +0.310 C 
ATOM     15  O   UNL     1      -3.749  13.161  -2.131  0.00  0.00    -0.252 OA
ATOM     16  N   UNL     1      -5.209  14.142  -0.710  0.00  0.00    -0.285 N 
ATOM     17  H   UNL     1      -5.816  14.553  -1.345  0.00  0.00    +0.151 HD
ENDBRANCH   3  13
ENDBRANCH   1   3
BRANCH   1  18
ATOM     18  O   UNL     1      -1.708   9.747   0.068  0.00  0.00    -0.457 OA
BRANCH  18  19
ATOM     19  C   UNL     1      -2.150   8.364   0.066  0.00  0.00    +0.288 C 
BRANCH  19  20
ATOM     20  C   UNL     1      -0.950   7.453   0.050  0.00  0.00    +0.086 A 
ATOM     21  C   UNL     1       0.304   7.978   0.041  0.00  0.00    +0.074 A 
ATOM     22  S   UNL     1       1.287   6.484   0.031  0.00  0.00    -0.075 S 
ATOM     23  C   UNL     1      -0.076   5.327   0.031  0.00  0.00    +0.109 A 
ATOM     24  N   UNL     1      -1.114   6.151   0.045  0.00  0.00    -0.241 NA
BRANCH  23  25
ATOM     25  C   UNL     1      -0.051   3.848   0.023  0.00  0.00    +0.011 A 
ATOM     26  C   UNL     1      -1.247   3.128   0.031  0.00  0.00    +0.011 A 
ATOM     27  C   UNL     1      -1.221   1.748   0.017  0.00  0.00    +0.004 A 
ATOM     28  C   UNL     1      -0.013   1.076   0.008  0.00  0.00    +0.045 A 
ATOM     29  C   UNL     1       1.181   1.784   0.000  0.00  0.00    +0.121 A 
ATOM     30  C   UNL     1       1.166   3.169   0.008  0.00  0.00    +0.056 A 
BRANCH  29  31
ATOM     31  O   UNL     1       2.366   1.118  -0.014  0.00  0.00    -0.495 OA
ATOM     32  C   UNL     1       2.307  -0.310  -0.021  0.00  0.00    +0.277 C 
ENDBRANCH  29  31
ENDBRANCH  23  25
ENDBRANCH  19  20
ENDBRANCH  18  19
ENDBRANCH   1  18
TORSDOF 7
