REMARK  Name = ZINC39753390
REMARK  12 active torsions:
REMARK  status: ('A' for Active; 'I' for Inactive)
REMARK    1  A    between atoms: C_1  and  C_2
REMARK    2  A    between atoms: C_2  and  N_3
REMARK    3  A    between atoms: C_4  and  CA_21
REMARK    4  A    between atoms: C_7  and  S_8
REMARK    5  A    between atoms: S_8  and  C_9
REMARK    6  A    between atoms: C_9  and  C_10
REMARK    7  A    between atoms: N_12  and  C_13
REMARK    8  A    between atoms: C_13  and  C_14
REMARK    9  A    between atoms: CA_21  and  C_23
REMARK   10  A    between atoms: CA_21  and  N_25
REMARK   11  A    between atoms: C_23  and  O_24
REMARK   12  A    between atoms: C_26  and  C_28
REMARK                            x       y       z     vdW  Elec       q    Type
REMARK                         _______ _______ _______ _____ _____    ______ ____
ROOT
ATOM      1  N   UNL     1       0.688  -0.476  -1.203  0.00  0.00    -0.305 N 
ATOM      2  C   UNL     1       0.126  -0.748  -2.420  0.00  0.00    +0.157 A 
ATOM      3  N   UNL     1       1.084  -1.140  -3.211  0.00  0.00    -0.131 NA
ATOM      4  N   UNL     1       2.205  -1.136  -2.582  0.00  0.00    -0.122 NA
ATOM      5  C   UNL     1       2.021  -0.732  -1.347  0.00  0.00    +0.192 A 
ENDROOT
BRANCH   1   7
ATOM      6  C   UNL     1      -0.019   1.526   0.010  0.00  0.00    +0.027 C 
ATOM      7  C   UNL     1       0.002  -0.004   0.002  0.00  0.00    +0.122 C 
ENDBRANCH   1   7
BRANCH   5   8
ATOM      8  S   UNL     1       3.261  -0.556  -0.107  0.00  0.00    -0.077 S 
BRANCH   8   9
ATOM      9  C   UNL     1       4.792  -1.052  -0.943  0.00  0.00    +0.173 C 
BRANCH   9  10
ATOM     10  C   UNL     1       5.947  -0.946   0.019  0.00  0.00    +0.224 C 
ATOM     11  O   UNL     1       5.756  -0.573   1.157  0.00  0.00    -0.275 OA
ATOM     12  N   UNL     1       7.192  -1.266  -0.386  0.00  0.00    -0.311 N 
ATOM     13  H   UNL     1       7.345  -1.565  -1.296  0.00  0.00    +0.149 HD
BRANCH  12  14
ATOM     14  C   UNL     1       8.315  -1.163   0.550  0.00  0.00    +0.139 C 
BRANCH  14  15
ATOM     15  C   UNL     1       9.587  -1.575  -0.145  0.00  0.00    -0.030 A 
ATOM     16  C   UNL     1       9.987  -2.899  -0.128  0.00  0.00    +0.008 A 
ATOM     17  C   UNL     1      11.153  -3.278  -0.765  0.00  0.00    +0.038 A 
ATOM     18  C   UNL     1      11.921  -2.332  -1.422  0.00  0.00    +0.123 A 
ATOM     19  C   UNL     1      11.520  -1.006  -1.439  0.00  0.00    +0.038 A 
ATOM     20  C   UNL     1      10.351  -0.631  -0.805  0.00  0.00    +0.008 A 
ATOM     21  F   UNL     1      13.062  -2.701  -2.045  0.00  0.00    -0.205 F 
ENDBRANCH  14  15
ENDBRANCH  12  14
ENDBRANCH   9  10
ENDBRANCH   8   9
ENDBRANCH   5   8
BRANCH   2  22
ATOM     22  CA  UNL     1      -1.332  -0.617  -2.780  0.00  0.00    +0.167 C 
BRANCH  22  23
ATOM     23  N   UNL     1      -1.456   0.048  -4.080  0.00  0.00    -0.299 N 
ATOM     24  C   UNL     1      -2.583   0.720  -4.388  0.00  0.00    +0.245 C 
ATOM     25  O   UNL     1      -3.496   0.774  -3.588  0.00  0.00    -0.270 OA
ATOM     26  H   UNL     1      -0.727   0.004  -4.718  0.00  0.00    +0.150 HD
BRANCH  24  27
ATOM     27  C   UNL     1      -2.709   1.390  -5.699  0.00  0.00    +0.037 A 
ATOM     28  C   UNL     1      -1.664   1.324  -6.623  0.00  0.00    +0.014 A 
ATOM     29  C   UNL     1      -1.787   1.951  -7.845  0.00  0.00    +0.021 A 
ATOM     30  C   UNL     1      -2.944   2.646  -8.156  0.00  0.00    +0.041 A 
ATOM     31  C   UNL     1      -3.984   2.714  -7.244  0.00  0.00    +0.021 A 
ATOM     32  C   UNL     1      -3.875   2.087  -6.021  0.00  0.00    +0.014 A 
ATOM     33 CL   UNL     1      -3.091   3.434  -9.696  0.00  0.00    -0.084 Cl
ENDBRANCH  24  27
ENDBRANCH  22  23
BRANCH  22  34
ATOM     34  C   UNL     1      -1.965  -2.007  -2.856  0.00  0.00    +0.186 C 
BRANCH  34  35
ATOM     35  O   UNL     1      -1.224  -2.820  -3.768  0.00  0.00    -0.393 OA
ATOM     36  H   UNL     1      -1.570  -3.717  -3.866  0.00  0.00    +0.209 HD
ENDBRANCH  34  35
ENDBRANCH  22  34
ENDBRANCH   2  22
TORSDOF 11
