REMARK  Name = ZINC46772612
REMARK  8 active torsions:
REMARK  status: ('A' for Active; 'I' for Inactive)
REMARK    1  A    between atoms: C_1  and  C_2
REMARK    2  A    between atoms: C_7  and  N_8
REMARK    3  A    between atoms: N_8  and  C_9
REMARK    4  A    between atoms: C_9  and  N_11
REMARK    5  A    between atoms: N_11  and  N_12
REMARK    6  A    between atoms: C_13  and  C_15
REMARK    7  A    between atoms: N_18  and  S_21
REMARK    8  A    between atoms: S_21  and  C_24
REMARK                            x       y       z     vdW  Elec       q    Type
REMARK                         _______ _______ _______ _____ _____    ______ ____
ROOT
ATOM      1  C   UNL     1      -0.295   3.549   5.922  0.00  0.00    +0.079 C 
ATOM      2  C   UNL     1       1.000   4.079   5.301  0.00  0.00    +0.030 C 
ATOM      3  C   UNL     1       0.960   5.610   5.277  0.00  0.00    +0.110 C 
ATOM      4  N   UNL     1       0.701   6.097   6.639  0.00  0.00    -0.177 NA
ATOM      5  C   UNL     1      -0.469   5.582   7.363  0.00  0.00    +0.110 C 
ATOM      6  C   UNL     1      -0.413   4.051   7.363  0.00  0.00    +0.030 C 
ENDROOT
BRANCH   1   8
ATOM      7  N   UNL     1      -0.175   1.374   4.750  0.00  0.00    -0.235 N 
ATOM      8  C   UNL     1      -0.274   2.042   5.916  0.00  0.00    +0.232 C 
ATOM      9  O   UNL     1      -0.348   1.430   6.961  0.00  0.00    -0.274 OA
ATOM     10  H   UNL     1      -0.116   1.863   3.914  0.00  0.00    +0.173 HD
BRANCH   7  11
ATOM     11  N   UNL     1      -0.156  -0.027   4.744  0.00  0.00    -0.246 N 
ATOM     12  H   UNL     1      -0.215  -0.516   5.580  0.00  0.00    +0.172 HD
BRANCH  11  13
ATOM     13  C   UNL     1      -0.056  -0.695   3.578  0.00  0.00    +0.151 C 
ATOM     14  S   UNL     1      -0.033  -2.406   3.571  0.00  0.00    -0.017 S 
BRANCH  13  15
ATOM     15  N   UNL     1       0.025  -0.015   2.417  0.00  0.00    -0.296 N 
ATOM     16  H   UNL     1       0.075   0.954   2.425  0.00  0.00    +0.154 HD
BRANCH  15  23
ATOM     17  C   UNL     1      -1.705   0.882   0.344  0.00  0.00    +0.045 C 
ATOM     18  C   UNL     1      -0.792  -0.302   0.162  0.00  0.00    -0.029 A 
ATOM     19  C   UNL     1      -0.773  -0.984  -1.039  0.00  0.00    +0.005 A 
ATOM     20  C   UNL     1       0.064  -2.071  -1.206  0.00  0.00    +0.000 A 
ATOM     21  C   UNL     1       0.886  -2.480  -0.172  0.00  0.00    +0.002 A 
ATOM     22  C   UNL     1       0.873  -1.803   1.032  0.00  0.00    +0.023 A 
ATOM     23  C   UNL     1       0.037  -0.706   1.201  0.00  0.00    +0.036 A 
ENDBRANCH  15  23
ENDBRANCH  13  15
ENDBRANCH  11  13
ENDBRANCH   7  11
ENDBRANCH   1   8
BRANCH   4  24
ATOM     24  S   UNL     1       1.709   7.206   7.344  0.00  0.00    +0.061 S 
ATOM     25  O   UNL     1       1.559   7.055   8.749  0.00  0.00    -0.153 OA
ATOM     26  O   UNL     1       2.967   7.082   6.694  0.00  0.00    -0.153 OA
BRANCH  24  27
ATOM     27  C   UNL     1       1.089   8.805   6.940  0.00  0.00    +0.106 A 
ATOM     28  C   UNL     1       1.529   9.439   5.779  0.00  0.00    +0.029 A 
ATOM     29  C   UNL     1       1.070  10.674   5.438  0.00  0.00    +0.010 A 
ATOM     30  C   UNL     1       0.139  11.323   6.266  0.00  0.00    -0.018 A 
ATOM     31  C   UNL     1      -0.358  12.598   5.947  0.00  0.00    +0.008 A 
ATOM     32  C   UNL     1      -1.260  13.195   6.773  0.00  0.00    +0.001 A 
ATOM     33  C   UNL     1      -1.700  12.562   7.934  0.00  0.00    +0.001 A 
ATOM     34  C   UNL     1      -1.241  11.327   8.275  0.00  0.00    +0.008 A 
ATOM     35  C   UNL     1      -0.309  10.678   7.447  0.00  0.00    -0.016 A 
ATOM     36  C   UNL     1       0.184   9.400   7.763  0.00  0.00    +0.037 A 
ENDBRANCH  24  27
ENDBRANCH   4  24
TORSDOF 7
