REMARK  Name = ZINC35525745
REMARK  8 active torsions:
REMARK  status: ('A' for Active; 'I' for Inactive)
REMARK    1  A    between atoms: C_1  and  C_2
REMARK    2  A    between atoms: C_2  and  C_3
REMARK    3  A    between atoms: C_3  and  C_4
REMARK    4  A    between atoms: N_25  and  C_26
REMARK    5  A    between atoms: C_26  and  C_27
REMARK    6  A    between atoms: C_27  and  O_29
REMARK    7  A    between atoms: O_29  and  C_30
REMARK    8  A    between atoms: C_30  and  C_31
REMARK                            x       y       z     vdW  Elec       q    Type
REMARK                         _______ _______ _______ _____ _____    ______ ____
ROOT
ATOM      1  C   UNL     1      -2.595  -3.104   0.549  0.00  0.00    +0.132 A 
ATOM      2  N   UNL     1      -2.550  -3.707  -0.625  0.00  0.00    -0.217 NA
ATOM      3  C   UNL     1      -1.406  -3.994  -1.226  0.00  0.00    +0.133 A 
ATOM      4  C   UNL     1      -0.183  -3.643  -0.590  0.00  0.00    +0.051 A 
ATOM      5  C   UNL     1       1.188  -3.858  -1.057  0.00  0.00    -0.025 A 
ATOM      6  C   UNL     1       2.182  -3.426  -0.255  0.00  0.00    -0.004 A 
ATOM      7  S   UNL     1       1.367  -2.716   1.150  0.00  0.00    -0.073 S 
ATOM      8  C   UNL     1      -0.312  -3.003   0.658  0.00  0.00    +0.114 A 
ATOM      9  N   UNL     1      -1.495  -2.750   1.184  0.00  0.00    -0.225 NA
ATOM     10  C   UNL     1       3.656  -3.527  -0.503  0.00  0.00    +0.043 C 
ATOM     11  C   UNL     1       3.889  -4.534  -1.639  0.00  0.00    +0.005 C 
ATOM     12  C   UNL     1       2.935  -4.203  -2.790  0.00  0.00    +0.005 C 
ATOM     13  C   UNL     1       1.499  -4.539  -2.387  0.00  0.00    +0.037 C 
ATOM     14  N   UNL     1      -1.400  -4.626  -2.457  0.00  0.00    -0.312 N 
ATOM     15  C   UNL     1      -1.268  -6.087  -2.546  0.00  0.00    +0.125 C 
ATOM     16  C   UNL     1      -2.452  -6.638  -3.350  0.00  0.00    +0.128 C 
ATOM     17  N   UNL     1      -2.578  -5.861  -4.592  0.00  0.00    -0.283 N 
ATOM     18  C   UNL     1      -2.710  -4.400  -4.502  0.00  0.00    +0.128 C 
ATOM     19  C   UNL     1      -1.532  -3.850  -3.697  0.00  0.00    +0.125 C 
ATOM     20  C   UNL     1      -2.572  -6.478  -5.790  0.00  0.00    +0.303 C 
ATOM     21  O   UNL     1      -2.558  -7.692  -5.849  0.00  0.00    -0.253 OA
ATOM     22  N   UNL     1      -2.582  -5.748  -6.923  0.00  0.00    -0.289 N 
ATOM     23  H   UNL     1      -2.518  -4.781  -6.878  0.00  0.00    +0.151 HD
ENDROOT
BRANCH   1  24
ATOM     24  C   UNL     1      -3.935  -2.809   1.174  0.00  0.00    +0.076 C 
BRANCH  24  26
ATOM     25  C   UNL     1      -5.776  -1.131   1.356  0.00  0.00    +0.004 C 
ATOM     26  C   UNL     1      -4.417  -1.430   0.721  0.00  0.00    +0.004 C 
ENDBRANCH  24  26
ENDBRANCH   1  24
BRANCH  22  27
ATOM     27  C   UNL     1      -2.690  -6.415  -8.223  0.00  0.00    +0.226 C 
BRANCH  27  28
ATOM     28  C   UNL     1      -2.679  -5.382  -9.320  0.00  0.00    +0.324 C 
ATOM     29  O   UNL     1      -2.589  -4.209  -9.045  0.00  0.00    -0.249 OA
BRANCH  28  30
ATOM     30  O   UNL     1      -2.768  -5.765 -10.604  0.00  0.00    -0.464 OA
BRANCH  30  31
ATOM     31  C   UNL     1      -2.751  -4.732 -11.591  0.00  0.00    +0.229 C 
ATOM     32  C   UNL     1      -2.860  -5.357 -12.984  0.00  0.00    +0.048 C 
ENDBRANCH  30  31
ENDBRANCH  28  30
ENDBRANCH  27  28
ENDBRANCH  22  27
TORSDOF 6
