REMARK  Name = ZINC45670668
REMARK  11 active torsions:
REMARK  status: ('A' for Active; 'I' for Inactive)
REMARK    1  A    between atoms: C_1  and  C_2
REMARK    2  A    between atoms: C_6  and  N_28
REMARK    3  A    between atoms: C_7  and  N_8
REMARK    4  A    between atoms: C_9  and  C_11
REMARK    5  A    between atoms: C_11  and  O_12
REMARK    6  A    between atoms: O_12  and  C_13
REMARK    7  A    between atoms: C_13  and  C_15
REMARK    8  A    between atoms: C_18  and  S_21
REMARK    9  A    between atoms: S_21  and  N_24
REMARK   10  A    between atoms: N_24  and  C_25
REMARK   11  A    between atoms: C_25  and  C_26
REMARK                            x       y       z     vdW  Elec       q    Type
REMARK                         _______ _______ _______ _____ _____    ______ ____
ROOT
ATOM      1  O   UNL     1      -0.615  -0.950   5.940  0.00  0.00    -0.452 OA
ENDROOT
BRANCH   1   2
ATOM      2  C   UNL     1      -0.649  -0.465   7.196  0.00  0.00    +0.340 C 
ATOM      3  O   UNL     1      -0.497   0.724   7.393  0.00  0.00    -0.245 OA
BRANCH   2   4
ATOM      4  C   UNL     1      -0.871  -1.380   8.335  0.00  0.00    +0.059 A 
ATOM      5  C   UNL     1      -1.041  -2.748   8.113  0.00  0.00    +0.017 A 
ATOM      6  C   UNL     1      -1.248  -3.596   9.181  0.00  0.00    +0.029 A 
ATOM      7  C   UNL     1      -1.288  -3.094  10.470  0.00  0.00    +0.105 A 
ATOM      8  C   UNL     1      -1.121  -1.739  10.697  0.00  0.00    +0.029 A 
ATOM      9  C   UNL     1      -0.907  -0.881   9.639  0.00  0.00    +0.017 A 
BRANCH   7  10
ATOM     10  S   UNL     1      -1.554  -4.185  11.828  0.00  0.00    +0.059 S 
ATOM     11  O   UNL     1      -2.092  -3.398  12.882  0.00  0.00    -0.153 OA
ATOM     12  O   UNL     1      -2.225  -5.324  11.309  0.00  0.00    -0.153 OA
BRANCH  10  13
ATOM     13  N   UNL     1      -0.066  -4.703  12.338  0.00  0.00    -0.178 NA
ATOM     14  H   UNL     1       0.175  -5.639  12.259  0.00  0.00    +0.149 HD
BRANCH  13  15
ATOM     15  C   UNL     1       0.887  -3.747  12.908  0.00  0.00    +0.194 C 
BRANCH  15  16
ATOM     16  C   UNL     1       1.960  -4.478  13.601  0.00  0.00    -0.089 C 
ATOM     17  C   UNL     1       2.816  -5.061  14.155  0.00  0.00    +0.005 C 
ENDBRANCH  15  16
ENDBRANCH  13  15
ENDBRANCH  10  13
ENDBRANCH   7  10
ENDBRANCH   2   4
ENDBRANCH   1   2
BRANCH   1  18
ATOM     18  C   UNL     1      -0.396  -0.009   4.887  0.00  0.00    +0.328 C 
BRANCH  18  20
ATOM     19  N   UNL     1      -0.199  -0.038   2.422  0.00  0.00    -0.281 N 
ATOM     20  C   UNL     1      -0.390  -0.729   3.563  0.00  0.00    +0.255 C 
ATOM     21  O   UNL     1      -0.557  -1.929   3.525  0.00  0.00    -0.272 OA
ATOM     22  H   UNL     1      -0.114   0.928   2.448  0.00  0.00    +0.155 HD
BRANCH  19  29
ATOM     23  C   UNL     1       1.720  -2.122   2.154  0.00  0.00    +0.046 C 
ATOM     24  C   UNL     1       0.798  -1.738   1.026  0.00  0.00    -0.027 A 
ATOM     25  C   UNL     1       0.866  -2.408  -0.181  0.00  0.00    +0.005 A 
ATOM     26  C   UNL     1       0.021  -2.056  -1.217  0.00  0.00    +0.003 A 
ATOM     27  C   UNL     1      -0.895  -1.033  -1.049  0.00  0.00    +0.034 A 
ATOM     28  C   UNL     1      -0.968  -0.360   0.155  0.00  0.00    +0.148 A 
ATOM     29  C   UNL     1      -0.124  -0.715   1.199  0.00  0.00    +0.067 A 
BRANCH  28  30
ATOM     30  N   UNL     1      -1.948   0.734   0.333  0.00  0.00    +0.058 N 
ATOM     31  O   UNL     1      -2.752   0.974  -0.538  0.00  0.00    -0.126 OA
ATOM     32  O   UNL     1      -1.946   1.388   1.350  0.00  0.00    -0.126 OA
ENDBRANCH  28  30
ENDBRANCH  19  29
ENDBRANCH  18  20
ENDBRANCH   1  18
TORSDOF 10
