REMARK  Name = ZINC08856947
REMARK  13 active torsions:
REMARK  status: ('A' for Active; 'I' for Inactive)
REMARK    1  A    between atoms: C_1  and  C_2
REMARK    2  A    between atoms: C_2  and  O_3
REMARK    3  A    between atoms: O_3  and  C_4
REMARK    4  A    between atoms: C_4  and  C_6
REMARK    5  A    between atoms: C_7  and  C_29
REMARK    6  A    between atoms: C_8  and  C_24
REMARK    7  A    between atoms: C_10  and  N_11
REMARK    8  A    between atoms: C_12  and  C_14
REMARK    9  A    between atoms: C_18  and  N_21
REMARK   10  A    between atoms: C_19  and  C_20
REMARK   11  A    between atoms: C_24  and  O_26
REMARK   12  A    between atoms: O_26  and  C_27
REMARK   13  A    between atoms: C_27  and  C_28
REMARK                            x       y       z     vdW  Elec       q    Type
REMARK                         _______ _______ _______ _____ _____    ______ ____
ROOT
ATOM      1  C   UNL     1       1.000   4.311   0.052  0.00  0.00    +0.091 A 
ATOM      2  C   UNL     1       0.989   5.174  -1.033  0.00  0.00    -0.014 A 
ATOM      3  C   UNL     1       1.075   6.516  -0.779  0.00  0.00    +0.102 A 
ATOM      4  S   UNL     1       1.174   6.573   1.000  0.00  0.00    -0.066 S 
ATOM      5  C   UNL     1       1.094   4.874   1.330  0.00  0.00    +0.087 A 
ATOM      6  C   UNL     1       0.886   4.652  -2.443  0.00  0.00    +0.046 C 
ENDROOT
BRANCH   5   7
ATOM      7  N   UNL     1       1.119   4.233   2.552  0.00  0.00    -0.275 N 
ATOM      8  C   UNL     1       1.214   4.952   3.688  0.00  0.00    +0.249 C 
ATOM      9  O   UNL     1       1.278   6.164   3.636  0.00  0.00    -0.270 OA
ATOM     10  H   UNL     1       1.068   3.265   2.593  0.00  0.00    +0.156 HD
BRANCH   8  11
ATOM     11  C   UNL     1       1.241   4.265   4.997  0.00  0.00    +0.042 A 
ATOM     12  C   UNL     1       1.034   2.886   5.069  0.00  0.00    +0.013 A 
ATOM     13  C   UNL     1       1.061   2.252   6.294  0.00  0.00    +0.003 A 
ATOM     14  C   UNL     1       1.292   2.979   7.448  0.00  0.00    +0.033 A 
ATOM     15  C   UNL     1       1.497   4.345   7.383  0.00  0.00    +0.130 A 
ATOM     16  C   UNL     1       1.478   4.992   6.165  0.00  0.00    -0.008 A 
ATOM     17  C   UNL     1       1.707   6.479   6.095  0.00  0.00    +0.047 C 
BRANCH  15  18
ATOM     18  N   UNL     1       1.743   5.115   8.623  0.00  0.00    +0.057 N 
ATOM     19  O   UNL     1       1.889   4.532   9.683  0.00  0.00    -0.126 OA
ATOM     20  O   UNL     1       1.801   6.331   8.584  0.00  0.00    -0.126 OA
ENDBRANCH  15  18
ENDBRANCH   8  11
ENDBRANCH   5   7
BRANCH   1  21
ATOM     21  C   UNL     1       0.911   2.858  -0.133  0.00  0.00    +0.342 C 
ATOM     22  O   UNL     1       1.925   2.199  -0.266  0.00  0.00    -0.245 OA
BRANCH  21  23
ATOM     23  O   UNL     1      -0.294   2.254  -0.155  0.00  0.00    -0.461 OA
BRANCH  23  25
ATOM     24  C   UNL     1      -1.751   0.312  -0.340  0.00  0.00    +0.048 C 
ATOM     25  C   UNL     1      -0.306   0.814  -0.342  0.00  0.00    +0.229 C 
ENDBRANCH  23  25
ENDBRANCH  21  23
ENDBRANCH   1  21
BRANCH   3  26
ATOM     26  C   UNL     1       1.084   7.627  -1.730  0.00  0.00    +0.346 C 
ATOM     27  O   UNL     1       1.008   7.406  -2.924  0.00  0.00    -0.244 OA
BRANCH  26  28
ATOM     28  O   UNL     1       1.177   8.897  -1.283  0.00  0.00    -0.461 OA
BRANCH  28  29
ATOM     29  C   UNL     1       1.180   9.933  -2.268  0.00  0.00    +0.229 C 
ATOM     30  C   UNL     1       1.291  11.293  -1.577  0.00  0.00    +0.048 C 
ENDBRANCH  28  29
ENDBRANCH  26  28
ENDBRANCH   3  26
TORSDOF 9
