REMARK  Name = ZINC40814551
REMARK  10 active torsions:
REMARK  status: ('A' for Active; 'I' for Inactive)
REMARK    1  A    between atoms: C_1  and  C_2
REMARK    2  A    between atoms: C_6  and  C_7
REMARK    3  A    between atoms: N_9  and  C_10
REMARK    4  A    between atoms: C_10  and  C_11
REMARK    5  A    between atoms: C_10  and  C_12
REMARK    6  A    between atoms: C_10  and  C_13
REMARK    7  A    between atoms: N_18  and  N_19
REMARK    8  A    between atoms: C_20  and  C_22
REMARK    9  A    between atoms: C_22  and  C_23
REMARK   10  A    between atoms: C_26  and  N_29
REMARK                            x       y       z     vdW  Elec       q    Type
REMARK                         _______ _______ _______ _____ _____    ______ ____
ROOT
ATOM      1  C   UNL     1      -0.018   1.503   0.010  0.00  0.00    +0.048 C 
ATOM      2  C   UNL     1       0.002  -0.004   0.002  0.00  0.00    +0.009 A 
ATOM      3  C   UNL     1       0.009  -0.838  -1.123  0.00  0.00    +0.042 A 
ATOM      4  C   UNL     1       0.027  -2.137  -0.673  0.00  0.00    +0.115 A 
ATOM      5  O   UNL     1       0.035  -2.112   0.658  0.00  0.00    -0.454 OA
ATOM      6  C   UNL     1       0.024  -0.830   1.091  0.00  0.00    +0.193 A 
ATOM      7  C   UNL     1       0.034  -3.327  -1.599  0.00  0.00    +0.075 C 
ATOM      8  C   UNL     1      -0.492  -2.903  -2.974  0.00  0.00    +0.014 C 
ATOM      9  C   UNL     1       0.279  -1.685  -3.495  0.00  0.00    +0.058 C 
ATOM     10  C   UNL     1       0.000  -0.512  -2.566  0.00  0.00    +0.070 C 
ATOM     11  N   UNL     1      -0.228   0.686  -3.008  0.00  0.00    -0.184 NA
ENDROOT
BRANCH   6  12
ATOM     12  C   UNL     1       0.031  -0.400   2.493  0.00  0.00    +0.280 C 
ATOM     13  O   UNL     1       0.016   0.786   2.766  0.00  0.00    -0.267 OA
ATOM     14  N   UNL     1       0.053  -1.317   3.480  0.00  0.00    -0.304 N 
ATOM     15  H   UNL     1       0.065  -2.263   3.263  0.00  0.00    +0.150 HD
BRANCH  14  16
ATOM     16  C   UNL     1       0.060  -0.887   4.881  0.00  0.00    +0.027 C 
ATOM     17  C   UNL     1      -1.199  -0.066   5.168  0.00  0.00    +0.031 C 
ATOM     18  C   UNL     1       0.086  -2.116   5.792  0.00  0.00    +0.031 C 
ATOM     19  C   UNL     1       1.300  -0.030   5.145  0.00  0.00    +0.031 C 
ENDBRANCH  14  16
ENDBRANCH   6  12
BRANCH  11  20
ATOM     20  N   UNL     1      -0.224   0.938  -4.386  0.00  0.00    -0.206 N 
ATOM     21  C   UNL     1      -0.461   2.183  -4.845  0.00  0.00    +0.237 C 
ATOM     22  O   UNL     1      -0.678   3.085  -4.064  0.00  0.00    -0.274 OA
ATOM     23  H   UNL     1      -0.050   0.216  -5.010  0.00  0.00    +0.177 HD
BRANCH  21  24
ATOM     24  C   UNL     1      -0.456   2.453  -6.327  0.00  0.00    +0.132 C 
BRANCH  24  25
ATOM     25  C   UNL     1      -0.746   3.911  -6.572  0.00  0.00    -0.038 A 
ATOM     26  C   UNL     1      -2.050   4.340  -6.727  0.00  0.00    +0.006 A 
ATOM     27  C   UNL     1      -2.316   5.678  -6.952  0.00  0.00    +0.033 A 
ATOM     28  C   UNL     1      -1.277   6.587  -7.022  0.00  0.00    +0.126 A 
ATOM     29  C   UNL     1       0.028   6.158  -6.867  0.00  0.00    +0.033 A 
ATOM     30  C   UNL     1       0.293   4.821  -6.638  0.00  0.00    +0.006 A 
BRANCH  28  31
ATOM     31  N   UNL     1      -1.561   8.019  -7.265  0.00  0.00    +0.056 N 
ATOM     32  O   UNL     1      -2.702   8.394  -7.401  0.00  0.00    -0.126 OA
ATOM     33  O   UNL     1      -0.652   8.814  -7.326  0.00  0.00    -0.126 OA
ENDBRANCH  28  31
ENDBRANCH  24  25
ENDBRANCH  21  24
ENDBRANCH  11  20
TORSDOF 6
