REMARK  Name = ZINC58857898
REMARK  5 active torsions:
REMARK  status: ('A' for Active; 'I' for Inactive)
REMARK    1  A    between atoms: C_1  and  C_2
REMARK    2  A    between atoms: C_7  and  C_10
REMARK    3  A    between atoms: N_13  and  C_14
REMARK    4  A    between atoms: C_19  and  O_20
REMARK    5  A    between atoms: O_20  and  C_21
REMARK                            x       y       z     vdW  Elec       q    Type
REMARK                         _______ _______ _______ _____ _____    ______ ____
ROOT
ATOM      1  C   UNL     1      -2.574  -5.003  -1.411  0.00  0.00    +0.079 A 
ATOM      2  C   UNL     1      -3.269  -4.470  -2.487  0.00  0.00    +0.047 A 
ATOM      3  C   UNL     1      -3.925  -5.310  -3.369  0.00  0.00    +0.043 A 
ATOM      4  C   UNL     1      -3.889  -6.680  -3.182  0.00  0.00    +0.024 A 
ATOM      5  C   UNL     1      -3.197  -7.217  -2.112  0.00  0.00    +0.049 A 
ATOM      6  C   UNL     1      -2.534  -6.383  -1.227  0.00  0.00    +0.150 A 
ATOM      7 CL   UNL     1      -4.795  -4.642  -4.715  0.00  0.00    -0.083 Cl
ENDROOT
BRANCH   1  18
ATOM      8  C   UNL     1       0.426  -2.318   3.555  0.00  0.00    +0.039 C 
ATOM      9  C   UNL     1      -0.743  -1.960   2.635  0.00  0.00    +0.133 C 
ATOM     10  C   UNL     1      -0.485  -2.525   1.234  0.00  0.00    +0.140 C 
ATOM     11  N   UNL     1      -1.524  -2.012   0.328  0.00  0.00    -0.280 N 
ATOM     12  C   UNL     1      -1.776  -0.562   0.315  0.00  0.00    +0.140 C 
ATOM     13  C   UNL     1      -1.971  -0.092   1.761  0.00  0.00    +0.133 C 
ATOM     14  O   UNL     1      -0.869  -0.538   2.555  0.00  0.00    -0.371 OA
ATOM     15  C   UNL     1      -3.271  -0.677   2.317  0.00  0.00    +0.039 C 
ATOM     16  C   UNL     1      -2.224  -2.845  -0.468  0.00  0.00    +0.307 C 
ATOM     17  O   UNL     1      -3.140  -2.415  -1.141  0.00  0.00    -0.252 OA
ATOM     18  N   UNL     1      -1.909  -4.154  -0.516  0.00  0.00    -0.266 N 
ATOM     19  H   UNL     1      -1.222  -4.510   0.070  0.00  0.00    +0.156 HD
ENDBRANCH   1  18
BRANCH   6  20
ATOM     20  O   UNL     1      -1.848  -6.910  -0.177  0.00  0.00    -0.454 OA
BRANCH  20  21
ATOM     21  C   UNL     1      -1.915  -8.253   0.018  0.00  0.00    +0.129 A 
ATOM     22  C   UNL     1      -1.174  -9.110  -0.783  0.00  0.00    +0.046 A 
ATOM     23  C   UNL     1      -1.244 -10.475  -0.582  0.00  0.00    +0.004 A 
ATOM     24  C   UNL     1      -2.051 -10.987   0.417  0.00  0.00    +0.000 A 
ATOM     25  C   UNL     1      -2.790 -10.136   1.217  0.00  0.00    +0.004 A 
ATOM     26  C   UNL     1      -2.720  -8.770   1.024  0.00  0.00    +0.046 A 
ENDBRANCH  20  21
ENDBRANCH   6  20
TORSDOF 3
