REMARK  Name = ZINC13766228
REMARK  8 active torsions:
REMARK  status: ('A' for Active; 'I' for Inactive)
REMARK    1  A    between atoms: C_3  and  C_7
REMARK    2  A    between atoms: C_7  and  C_9
REMARK    3  A    between atoms: C_7  and  C_28
REMARK    4  A    between atoms: C_9  and  C_10
REMARK    5  A    between atoms: C_16  and  C_18
REMARK    6  A    between atoms: N_20  and  C_21
REMARK    7  A    between atoms: C_21  and  C_22
REMARK    8  A    between atoms: C_25  and  N_69
REMARK                            x       y       z     vdW  Elec       q    Type
REMARK                         _______ _______ _______ _____ _____    ______ ____
ROOT
ATOM      1  C   UNL     1      -0.119   1.133   0.754  0.00  0.00    +0.217 C 
ATOM      2  O   UNL     1      -0.012   0.007   0.317  0.00  0.00    -0.276 OA
ATOM      3  N   UNL     1       0.949   1.749   1.299  0.00  0.00    -0.290 N 
ATOM      4  C   UNL     1       0.961   3.112   1.859  0.00  0.00    +0.108 C 
ATOM      5  C   UNL     1       2.139   3.114   2.868  0.00  0.00    +0.021 C 
ATOM      6  C   UNL     1       3.178   2.227   2.131  0.00  0.00    +0.033 C 
ATOM      7  C   UNL     1       2.296   1.175   1.427  0.00  0.00    +0.162 C 
ENDROOT
BRANCH   7   8
ATOM      8  C   UNL     1       2.241  -0.084   2.254  0.00  0.00    +0.234 C 
ATOM      9  O   UNL     1       1.181  -0.471   2.699  0.00  0.00    -0.274 OA
ATOM     10  N   UNL     1       3.369  -0.779   2.500  0.00  0.00    -0.314 N 
ATOM     11  H   UNL     1       4.217  -0.469   2.145  0.00  0.00    +0.149 HD
BRANCH  10  12
ATOM     12  C   UNL     1       3.315  -2.002   3.305  0.00  0.00    +0.107 C 
BRANCH  12  13
ATOM     13  C   UNL     1       4.721  -2.591   3.432  0.00  0.00    +0.006 C 
ATOM     14  C   UNL     1       5.215  -3.035   2.053  0.00  0.00    +0.003 C 
ATOM     15  C   UNL     1       6.621  -3.624   2.180  0.00  0.00    -0.016 C 
ATOM     16  C   UNL     1       6.586  -4.830   3.121  0.00  0.00    -0.075 C 
ATOM     17  C   UNL     1       6.092  -4.386   4.500  0.00  0.00    -0.016 C 
ATOM     18  C   UNL     1       4.686  -3.797   4.373  0.00  0.00    +0.003 C 
BRANCH  16  21
ATOM     19  H   UNL     1       5.980  -6.157   1.669  0.00  0.00    -0.090 HD
ATOM     20  H   UNL     1       5.585  -6.626   3.215  0.00  0.00    -0.090 HD
ATOM     21  N   UNL     1       5.654  -5.834   2.578  0.00  0.00    +0.380 N 
ATOM     22  H   UNL     1       4.725  -5.409   2.470  0.00  0.00    -0.090 HD
ENDBRANCH  16  21
ENDBRANCH  12  13
ENDBRANCH  10  12
ENDBRANCH   7   8
BRANCH   1  23
ATOM     23  C   UNL     1      -1.445   1.846   0.683  0.00  0.00    +0.109 C 
BRANCH  23  24
ATOM     24  C   UNL     1      -2.479   0.934   0.019  0.00  0.00    +0.059 C 
BRANCH  24  25
ATOM     25  C   UNL     1      -3.832   1.598   0.058  0.00  0.00    -0.036 A 
ATOM     26  C   UNL     1      -3.979   2.890  -0.409  0.00  0.00    +0.008 A 
ATOM     27  C   UNL     1      -5.219   3.501  -0.380  0.00  0.00    +0.050 A 
ATOM     28  C   UNL     1      -6.315   2.822   0.127  0.00  0.00    +0.166 A 
ATOM     29  C   UNL     1      -6.165   1.522   0.602  0.00  0.00    +0.167 A 
ATOM     30  C   UNL     1      -4.920   0.914   0.565  0.00  0.00    +0.053 A 
ATOM     31  O   UNL     1      -7.377   1.076   1.045  0.00  0.00    -0.453 OA
ATOM     32  C   UNL     1      -8.349   1.964   0.461  0.00  0.00    +0.466 C 
ATOM     33  O   UNL     1      -7.621   3.192   0.272  0.00  0.00    -0.453 OA
ENDBRANCH  24  25
BRANCH  24  36
ATOM     34  C   UNL     1      -1.633  -0.791  -3.228  0.00  0.00    +0.020 A 
ATOM     35  C   UNL     1      -2.001  -0.609  -1.904  0.00  0.00    +0.007 A 
ATOM     36  C   UNL     1      -2.083   0.685  -1.413  0.00  0.00    -0.021 A 
ATOM     37  C   UNL     1      -1.802   1.744  -2.257  0.00  0.00    +0.115 A 
ATOM     38  N   UNL     1      -1.450   1.533  -3.510  0.00  0.00    -0.263 NA
ATOM     39  C   UNL     1      -1.361   0.316  -4.010  0.00  0.00    +0.111 A 
ENDBRANCH  24  36
ENDBRANCH  23  24
ENDBRANCH   1  23
TORSDOF 8
