REMARK  Name = ZINC32994636
REMARK  7 active torsions:
REMARK  status: ('A' for Active; 'I' for Inactive)
REMARK    1  A    between atoms: C_1  and  C_2
REMARK    2  A    between atoms: C_2  and  C_3
REMARK    3  A    between atoms: C_2  and  C_4
REMARK    4  A    between atoms: C_2  and  O_20
REMARK    5  A    between atoms: N_6  and  C_7
REMARK    6  A    between atoms: C_12  and  N_13
REMARK    7  A    between atoms: O_20  and  C_21
REMARK                            x       y       z     vdW  Elec       q    Type
REMARK                         _______ _______ _______ _____ _____    ______ ____
ROOT
ATOM      1  C   UNL     1       2.359   5.785   0.263  0.00  0.00    +0.261 C 
ATOM      2  O   UNL     1       1.271   6.198   0.607  0.00  0.00    -0.271 OA
ATOM      3  N   UNL     1       3.382   6.645   0.089  0.00  0.00    -0.280 N 
ATOM      4  H   UNL     1       4.341   6.285  -0.312  0.00  0.00    +0.155 HD
ENDROOT
BRANCH   3   5
ATOM      5  C   UNL     1       3.225   7.997   0.421  0.00  0.00    +0.068 A 
ATOM      6  C   UNL     1       2.005   8.625   0.213  0.00  0.00    +0.075 A 
ATOM      7  C   UNL     1       1.849   9.963   0.542  0.00  0.00    +0.164 A 
ATOM      8  C   UNL     1       2.916  10.673   1.080  0.00  0.00    +0.164 A 
ATOM      9  C   UNL     1       4.134  10.042   1.285  0.00  0.00    +0.084 A 
ATOM     10  C   UNL     1       4.287   8.707   0.963  0.00  0.00    +0.151 A 
ATOM     11  O   UNL     1       2.782  11.987   1.413  0.00  0.00    -0.485 OA
ATOM     12  C   UNL     1       1.666  12.682   0.847  0.00  0.00    +0.270 C 
ATOM     13  C   UNL     1       0.418  11.803   1.012  0.00  0.00    +0.270 C 
ATOM     14  O   UNL     1       0.648  10.567   0.328  0.00  0.00    -0.485 OA
BRANCH  10  15
ATOM     15  N   UNL     1       5.587   8.036   1.189  0.00  0.00    +0.058 N 
ATOM     16  O   UNL     1       6.502   8.642   1.717  0.00  0.00    -0.126 OA
ATOM     17  O   UNL     1       5.742   6.877   0.846  0.00  0.00    -0.126 OA
ENDBRANCH  10  15
ENDBRANCH   3   5
BRANCH   1  19
ATOM     18  C   UNL     1       3.649   3.791   0.976  0.00  0.00    +0.065 C 
ATOM     19  C   UNL     1       2.565   4.311   0.029  0.00  0.00    +0.180 C 
ATOM     20  C   UNL     1       3.001   4.080  -1.420  0.00  0.00    +0.065 C 
BRANCH  19  21
ATOM     21  O   UNL     1       1.343   3.613   0.276  0.00  0.00    -0.477 OA
BRANCH  21  22
ATOM     22  C   UNL     1       0.815   3.716   1.524  0.00  0.00    +0.122 A 
ATOM     23  C   UNL     1      -0.306   2.975   1.867  0.00  0.00    +0.047 A 
ATOM     24  C   UNL     1      -0.841   3.080   3.137  0.00  0.00    +0.023 A 
ATOM     25  C   UNL     1      -0.258   3.923   4.066  0.00  0.00    +0.041 A 
ATOM     26  C   UNL     1       0.861   4.663   3.726  0.00  0.00    +0.023 A 
ATOM     27  C   UNL     1       1.398   4.561   2.457  0.00  0.00    +0.047 A 
ATOM     28 CL   UNL     1      -0.931   4.053   5.661  0.00  0.00    -0.084 Cl
ENDBRANCH  21  22
ENDBRANCH  19  21
ENDBRANCH   1  19
TORSDOF 5
