REMARK  Name = ZINC09885632
REMARK  11 active torsions:
REMARK  status: ('A' for Active; 'I' for Inactive)
REMARK    1  A    between atoms: C_1  and  C_2
REMARK    2  A    between atoms: C_2  and  C_3
REMARK    3  A    between atoms: C_3  and  C_4
REMARK    4  A    between atoms: C_7  and  S_10
REMARK    5  A    between atoms: S_10  and  N_13
REMARK    6  A    between atoms: N_21  and  C_22
REMARK    7  A    between atoms: C_22  and  C_23
REMARK    8  A    between atoms: C_29  and  C_30
REMARK    9  A    between atoms: C_29  and  N_70
REMARK   10  A    between atoms: C_30  and  C_31
REMARK   11  A    between atoms: C_30  and  C_32
REMARK                            x       y       z     vdW  Elec       q    Type
REMARK                         _______ _______ _______ _____ _____    ______ ____
ROOT
ATOM      1  N   UNL     1      -3.155   9.634   9.435  0.00  0.00    -0.174 NA
ATOM      2  C   UNL     1      -2.644  10.648   8.502  0.00  0.00    +0.128 C 
ATOM      3  C   UNL     1      -3.361  10.481   7.156  0.00  0.00    +0.126 C 
ATOM      4  N   UNL     1      -3.303   9.065   6.766  0.00  0.00    -0.283 N 
ATOM      5  C   UNL     1      -3.819   8.052   7.697  0.00  0.00    +0.126 C 
ATOM      6  C   UNL     1      -3.097   8.218   9.045  0.00  0.00    +0.128 C 
ATOM      7  C   UNL     1      -2.791   8.703   5.573  0.00  0.00    +0.302 C 
ATOM      8  O   UNL     1      -2.831   7.540   5.221  0.00  0.00    -0.253 OA
ATOM      9  N   UNL     1      -2.233   9.631   4.770  0.00  0.00    -0.297 N 
ATOM     10  H   UNL     1      -2.266  10.568   5.016  0.00  0.00    +0.150 HD
ENDROOT
BRANCH   1  11
ATOM     11  S   UNL     1      -3.785  10.079  10.901  0.00  0.00    +0.061 S 
ATOM     12  O   UNL     1      -3.662   8.949  11.755  0.00  0.00    -0.153 OA
ATOM     13  O   UNL     1      -3.216  11.341  11.221  0.00  0.00    -0.153 OA
BRANCH  11  17
ATOM     14  C   UNL     1      -8.217  10.771  10.299  0.00  0.00    -0.047 A 
ATOM     15  C   UNL     1      -7.755   9.516  10.648  0.00  0.00    +0.005 A 
ATOM     16  C   UNL     1      -6.401   9.304  10.831  0.00  0.00    +0.029 A 
ATOM     17  C   UNL     1      -5.510  10.348  10.667  0.00  0.00    +0.105 A 
ATOM     18  C   UNL     1      -5.973  11.605  10.324  0.00  0.00    +0.029 A 
ATOM     19  C   UNL     1      -7.326  11.815  10.136  0.00  0.00    +0.005 A 
BRANCH  14  20
ATOM     20  C   UNL     1      -9.693  11.002  10.098  0.00  0.00    +0.035 C 
BRANCH  20  22
ATOM     21  C   UNL     1     -11.829  11.650  11.221  0.00  0.00    +0.004 C 
ATOM     22  C   UNL     1     -10.331  11.416  11.426  0.00  0.00    +0.001 C 
ENDBRANCH  20  22
ENDBRANCH  14  20
ENDBRANCH  11  17
ENDBRANCH   1  11
BRANCH   9  23
ATOM     23  C   UNL     1      -1.578   9.223   3.525  0.00  0.00    +0.135 C 
BRANCH  23  24
ATOM     24  C   UNL     1      -1.033  10.459   2.806  0.00  0.00    +0.119 C 
ATOM     25  C   UNL     1      -0.459  10.049   1.447  0.00  0.00    -0.045 C 
ATOM     26  C   UNL     1       1.188  11.812   1.633  0.00  0.00    -0.050 C 
ATOM     27  C   UNL     1       0.597  12.205   2.990  0.00  0.00    +0.141 C 
ATOM     28  O   UNL     1       0.001  11.054   3.595  0.00  0.00    -0.379 OA
ATOM     29  N   UNL     1       0.111  11.246   0.793  0.00  0.00    +0.383 N 
ATOM     30  H   UNL     1      -0.628  11.949   0.679  0.00  0.00    -0.082 HD
BRANCH  29  31
ATOM     31  C   UNL     1       0.644  10.888  -0.539  0.00  0.00    -0.076 C 
BRANCH  31  32
ATOM     32  C   UNL     1       1.019  12.172  -1.283  0.00  0.00    -0.034 C 
ATOM     33  C   UNL     1       1.669  11.815  -2.621  0.00  0.00    +0.005 C 
ATOM     34  C   UNL     1      -0.240  13.003  -1.533  0.00  0.00    +0.005 C 
ENDBRANCH  31  32
ENDBRANCH  29  31
ENDBRANCH  23  24
ENDBRANCH   9  23
TORSDOF 8
