REMARK  Name = ZINC48324268
REMARK  8 active torsions:
REMARK  status: ('A' for Active; 'I' for Inactive)
REMARK    1  A    between atoms: C_1  and  C_2
REMARK    2  A    between atoms: C_5  and  C_8
REMARK    3  A    between atoms: C_5  and  N_12
REMARK    4  A    between atoms: C_8  and  O_10
REMARK    5  A    between atoms: O_10  and  C_11
REMARK    6  A    between atoms: C_13  and  C_15
REMARK    7  A    between atoms: C_18  and  N_21
REMARK    8  A    between atoms: C_25  and  C_28
REMARK                            x       y       z     vdW  Elec       q    Type
REMARK                         _______ _______ _______ _____ _____    ______ ____
ROOT
ATOM      1  C   UNL     1       3.536  -4.086   0.957  0.00  0.00    +0.037 A 
ATOM      2  C   UNL     1       2.950  -4.789  -0.100  0.00  0.00    +0.015 A 
ATOM      3  C   UNL     1       2.971  -6.165  -0.105  0.00  0.00    +0.024 A 
ATOM      4  C   UNL     1       3.574  -6.857   0.942  0.00  0.00    +0.030 A 
ATOM      5  C   UNL     1       4.157  -6.160   1.996  0.00  0.00    +0.024 A 
ATOM      6  C   UNL     1       4.145  -4.784   2.004  0.00  0.00    +0.015 A 
ENDROOT
BRANCH   4   7
ATOM      7  N   UNL     1       3.593  -8.247   0.934  0.00  0.00    -0.329 N 
ATOM      8  C   UNL     1       4.328  -8.992   1.966  0.00  0.00    +0.105 C 
ATOM      9  C   UNL     1       3.377 -10.000   2.618  0.00  0.00    +0.020 C 
ATOM     10  C   UNL     1       2.751 -10.880   1.534  0.00  0.00    +0.016 C 
ATOM     11  C   UNL     1       1.943 -10.008   0.570  0.00  0.00    +0.092 C 
ATOM     12  C   UNL     1       2.873  -9.000  -0.102  0.00  0.00    +0.117 C 
BRANCH  11  13
ATOM     13  C   UNL     1       1.300 -10.879  -0.478  0.00  0.00    +0.215 C 
ATOM     14  O   UNL     1       1.560 -10.710  -1.651  0.00  0.00    -0.276 OA
ATOM     15  N   UNL     1       0.436 -11.847  -0.113  0.00  0.00    -0.329 N 
ATOM     16  H   UNL     1       0.228 -11.982   0.825  0.00  0.00    +0.145 HD
ATOM     17  H   UNL     1       0.022 -12.408  -0.787  0.00  0.00    +0.145 HD
ENDBRANCH  11  13
ENDBRANCH   4   7
BRANCH   1  19
ATOM     18  N   UNL     1       2.928  -1.939  -0.045  0.00  0.00    -0.296 N 
ATOM     19  C   UNL     1       3.516  -2.611   0.965  0.00  0.00    +0.245 C 
ATOM     20  O   UNL     1       4.030  -2.001   1.883  0.00  0.00    -0.270 OA
ATOM     21  H   UNL     1       2.518  -2.426  -0.777  0.00  0.00    +0.150 HD
BRANCH  18  26
ATOM     22  C   UNL     1      -0.004   1.526  -0.039  0.00  0.00    +0.007 C 
ATOM     23  C   UNL     1       0.017  -0.004  -0.048  0.00  0.00    -0.014 C 
ATOM     24  C   UNL     1       0.750  -0.497  -1.296  0.00  0.00    +0.006 C 
ATOM     25  C   UNL     1       2.186   0.033  -1.286  0.00  0.00    +0.037 C 
ATOM     26  C   UNL     1       2.908  -0.474  -0.036  0.00  0.00    +0.132 C 
ATOM     27  C   UNL     1       2.174   0.019   1.212  0.00  0.00    +0.037 C 
ATOM     28  C   UNL     1       0.739  -0.511   1.202  0.00  0.00    +0.006 C 
BRANCH  26  29
ATOM     29  C   UNL     1       4.322   0.047  -0.027  0.00  0.00    +0.331 C 
ATOM     30  O   UNL     1       4.595   1.064  -0.620  0.00  0.00    -0.248 OA
BRANCH  29  31
ATOM     31  O   UNL     1       5.278  -0.618   0.641  0.00  0.00    -0.466 OA
ATOM     32  C   UNL     1       6.596  -0.066   0.607  0.00  0.00    +0.280 C 
ENDBRANCH  29  31
ENDBRANCH  26  29
ENDBRANCH  18  26
ENDBRANCH   1  19
TORSDOF 6
