REMARK  Name = ZINC24829365
REMARK  11 active torsions:
REMARK  status: ('A' for Active; 'I' for Inactive)
REMARK    1  A    between atoms: C_1  and  C_2
REMARK    2  A    between atoms: C_2  and  O_3
REMARK    3  A    between atoms: O_3  and  C_4
REMARK    4  A    between atoms: C_4  and  C_6
REMARK    5  A    between atoms: C_7  and  C_35
REMARK    6  A    between atoms: C_8  and  C_34
REMARK    7  A    between atoms: C_10  and  N_11
REMARK    8  A    between atoms: C_12  and  C_14
REMARK    9  A    between atoms: C_15  and  C_33
REMARK   10  A    between atoms: C_20  and  C_22
REMARK   11  A    between atoms: C_25  and  N_28
REMARK                            x       y       z     vdW  Elec       q    Type
REMARK                         _______ _______ _______ _____ _____    ______ ____
ROOT
ATOM      1  C   UNL     1       8.172   1.064  -1.519  0.00  0.00    +0.056 C 
ATOM      2  C   UNL     1       9.024   2.072  -1.804  0.00  0.00    +0.017 C 
ATOM      3  N   UNL     1       9.382   2.983  -0.852  0.00  0.00    -0.300 N 
ATOM      4  C   UNL     1       8.931   2.956   0.409  0.00  0.00    +0.135 C 
ATOM      5  S   UNL     1       9.460   4.161   1.504  0.00  0.00    -0.019 S 
ATOM      6  N   UNL     1       8.075   2.010   0.844  0.00  0.00    -0.315 N 
ATOM      7  C   UNL     1       7.627   0.979  -0.107  0.00  0.00    +0.139 C 
ATOM      8  C   UNL     1       9.590   2.193  -3.195  0.00  0.00    +0.061 C 
ATOM      9  H   UNL     1      10.078   3.797  -1.103  0.00  0.00    +0.154 HD
ATOM     10  H   UNL     1       7.711   1.997   1.882  0.00  0.00    +0.149 HD
ENDROOT
BRANCH   7  11
ATOM     11  C   UNL     1       6.123   1.041  -0.186  0.00  0.00    -0.023 A 
ATOM     12  C   UNL     1       5.381  -0.124  -0.128  0.00  0.00    +0.008 A 
ATOM     13  C   UNL     1       4.003  -0.071  -0.199  0.00  0.00    +0.028 A 
ATOM     14  C   UNL     1       3.363   1.154  -0.329  0.00  0.00    +0.067 A 
ATOM     15  C   UNL     1       4.111   2.322  -0.392  0.00  0.00    +0.028 A 
ATOM     16  C   UNL     1       5.489   2.263  -0.314  0.00  0.00    +0.008 A 
BRANCH  14  17
ATOM     17  N   UNL     1       1.964   1.211  -0.402  0.00  0.00    -0.220 N 
ATOM     18  C   UNL     1       1.206   2.318  -0.528  0.00  0.00    +0.225 A 
ATOM     19  N   UNL     1      -0.049   1.949  -0.559  0.00  0.00    -0.222 NA
ATOM     20  C   UNL     1      -0.133   0.623  -0.457  0.00  0.00    +0.245 A 
ATOM     21  N   UNL     1       1.073   0.126  -0.358  0.00  0.00    -0.154 NA
ENDBRANCH  14  17
ENDBRANCH   7  11
BRANCH   1  23
ATOM     22  N   UNL     1       6.918   0.459  -3.466  0.00  0.00    -0.275 N 
ATOM     23  C   UNL     1       7.800   0.119  -2.505  0.00  0.00    +0.248 C 
ATOM     24  O   UNL     1       8.277  -1.001  -2.486  0.00  0.00    -0.270 OA
ATOM     25  H   UNL     1       6.547   1.493  -3.531  0.00  0.00    +0.156 HD
BRANCH  22  30
ATOM     26  C   UNL     1       5.575  -0.338  -5.417  0.00  0.00    +0.091 A 
ATOM     27  C   UNL     1       5.298  -1.511  -6.213  0.00  0.00    -0.025 A 
ATOM     28  C   UNL     1       5.925  -2.649  -5.869  0.00  0.00    -0.008 A 
ATOM     29  S   UNL     1       6.912  -2.166  -4.467  0.00  0.00    -0.078 S 
ATOM     30  C   UNL     1       6.478  -0.493  -4.370  0.00  0.00    +0.087 A 
ATOM     31  C   UNL     1       5.820  -4.006  -6.514  0.00  0.00    +0.052 C 
ATOM     32  C   UNL     1       4.341  -1.462  -7.376  0.00  0.00    +0.045 C 
BRANCH  26  33
ATOM     33  C   UNL     1       4.940   0.951  -5.700  0.00  0.00    +0.342 C 
ATOM     34  O   UNL     1       5.470   1.734  -6.466  0.00  0.00    -0.245 OA
BRANCH  33  35
ATOM     35  O   UNL     1       3.769   1.270  -5.113  0.00  0.00    -0.461 OA
BRANCH  35  37
ATOM     36  C   UNL     1       1.880   2.746  -4.684  0.00  0.00    +0.048 C 
ATOM     37  C   UNL     1       3.198   2.564  -5.440  0.00  0.00    +0.229 C 
ENDBRANCH  35  37
ENDBRANCH  33  35
ENDBRANCH  26  33
ENDBRANCH  22  30
ENDBRANCH   1  23
TORSDOF 7
