REMARK  Name = ZINC33365248
REMARK  4 active torsions:
REMARK  status: ('A' for Active; 'I' for Inactive)
REMARK    1  A    between atoms: C_3  and  N_10
REMARK    2  A    between atoms: C_6  and  N_7
REMARK    3  A    between atoms: N_10  and  N_11
REMARK    4  A    between atoms: C_12  and  C_13
REMARK                            x       y       z     vdW  Elec       q    Type
REMARK                         _______ _______ _______ _____ _____    ______ ____
ROOT
ATOM      1  N   UNL     1       3.657   1.931  -0.704  0.00  0.00    -0.221 N 
ATOM      2  H   UNL     1       3.744   2.817  -1.088  0.00  0.00    +0.176 HD
ENDROOT
BRANCH   1   5
ATOM      3  C   UNL     1       0.062   1.350  -1.093  0.00  0.00    +0.037 A 
ATOM      4  C   UNL     1       1.294   1.975  -1.152  0.00  0.00    +0.047 A 
ATOM      5  C   UNL     1       2.412   1.314  -0.652  0.00  0.00    +0.138 A 
ATOM      6  N   UNL     1       2.301   0.103  -0.127  0.00  0.00    -0.237 NA
ATOM      7  C   UNL     1       1.139  -0.516  -0.058  0.00  0.00    +0.145 A 
ATOM      8  C   UNL     1      -0.012   0.081  -0.535  0.00  0.00    +0.144 A 
BRANCH   8   9
ATOM      9  N   UNL     1      -1.310  -0.625  -0.452  0.00  0.00    +0.058 N 
ATOM     10  O   UNL     1      -2.314  -0.097  -0.871  0.00  0.00    -0.126 OA
ATOM     11  O   UNL     1      -1.368  -1.730   0.036  0.00  0.00    -0.126 OA
ENDBRANCH   8   9
ENDBRANCH   1   5
BRANCH   1  12
ATOM     12  N   UNL     1       4.787   1.271  -0.202  0.00  0.00    -0.189 NA
ATOM     13  C   UNL     1       5.926   1.890  -0.142  0.00  0.00    +0.138 C 
BRANCH  13  14
ATOM     14  C   UNL     1       5.965   3.364  -0.135  0.00  0.00    -0.003 A 
ATOM     15  C   UNL     1       7.170   4.035  -0.358  0.00  0.00    +0.029 A 
ATOM     16  C   UNL     1       7.199   5.415  -0.350  0.00  0.00    +0.043 A 
ATOM     17  C   UNL     1       6.039   6.134  -0.121  0.00  0.00    +0.040 A 
ATOM     18  C   UNL     1       4.841   5.475   0.102  0.00  0.00    +0.043 A 
ATOM     19  C   UNL     1       4.797   4.095   0.090  0.00  0.00    +0.029 A 
ATOM     20 CL   UNL     1       3.392   6.386   0.390  0.00  0.00    -0.083 Cl
ATOM     21 CL   UNL     1       8.696   6.251  -0.627  0.00  0.00    -0.083 Cl
ENDBRANCH  13  14
ENDBRANCH   1  12
TORSDOF 4
