REMARK  Name = ZINC06752346
REMARK  6 active torsions:
REMARK  status: ('A' for Active; 'I' for Inactive)
REMARK    1  A    between atoms: C_1  and  C_2
REMARK    2  A    between atoms: C_5  and  C_8
REMARK    3  A    between atoms: C_10  and  C_14
REMARK    4  A    between atoms: C_11  and  C_13
REMARK    5  A    between atoms: C_14  and  S_15
REMARK    6  A    between atoms: S_15  and  C_16
REMARK                            x       y       z     vdW  Elec       q    Type
REMARK                         _______ _______ _______ _____ _____    ______ ____
ROOT
ATOM      1  C   UNL     1       0.058  -4.251  -0.021  0.00  0.00    +0.228 A 
ATOM      2  N   UNL     1       0.068  -5.023   1.040  0.00  0.00    -0.213 NA
ATOM      3  C   UNL     1       0.085  -6.303   0.639  0.00  0.00    +0.093 A 
ATOM      4  C   UNL     1       0.085  -6.314  -0.707  0.00  0.00    +0.127 A 
ATOM      5  O   UNL     1       0.062  -5.030  -1.117  0.00  0.00    -0.440 OA
ATOM      6  C   UNL     1       0.101  -7.534  -1.591  0.00  0.00    +0.088 C 
ENDROOT
BRANCH   1  11
ATOM      7  C   UNL     1      -0.018   1.503   0.010  0.00  0.00    +0.044 C 
ATOM      8  C   UNL     1       0.002  -0.004   0.002  0.00  0.00    -0.050 A 
ATOM      9  C   UNL     1       0.006  -0.686  -1.202  0.00  0.00    +0.004 A 
ATOM     10  C   UNL     1       0.024  -2.066  -1.216  0.00  0.00    +0.013 A 
ATOM     11  C   UNL     1       0.039  -2.773  -0.013  0.00  0.00    +0.037 A 
ATOM     12  C   UNL     1       0.036  -2.079   1.198  0.00  0.00    +0.013 A 
ATOM     13  C   UNL     1       0.023  -0.699   1.198  0.00  0.00    +0.004 A 
ENDBRANCH   1  11
BRANCH   3  14
ATOM     14  C   UNL     1       0.101  -7.514   1.536  0.00  0.00    +0.136 C 
BRANCH  14  15
ATOM     15  S   UNL     1      -1.603  -8.023   1.896  0.00  0.00    -0.080 S 
BRANCH  15  16
ATOM     16  C   UNL     1      -1.416  -9.430   2.940  0.00  0.00    +0.190 A 
ATOM     17  N   UNL     1      -2.404 -10.132   3.443  0.00  0.00    -0.220 NA
ATOM     18  C   UNL     1      -1.908 -11.140   4.196  0.00  0.00    +0.095 A 
ATOM     19  C   UNL     1      -2.474 -12.173   4.951  0.00  0.00    +0.049 A 
ATOM     20  C   UNL     1      -1.646 -13.042   5.606  0.00  0.00    +0.113 A 
ATOM     21  N   UNL     1      -0.331 -12.923   5.539  0.00  0.00    -0.261 NA
ATOM     22  C   UNL     1       0.257 -11.968   4.842  0.00  0.00    +0.140 A 
ATOM     23  C   UNL     1      -0.503 -11.045   4.148  0.00  0.00    +0.110 A 
ATOM     24  N   UNL     1      -0.221  -9.956   3.341  0.00  0.00    -0.219 NA
ENDBRANCH  15  16
ENDBRANCH  14  15
ENDBRANCH   3  14
TORSDOF 4
