REMARK  Name = ZINC45575258
REMARK  13 active torsions:
REMARK  status: ('A' for Active; 'I' for Inactive)
REMARK    1  A    between atoms: C_1  and  C_2
REMARK    2  A    between atoms: C_5  and  S_8
REMARK    3  A    between atoms: S_8  and  N_11
REMARK    4  A    between atoms: N_11  and  C_12
REMARK    5  A    between atoms: C_12  and  C_14
REMARK    6  A    between atoms: C_12  and  C_18
REMARK    7  A    between atoms: C_14  and  C_15
REMARK    8  A    between atoms: C_15  and  S_16
REMARK    9  A    between atoms: S_16  and  C_17
REMARK   10  A    between atoms: N_20  and  C_21
REMARK   11  A    between atoms: C_21  and  C_22
REMARK   12  A    between atoms: C_24  and  N_29
REMARK   13  A    between atoms: C_27  and  O_28
REMARK                            x       y       z     vdW  Elec       q    Type
REMARK                         _______ _______ _______ _____ _____    ______ ____
ROOT
ATOM      1  C   UNL     1       2.579  -4.792   1.187  0.00  0.00    +0.163 C 
ENDROOT
BRANCH   1   2
ATOM      2  C   UNL     1       3.461  -6.014   1.183  0.00  0.00    +0.232 C 
ATOM      3  O   UNL     1       3.229  -6.927   0.419  0.00  0.00    -0.274 OA
ATOM      4  N   UNL     1       4.507  -6.092   2.029  0.00  0.00    -0.310 N 
ATOM      5  H   UNL     1       4.693  -5.361   2.639  0.00  0.00    +0.149 HD
BRANCH   4   6
ATOM      6  C   UNL     1       5.365  -7.280   2.025  0.00  0.00    +0.143 C 
BRANCH   6   7
ATOM      7  C   UNL     1       6.453  -7.117   3.055  0.00  0.00    +0.013 A 
ATOM      8  C   UNL     1       6.389  -7.817   4.244  0.00  0.00    +0.041 A 
ATOM      9  C   UNL     1       7.387  -7.668   5.190  0.00  0.00    +0.127 A 
ATOM     10  C   UNL     1       8.451  -6.819   4.947  0.00  0.00    +0.036 A 
ATOM     11  C   UNL     1       8.519  -6.117   3.760  0.00  0.00    +0.048 A 
ATOM     12  C   UNL     1       7.522  -6.269   2.807  0.00  0.00    +0.122 A 
BRANCH   9  13
ATOM     13  N   UNL     1       7.316  -8.419   6.463  0.00  0.00    +0.056 N 
ATOM     14  O   UNL     1       6.386  -9.162   6.676  0.00  0.00    -0.126 OA
ATOM     15  O   UNL     1       8.188  -8.290   7.290  0.00  0.00    -0.126 OA
ENDBRANCH   9  13
BRANCH  12  16
ATOM     16  O   UNL     1       7.589  -5.583   1.636  0.00  0.00    -0.506 OA
ATOM     17  H   UNL     1       7.163  -4.715   1.663  0.00  0.00    +0.292 HD
ENDBRANCH  12  16
ENDBRANCH   6   7
ENDBRANCH   4   6
ENDBRANCH   1   2
BRANCH   1  18
ATOM     18  N   UNL     1       1.521  -4.950   0.185  0.00  0.00    -0.178 NA
ATOM     19  H   UNL     1       1.697  -4.736  -0.744  0.00  0.00    +0.149 HD
BRANCH  18  20
ATOM     20  S   UNL     1       0.025  -5.494   0.640  0.00  0.00    +0.059 S 
ATOM     21  O   UNL     1       0.239  -6.651   1.438  0.00  0.00    -0.153 OA
ATOM     22  O   UNL     1      -0.774  -5.516  -0.534  0.00  0.00    -0.153 OA
BRANCH  20  27
ATOM     23  C   UNL     1      -2.369  -1.315   4.275  0.00  0.00    +0.044 C 
ATOM     24  C   UNL     1      -1.771  -2.359   3.367  0.00  0.00    -0.050 A 
ATOM     25  C   UNL     1      -1.899  -2.238   1.996  0.00  0.00    +0.005 A 
ATOM     26  C   UNL     1      -1.350  -3.195   1.163  0.00  0.00    +0.029 A 
ATOM     27  C   UNL     1      -0.673  -4.274   1.702  0.00  0.00    +0.105 A 
ATOM     28  C   UNL     1      -0.545  -4.394   3.073  0.00  0.00    +0.029 A 
ATOM     29  C   UNL     1      -1.089  -3.435   3.905  0.00  0.00    +0.005 A 
ENDBRANCH  20  27
ENDBRANCH  18  20
ENDBRANCH   1  18
BRANCH   1  30
ATOM     30  C   UNL     1       3.417  -3.556   0.852  0.00  0.00    +0.040 C 
BRANCH  30  31
ATOM     31  C   UNL     1       2.543  -2.304   0.952  0.00  0.00    +0.071 C 
BRANCH  31  32
ATOM     32  S   UNL     1       3.525  -0.845   0.509  0.00  0.00    -0.164 S 
ATOM     33  C   UNL     1       2.405   0.548   0.817  0.00  0.00    +0.084 C 
ENDBRANCH  31  32
ENDBRANCH  30  31
ENDBRANCH   1  30
TORSDOF 11
