REMARK  Name = ZINC10735571
REMARK  8 active torsions:
REMARK  status: ('A' for Active; 'I' for Inactive)
REMARK    1  A    between atoms: C_1  and  O_2
REMARK    2  A    between atoms: O_2  and  C_3
REMARK    3  A    between atoms: C_3  and  C_5
REMARK    4  A    between atoms: C_7  and  C_14
REMARK    5  A    between atoms: C_9  and  N_11
REMARK    6  A    between atoms: N_16  and  N_17
REMARK    7  A    between atoms: C_18  and  C_20
REMARK    8  A    between atoms: C_23  and  C_25
REMARK                            x       y       z     vdW  Elec       q    Type
REMARK                         _______ _______ _______ _____ _____    ______ ____
ROOT
ATOM      1  C   UNL     1       2.512  -2.811  -0.036  0.00  0.00    +0.260 C 
ATOM      2  O   UNL     1       3.561  -2.197  -0.043  0.00  0.00    -0.269 OA
ATOM      3  N   UNL     1       2.520  -4.159  -0.043  0.00  0.00    -0.230 N 
ATOM      4  H   UNL     1       1.683  -4.648  -0.037  0.00  0.00    +0.173 HD
ENDROOT
BRANCH   1   7
ATOM      5  C   UNL     1       0.002  -0.004   0.002  0.00  0.00    +0.062 A 
ATOM      6  C   UNL     1       1.218  -0.686  -0.013  0.00  0.00    +0.028 A 
ATOM      7  C   UNL     1       1.227  -2.079  -0.020  0.00  0.00    +0.041 A 
ATOM      8  C   UNL     1       0.021  -2.783  -0.012  0.00  0.00    +0.045 A 
ATOM      9  C   UNL     1      -1.180  -2.101   0.003  0.00  0.00    +0.128 A 
ATOM     10  C   UNL     1      -1.197  -0.721   0.015  0.00  0.00    +0.047 A 
BRANCH   9  11
ATOM     11  N   UNL     1      -2.454  -2.854   0.012  0.00  0.00    +0.056 N 
ATOM     12  O   UNL     1      -2.442  -4.072   0.005  0.00  0.00    -0.126 OA
ATOM     13  O   UNL     1      -3.515  -2.256   0.025  0.00  0.00    -0.126 OA
ENDBRANCH   9  11
BRANCH   5  14
ATOM     14  C   UNL     1      -0.018   1.473   0.010  0.00  0.00    +0.339 C 
ATOM     15  O   UNL     1       1.026   2.095   0.004  0.00  0.00    -0.245 OA
BRANCH  14  17
ATOM     16  C   UNL     1      -1.137   3.582   0.027  0.00  0.00    +0.280 C 
ATOM     17  O   UNL     1      -1.194   2.131   0.019  0.00  0.00    -0.464 OA
ENDBRANCH  14  17
ENDBRANCH   5  14
ENDBRANCH   1   7
BRANCH   3  18
ATOM     18  N   UNL     1       3.737  -4.852  -0.058  0.00  0.00    -0.230 N 
ATOM     19  C   UNL     1       3.745  -6.200  -0.065  0.00  0.00    +0.267 C 
ATOM     20  O   UNL     1       2.694  -6.814  -0.058  0.00  0.00    -0.268 OA
ATOM     21  H   UNL     1       4.574  -4.362  -0.063  0.00  0.00    +0.173 HD
BRANCH  19  22
ATOM     22  C   UNL     1       5.017  -6.925  -0.080  0.00  0.00    +0.076 A 
ATOM     23  C   UNL     1       5.241  -8.294  -0.083  0.00  0.00    +0.021 A 
ATOM     24  C   UNL     1       6.529  -8.748  -0.103  0.00  0.00    +0.017 A 
ATOM     25  C   UNL     1       7.562  -7.825  -0.108  0.00  0.00    +0.020 A 
ATOM     26  S   UNL     1       6.679  -6.273  -0.092  0.00  0.00    -0.084 S 
BRANCH  25  27
ATOM     27  C   UNL     1       9.020  -8.063  -0.122  0.00  0.00    -0.011 A 
ATOM     28  C   UNL     1       9.517  -9.368  -0.128  0.00  0.00    +0.012 A 
ATOM     29  C   UNL     1      10.879  -9.585  -0.147  0.00  0.00    +0.039 A 
ATOM     30  C   UNL     1      11.754  -8.510  -0.150  0.00  0.00    +0.123 A 
ATOM     31  C   UNL     1      11.266  -7.213  -0.139  0.00  0.00    +0.039 A 
ATOM     32  C   UNL     1       9.906  -6.984  -0.125  0.00  0.00    +0.012 A 
ATOM     33  F   UNL     1      13.087  -8.728  -0.162  0.00  0.00    -0.205 F 
ENDBRANCH  25  27
ENDBRANCH  19  22
ENDBRANCH   3  18
TORSDOF 7
