REMARK  Name = ZINC10251722
REMARK  6 active torsions:
REMARK  status: ('A' for Active; 'I' for Inactive)
REMARK    1  A    between atoms: C_1  and  C_2
REMARK    2  A    between atoms: C_8  and  C_10
REMARK    3  A    between atoms: C_13  and  N_16
REMARK    4  A    between atoms: N_16  and  S_17
REMARK    5  A    between atoms: S_17  and  C_20
REMARK    6  A    between atoms: C_25  and  N_26
REMARK                            x       y       z     vdW  Elec       q    Type
REMARK                         _______ _______ _______ _____ _____    ______ ____
ROOT
ATOM      1  C   UNL     1      -1.208   2.109   0.626  0.00  0.00    +0.002 A 
ATOM      2  C   UNL     1      -2.252   2.997   0.373  0.00  0.00    +0.012 A 
ATOM      3  C   UNL     1      -1.984   4.334   0.169  0.00  0.00    +0.025 A 
ATOM      4  C   UNL     1      -0.673   4.794   0.202  0.00  0.00    +0.048 A 
ATOM      5  C   UNL     1       0.370   3.909   0.447  0.00  0.00    +0.025 A 
ATOM      6  C   UNL     1       0.106   2.572   0.659  0.00  0.00    +0.012 A 
ENDROOT
BRANCH   1  14
ATOM      7  C   UNL     1      -4.825  -2.280   1.084  0.00  0.00    +0.064 C 
ATOM      8  C   UNL     1      -3.330  -2.390   1.233  0.00  0.00    +0.029 A 
ATOM      9  C   UNL     1      -2.781  -3.576   1.490  0.00  0.00    +0.070 A 
ATOM     10  S   UNL     1      -1.043  -3.170   1.569  0.00  0.00    -0.057 S 
ATOM     11  C   UNL     1      -1.195  -1.427   1.250  0.00  0.00    +0.178 A 
ATOM     12  N   UNL     1      -2.547  -1.263   1.103  0.00  0.00    -0.297 N 
ATOM     13  C   UNL     1      -2.721   0.094   0.854  0.00  0.00    +0.121 A 
ATOM     14  C   UNL     1      -1.495   0.671   0.854  0.00  0.00    +0.090 A 
ATOM     15  N   UNL     1      -0.581  -0.289   1.102  0.00  0.00    -0.221 NA
ENDBRANCH   1  14
BRANCH   4  16
ATOM     16  N   UNL     1      -0.403   6.148  -0.012  0.00  0.00    -0.216 N 
ATOM     17  H   UNL     1       0.206   6.620   0.577  0.00  0.00    +0.174 HD
BRANCH  16  18
ATOM     18  S   UNL     1      -1.124   6.947  -1.271  0.00  0.00    +0.075 S 
ATOM     19  O   UNL     1      -2.510   6.640  -1.206  0.00  0.00    -0.150 OA
ATOM     20  O   UNL     1      -0.637   8.281  -1.237  0.00  0.00    -0.150 OA
BRANCH  18  21
ATOM     21  C   UNL     1      -0.518   6.227  -2.760  0.00  0.00    +0.139 A 
ATOM     22  C   UNL     1      -1.394   5.622  -3.642  0.00  0.00    +0.031 A 
ATOM     23  C   UNL     1      -0.919   5.061  -4.813  0.00  0.00    +0.002 A 
ATOM     24  C   UNL     1       0.433   5.097  -5.097  0.00  0.00    +0.002 A 
ATOM     25  C   UNL     1       1.310   5.698  -4.214  0.00  0.00    +0.035 A 
ATOM     26  C   UNL     1       0.834   6.263  -3.045  0.00  0.00    +0.153 A 
BRANCH  26  27
ATOM     27  N   UNL     1       1.773   6.906  -2.098  0.00  0.00    +0.058 N 
ATOM     28  O   UNL     1       2.945   7.040  -2.400  0.00  0.00    -0.126 OA
ATOM     29  O   UNL     1       1.373   7.300  -1.017  0.00  0.00    -0.126 OA
ENDBRANCH  26  27
ENDBRANCH  18  21
ENDBRANCH  16  18
ENDBRANCH   4  16
TORSDOF 5
