REMARK  Name = ZINC00439073
REMARK  6 active torsions:
REMARK  status: ('A' for Active; 'I' for Inactive)
REMARK    1  A    between atoms: C_1  and  C_2
REMARK    2  A    between atoms: C_5  and  N_9
REMARK    3  A    between atoms: C_7  and  C_8
REMARK    4  A    between atoms: C_10  and  C_12
REMARK    5  A    between atoms: C_13  and  C_14
REMARK    6  A    between atoms: C_17  and  N_20
REMARK                            x       y       z     vdW  Elec       q    Type
REMARK                         _______ _______ _______ _____ _____    ______ ____
ROOT
ATOM      1  N   UNL     1      -1.156  -0.694   0.009  0.00  0.00    -0.282 N 
ATOM      2  C   UNL     1      -0.001  -0.018   0.169  0.00  0.00    +0.241 C 
ATOM      3  O   UNL     1       1.045  -0.624   0.310  0.00  0.00    -0.270 OA
ATOM      4  H   UNL     1      -1.998  -0.214  -0.027  0.00  0.00    +0.155 HD
ENDROOT
BRANCH   1   9
ATOM      5  C   UNL     1      -1.093  -6.347  -0.451  0.00  0.00    +0.044 C 
ATOM      6  C   UNL     1      -1.110  -4.845  -0.329  0.00  0.00    -0.047 A 
ATOM      7  C   UNL     1      -0.060  -4.100  -0.835  0.00  0.00    +0.005 A 
ATOM      8  C   UNL     1      -0.075  -2.723  -0.729  0.00  0.00    +0.023 A 
ATOM      9  C   UNL     1      -1.140  -2.087  -0.104  0.00  0.00    +0.034 A 
ATOM     10  C   UNL     1      -2.193  -2.838   0.403  0.00  0.00    +0.027 A 
ATOM     11  C   UNL     1      -2.174  -4.215   0.289  0.00  0.00    -0.046 A 
ATOM     12  C   UNL     1      -3.316  -5.031   0.840  0.00  0.00    +0.044 C 
ENDBRANCH   1   9
BRANCH   2  13
ATOM     13  C   UNL     1      -0.004   1.446   0.172  0.00  0.00    +0.068 C 
ATOM     14  C   UNL     1       1.151   2.123   0.331  0.00  0.00    +0.013 C 
BRANCH  14  15
ATOM     15  C   UNL     1       1.148   3.595   0.334  0.00  0.00    -0.025 A 
ATOM     16  C   UNL     1      -0.050   4.295   0.165  0.00  0.00    +0.010 A 
ATOM     17  C   UNL     1      -0.046   5.674   0.174  0.00  0.00    +0.033 A 
ATOM     18  C   UNL     1       1.142   6.365   0.338  0.00  0.00    +0.126 A 
ATOM     19  C   UNL     1       2.333   5.678   0.500  0.00  0.00    +0.033 A 
ATOM     20  C   UNL     1       2.344   4.300   0.499  0.00  0.00    +0.010 A 
BRANCH  18  21
ATOM     21  N   UNL     1       1.139   7.845   0.341  0.00  0.00    +0.056 N 
ATOM     22  O   UNL     1       2.183   8.456   0.485  0.00  0.00    -0.126 OA
ATOM     23  O   UNL     1       0.092   8.452   0.199  0.00  0.00    -0.126 OA
ENDBRANCH  18  21
ENDBRANCH  14  15
ENDBRANCH   2  13
TORSDOF 4
