REMARK  Name = ZINC06648981
REMARK  9 active torsions:
REMARK  status: ('A' for Active; 'I' for Inactive)
REMARK    1  A    between atoms: C_1  and  C_2
REMARK    2  A    between atoms: C_2  and  O_3
REMARK    3  A    between atoms: O_3  and  C_4
REMARK    4  A    between atoms: C_4  and  C_6
REMARK    5  A    between atoms: C_7  and  C_29
REMARK    6  A    between atoms: C_14  and  C_16
REMARK    7  A    between atoms: C_16  and  S_17
REMARK    8  A    between atoms: S_17  and  C_18
REMARK    9  A    between atoms: C_23  and  C_28
REMARK                            x       y       z     vdW  Elec       q    Type
REMARK                         _______ _______ _______ _____ _____    ______ ____
ROOT
ATOM      1  C   UNL     1       1.451  -2.345  -2.521  0.00  0.00    +0.114 A 
ATOM      2  C   UNL     1       2.773  -2.647  -2.649  0.00  0.00    +0.119 A 
ATOM      3  O   UNL     1       3.011  -3.124  -3.878  0.00  0.00    -0.441 OA
ATOM      4  C   UNL     1       1.889  -3.165  -4.616  0.00  0.00    +0.235 A 
ATOM      5  C   UNL     1       0.839  -2.687  -3.816  0.00  0.00    +0.120 A 
ATOM      6  C   UNL     1      -0.450  -2.632  -4.353  0.00  0.00    +0.285 A 
ATOM      7  O   UNL     1      -1.490  -2.174  -3.615  0.00  0.00    -0.265 OA
ATOM      8  N   UNL     1      -0.630  -3.040  -5.605  0.00  0.00    -0.193 NA
ATOM      9  C   UNL     1       0.383  -3.486  -6.325  0.00  0.00    +0.147 A 
ATOM     10  N   UNL     1       1.613  -3.547  -5.859  0.00  0.00    -0.196 NA
ATOM     11  C   UNL     1       3.811  -2.470  -1.571  0.00  0.00    +0.087 C 
ENDROOT
BRANCH   1  12
ATOM     12  C   UNL     1       0.776  -1.799  -1.335  0.00  0.00    +0.343 C 
ATOM     13  O   UNL     1       0.312  -2.551  -0.499  0.00  0.00    -0.245 OA
BRANCH  12  14
ATOM     14  O   UNL     1       0.671  -0.465  -1.174  0.00  0.00    -0.461 OA
BRANCH  14  16
ATOM     15  C   UNL     1      -0.019   1.526   0.010  0.00  0.00    +0.048 C 
ATOM     16  C   UNL     1       0.002  -0.004   0.002  0.00  0.00    +0.229 C 
ENDBRANCH  14  16
ENDBRANCH  12  14
ENDBRANCH   1  12
BRANCH   9  17
ATOM     17  C   UNL     1       0.122  -3.936  -7.739  0.00  0.00    +0.153 C 
BRANCH  17  18
ATOM     18  S   UNL     1       0.318  -2.529  -8.867  0.00  0.00    -0.080 S 
BRANCH  18  19
ATOM     19  C   UNL     1      -0.015  -3.209 -10.458  0.00  0.00    +0.168 A 
ATOM     20  N   UNL     1       0.018  -2.512 -11.633  0.00  0.00    -0.333 N 
ATOM     21  H   UNL     1       0.227  -1.571 -11.737  0.00  0.00    +0.168 HD
ATOM     22  C   UNL     1      -0.300  -3.401 -12.647  0.00  0.00    +0.067 A 
ATOM     23  C   UNL     1      -0.425  -3.284 -14.023  0.00  0.00    +0.031 A 
ATOM     24  C   UNL     1      -0.765  -4.388 -14.777  0.00  0.00    -0.048 A 
ATOM     25  C   UNL     1      -0.985  -5.615 -14.169  0.00  0.00    +0.005 A 
ATOM     26  C   UNL     1      -0.866  -5.749 -12.803  0.00  0.00    +0.030 A 
ATOM     27  C   UNL     1      -0.521  -4.641 -12.025  0.00  0.00    +0.090 A 
ATOM     28  N   UNL     1      -0.327  -4.460 -10.692  0.00  0.00    -0.222 NA
ATOM     29  C   UNL     1      -0.900  -4.260 -16.273  0.00  0.00    +0.044 C 
ENDBRANCH  18  19
ENDBRANCH  17  18
ENDBRANCH   9  17
TORSDOF 6
