REMARK  Name = ZINC24581292
REMARK  9 active torsions:
REMARK  status: ('A' for Active; 'I' for Inactive)
REMARK    1  A    between atoms: C_3  and  O_9
REMARK    2  A    between atoms: O_9  and  C_10
REMARK    3  A    between atoms: C_10  and  C_11
REMARK    4  A    between atoms: C_11  and  C_12
REMARK    5  A    between atoms: C_12  and  C_13
REMARK    6  A    between atoms: N_15  and  N_16
REMARK    7  A    between atoms: C_17  and  C_19
REMARK    8  A    between atoms: C_19  and  C_20
REMARK    9  A    between atoms: C_20  and  N_21
REMARK                            x       y       z     vdW  Elec       q    Type
REMARK                         _______ _______ _______ _____ _____    ______ ____
ROOT
ATOM      1  N   UNL     1      -3.472   3.622   2.648  0.00  0.00    -0.234 N 
ATOM      2  C   UNL     1      -2.915   3.257   1.477  0.00  0.00    +0.231 C 
ATOM      3  O   UNL     1      -3.426   3.596   0.431  0.00  0.00    -0.274 OA
ATOM      4  H   UNL     1      -3.008   3.313   3.597  0.00  0.00    +0.173 HD
ENDROOT
BRANCH   1   7
ATOM      5  C   UNL     1      -5.197   4.758   3.830  0.00  0.00    +0.229 C 
ATOM      6  O   UNL     1      -4.686   4.419   4.876  0.00  0.00    -0.274 OA
ATOM      7  N   UNL     1      -4.641   4.394   2.659  0.00  0.00    -0.234 N 
ATOM      8  H   UNL     1      -5.105   4.702   1.710  0.00  0.00    +0.173 HD
BRANCH   5   9
ATOM      9  C   UNL     1      -6.455   5.589   3.841  0.00  0.00    +0.100 C 
BRANCH   9  10
ATOM     10  C   UNL     1      -6.874   5.862   5.287  0.00  0.00    +0.050 C 
BRANCH  10  11
ATOM     11  C   UNL     1      -8.150   6.705   5.298  0.00  0.00    +0.229 C 
BRANCH  11  12
ATOM     12  O   UNL     1      -8.541   6.960   6.649  0.00  0.00    -0.490 OA
BRANCH  12  15
ATOM     13  C   UNL     1     -11.519   8.926   5.936  0.00  0.00    +0.023 A 
ATOM     14  C   UNL     1     -10.376   8.173   5.743  0.00  0.00    +0.048 A 
ATOM     15  C   UNL     1      -9.665   7.701   6.836  0.00  0.00    +0.139 A 
ATOM     16  C   UNL     1     -10.106   7.982   8.123  0.00  0.00    +0.084 A 
ATOM     17  C   UNL     1     -11.246   8.741   8.311  0.00  0.00    +0.043 A 
ATOM     18  C   UNL     1     -11.954   9.210   7.218  0.00  0.00    +0.043 A 
ATOM     19 CL   UNL     1     -13.389  10.156   7.457  0.00  0.00    -0.083 Cl
ATOM     20 CL   UNL     1      -9.222   7.387   9.493  0.00  0.00    -0.080 Cl
ENDBRANCH  12  15
ENDBRANCH  11  12
ENDBRANCH  10  11
ENDBRANCH   9  10
ENDBRANCH   5   9
ENDBRANCH   1   7
BRANCH   2  21
ATOM     21  C   UNL     1      -1.657   2.426   1.466  0.00  0.00    +0.117 C 
BRANCH  21  22
ATOM     22  C   UNL     1      -1.239   2.153   0.020  0.00  0.00    +0.127 C 
BRANCH  22  23
ATOM     23  N   UNL     1      -0.016   1.346   0.009  0.00  0.00    -0.224 N 
ATOM     24  C   UNL     1       0.002  -0.004   0.002  0.00  0.00    +0.247 C 
ATOM     25  O   UNL     1      -0.952  -0.753   0.007  0.00  0.00    -0.273 OA
ATOM     26  C   UNL     1       1.461  -0.382  -0.014  0.00  0.00    +0.113 C 
ATOM     27  C   UNL     1       1.804  -1.205  -1.263  0.00  0.00    +0.035 C 
ATOM     28  C   UNL     1       2.878  -2.208  -0.767  0.00  0.00    +0.003 C 
ATOM     29  C   UNL     1       2.390  -2.558   0.661  0.00  0.00    +0.003 C 
ATOM     30  C   UNL     1       1.831  -1.226   1.208  0.00  0.00    +0.035 C 
ATOM     31  N   UNL     1       2.171   0.899  -0.014  0.00  0.00    -0.285 N 
ATOM     32  C   UNL     1       1.222   1.856   0.000  0.00  0.00    +0.309 C 
ATOM     33  O   UNL     1       1.463   3.047   0.004  0.00  0.00    -0.252 OA
ATOM     34  H   UNL     1       3.271   0.918  -0.024  0.00  0.00    +0.151 HD
ENDBRANCH  22  23
ENDBRANCH  21  22
ENDBRANCH   2  21
TORSDOF 9
