REMARK  Name = ZINC09636768
REMARK  8 active torsions:
REMARK  status: ('A' for Active; 'I' for Inactive)
REMARK    1  A    between atoms: C_1  and  C_2
REMARK    2  A    between atoms: C_2  and  C_4
REMARK    3  A    between atoms: C_2  and  S_16
REMARK    4  A    between atoms: N_6  and  C_7
REMARK    5  A    between atoms: C_11  and  N_13
REMARK    6  A    between atoms: S_16  and  C_17
REMARK    7  A    between atoms: C_20  and  C_25
REMARK    8  A    between atoms: N_21  and  C_22
REMARK                            x       y       z     vdW  Elec       q    Type
REMARK                         _______ _______ _______ _____ _____    ______ ____
ROOT
ATOM      1  S   UNL     1       3.077   8.131   1.329  0.00  0.00    -0.073 S 
ENDROOT
BRANCH   1   2
ATOM      2  C   UNL     1       2.452   9.776   1.254  0.00  0.00    +0.193 A 
ATOM      3  N   UNL     1       1.195  10.127   1.099  0.00  0.00    -0.122 NA
ATOM      4  N   UNL     1       1.092  11.407   1.089  0.00  0.00    -0.128 NA
ATOM      5  C   UNL     1       2.276  11.954   1.237  0.00  0.00    +0.168 A 
ATOM      6  N   UNL     1       3.183  10.926   1.352  0.00  0.00    -0.299 N 
BRANCH   5   7
ATOM      7  C   UNL     1       2.578  13.400   1.277  0.00  0.00    +0.054 A 
ATOM      8  C   UNL     1       3.298  13.937   2.345  0.00  0.00    +0.014 A 
ATOM      9  C   UNL     1       3.576  15.287   2.378  0.00  0.00    +0.001 A 
ATOM     10  C   UNL     1       3.143  16.112   1.354  0.00  0.00    +0.003 A 
ATOM     11  C   UNL     1       2.428  15.589   0.292  0.00  0.00    +0.039 A 
ATOM     12  C   UNL     1       2.147  14.237   0.244  0.00  0.00    +0.134 A 
ATOM     13  F   UNL     1       1.454  13.726  -0.797  0.00  0.00    -0.205 F 
ENDBRANCH   5   7
BRANCH   6  14
ATOM     14  C   UNL     1       4.632  11.040   1.539  0.00  0.00    +0.091 C 
ATOM     15  C   UNL     1       5.481   9.800   1.253  0.00  0.00    +0.027 C 
ATOM     16  C   UNL     1       5.259  10.261   2.696  0.00  0.00    +0.027 C 
ENDBRANCH   6  14
ENDBRANCH   1   2
BRANCH   1  18
ATOM     17  C   UNL     1       0.952   7.463  -0.253  0.00  0.00    +0.029 C 
ATOM     18  C   UNL     1       1.536   7.200   1.137  0.00  0.00    +0.137 C 
BRANCH  18  19
ATOM     19  C   UNL     1       1.816   5.728   1.294  0.00  0.00    +0.230 C 
ATOM     20  O   UNL     1       2.944   5.306   1.152  0.00  0.00    -0.274 OA
ATOM     21  N   UNL     1       0.812   4.880   1.593  0.00  0.00    -0.285 N 
ATOM     22  H   UNL     1      -0.102   5.203   1.629  0.00  0.00    +0.155 HD
BRANCH  21  23
ATOM     23  C   UNL     1       1.088   3.533   1.852  0.00  0.00    +0.036 A 
ATOM     24  C   UNL     1       2.250   3.177   2.524  0.00  0.00    +0.023 A 
ATOM     25  C   UNL     1       2.519   1.846   2.778  0.00  0.00    +0.004 A 
ATOM     26  C   UNL     1       1.634   0.869   2.362  0.00  0.00    +0.033 A 
ATOM     27  C   UNL     1       0.479   1.219   1.688  0.00  0.00    +0.128 A 
ATOM     28  C   UNL     1       0.201   2.548   1.436  0.00  0.00    +0.056 A 
BRANCH  27  29
ATOM     29  N   UNL     1      -0.463   0.169   1.240  0.00  0.00    +0.056 N 
ATOM     30  O   UNL     1      -0.220  -1.003   1.465  0.00  0.00    -0.126 OA
ATOM     31  O   UNL     1      -1.481   0.477   0.646  0.00  0.00    -0.126 OA
ENDBRANCH  27  29
ENDBRANCH  21  23
ENDBRANCH  18  19
ENDBRANCH   1  18
TORSDOF 7
