REMARK  Name = ZINC64188253
REMARK  13 active torsions:
REMARK  status: ('A' for Active; 'I' for Inactive)
REMARK    1  A    between atoms: C_1  and  C_2
REMARK    2  A    between atoms: C_2  and  O_3
REMARK    3  A    between atoms: O_3  and  C_4
REMARK    4  A    between atoms: C_7  and  C_12
REMARK    5  A    between atoms: C_9  and  O_10
REMARK    6  A    between atoms: O_10  and  C_11
REMARK    7  A    between atoms: C_12  and  C_14
REMARK    8  A    between atoms: C_12  and  C_29
REMARK    9  A    between atoms: C_14  and  N_15
REMARK   10  A    between atoms: N_15  and  S_16
REMARK   11  A    between atoms: S_16  and  N_19
REMARK   12  A    between atoms: C_21  and  C_28
REMARK   13  A    between atoms: C_24  and  C_27
REMARK                            x       y       z     vdW  Elec       q    Type
REMARK                         _______ _______ _______ _____ _____    ______ ____
ROOT
ATOM      1  C   UNL     1       0.948  -5.894  -2.014  0.00  0.00    +0.063 C 
ENDROOT
BRANCH   1   2
ATOM      2  C   UNL     1       1.723  -6.316  -0.792  0.00  0.00    -0.033 C 
ATOM      3  C   UNL     1       2.919  -6.947  -0.765  0.00  0.00    -0.000 A 
ATOM      4  C   UNL     1       3.821  -7.414  -1.825  0.00  0.00    +0.010 A 
ATOM      5  C   UNL     1       4.975  -8.028  -1.480  0.00  0.00    +0.001 A 
ATOM      6  C   UNL     1       5.331  -8.230  -0.139  0.00  0.00    +0.002 A 
ATOM      7  C   UNL     1       4.555  -7.829   0.889  0.00  0.00    +0.026 A 
ATOM      8  C   UNL     1       3.318  -7.172   0.643  0.00  0.00    +0.043 A 
ATOM      9  N   UNL     1       2.404  -6.697   1.455  0.00  0.00    -0.380 N 
ATOM     10  C   UNL     1       1.324  -6.112   0.652  0.00  0.00    +0.145 C 
ATOM     11  H   UNL     1       2.439  -6.724   2.424  0.00  0.00    +0.160 HD
ENDBRANCH   1   2
BRANCH   1  15
ATOM     12  C   UNL     1       0.411  -1.652  -1.964  0.00  0.00    +0.162 A 
ATOM     13  C   UNL     1      -0.090  -2.429  -0.932  0.00  0.00    +0.050 A 
ATOM     14  C   UNL     1       0.085  -3.800  -0.951  0.00  0.00    +0.008 A 
ATOM     15  C   UNL     1       0.760  -4.399  -1.998  0.00  0.00    -0.035 A 
ATOM     16  C   UNL     1       1.262  -3.630  -3.031  0.00  0.00    +0.053 A 
ATOM     17  C   UNL     1       1.085  -2.255  -3.021  0.00  0.00    +0.162 A 
BRANCH  17  18
ATOM     18  O   UNL     1       1.573  -1.498  -4.039  0.00  0.00    -0.491 OA
ATOM     19  C   UNL     1       2.254  -2.185  -5.091  0.00  0.00    +0.277 C 
ENDBRANCH  17  18
BRANCH  12  20
ATOM     20  O   UNL     1       0.239  -0.303  -1.947  0.00  0.00    -0.489 OA
BRANCH  20  22
ATOM     21  C   UNL     1      -0.557   1.767  -0.986  0.00  0.00    +0.048 C 
ATOM     22  C   UNL     1      -0.463   0.248  -0.830  0.00  0.00    +0.226 C 
ENDBRANCH  20  22
ENDBRANCH  12  20
ENDBRANCH   1  15
BRANCH   1  23
ATOM     23  C   UNL     1      -0.419  -6.581  -2.013  0.00  0.00    +0.119 C 
BRANCH  23  24
ATOM     24  N   UNL     1      -0.239  -8.028  -2.148  0.00  0.00    -0.179 NA
ATOM     25  H   UNL     1       0.614  -8.385  -2.442  0.00  0.00    +0.149 HD
BRANCH  24  26
ATOM     26  S   UNL     1      -1.491  -9.055  -1.800  0.00  0.00    +0.097 S 
ATOM     27  O   UNL     1      -1.032 -10.368  -2.092  0.00  0.00    -0.141 OA
ATOM     28  O   UNL     1      -1.974  -8.684  -0.516  0.00  0.00    -0.141 OA
BRANCH  26  29
ATOM     29  N   UNL     1      -2.706  -8.727  -2.876  0.00  0.00    -0.162 NA
ATOM     30  C   UNL     1      -2.848  -9.504  -4.118  0.00  0.00    +0.142 C 
ATOM     31  C   UNL     1      -4.300  -9.982  -4.226  0.00  0.00    +0.131 C 
ATOM     32  O   UNL     1      -5.177  -8.864  -4.073  0.00  0.00    -0.371 OA
ATOM     33  C   UNL     1      -5.088  -8.220  -2.799  0.00  0.00    +0.131 C 
ATOM     34  C   UNL     1      -3.680  -7.655  -2.616  0.00  0.00    +0.142 C 
ATOM     35  C   UNL     1      -6.111  -7.085  -2.728  0.00  0.00    +0.039 C 
ATOM     36  C   UNL     1      -4.583 -11.009  -3.127  0.00  0.00    +0.039 C 
ENDBRANCH  26  29
ENDBRANCH  24  26
ENDBRANCH  23  24
ENDBRANCH   1  23
TORSDOF 9
