REMARK  Name = ZINC11511009
REMARK  17 active torsions:
REMARK  status: ('A' for Active; 'I' for Inactive)
REMARK    1  A    between atoms: C_1  and  C_2
REMARK    2  A    between atoms: C_2  and  O_3
REMARK    3  A    between atoms: O_3  and  C_4
REMARK    4  A    between atoms: C_4  and  C_6
REMARK    5  A    between atoms: C_7  and  C_34
REMARK    6  A    between atoms: C_8  and  C_29
REMARK    7  A    between atoms: C_10  and  N_11
REMARK    8  A    between atoms: C_12  and  C_14
REMARK    9  A    between atoms: C_14  and  O_15
REMARK   10  A    between atoms: O_15  and  C_16
REMARK   11  A    between atoms: C_16  and  C_18
REMARK   12  A    between atoms: C_18  and  N_19
REMARK   13  A    between atoms: C_20  and  C_22
REMARK   14  A    between atoms: C_25  and  C_28
REMARK   15  A    between atoms: C_29  and  O_31
REMARK   16  A    between atoms: O_31  and  C_32
REMARK   17  A    between atoms: C_32  and  C_33
REMARK                            x       y       z     vdW  Elec       q    Type
REMARK                         _______ _______ _______ _____ _____    ______ ____
ROOT
ATOM      1  N   UNL     1      -1.280  -2.329  -2.491  0.00  0.00    -0.277 N 
ATOM      2  C   UNL     1      -1.323  -3.183  -3.533  0.00  0.00    +0.255 C 
ATOM      3  O   UNL     1      -1.367  -4.379  -3.335  0.00  0.00    -0.272 OA
ATOM      4  H   UNL     1      -1.244  -1.373  -2.649  0.00  0.00    +0.155 HD
ENDROOT
BRANCH   1   9
ATOM      5  C   UNL     1      -1.248  -2.099   0.003  0.00  0.00    +0.091 A 
ATOM      6  C   UNL     1      -1.259  -2.821   1.185  0.00  0.00    -0.014 A 
ATOM      7  C   UNL     1      -1.318  -4.187   1.096  0.00  0.00    +0.102 A 
ATOM      8  S   UNL     1      -1.345  -4.463  -0.665  0.00  0.00    -0.066 S 
ATOM      9  C   UNL     1      -1.287  -2.815  -1.199  0.00  0.00    +0.087 A 
ATOM     10  C   UNL     1      -1.214  -2.129   2.523  0.00  0.00    +0.046 C 
BRANCH   5  11
ATOM     11  C   UNL     1      -1.191  -0.632   0.010  0.00  0.00    +0.342 C 
ATOM     12  O   UNL     1      -2.220   0.016   0.023  0.00  0.00    -0.245 OA
BRANCH  11  13
ATOM     13  O   UNL     1       0.002  -0.004   0.002  0.00  0.00    -0.461 OA
BRANCH  13  15
ATOM     14  C   UNL     1       1.418   1.977  -0.001  0.00  0.00    +0.048 C 
ATOM     15  C   UNL     1      -0.018   1.448   0.010  0.00  0.00    +0.229 C 
ENDBRANCH  13  15
ENDBRANCH  11  13
ENDBRANCH   5  11
BRANCH   7  16
ATOM     16  C   UNL     1      -1.345  -5.172   2.176  0.00  0.00    +0.346 C 
ATOM     17  O   UNL     1      -1.320  -4.805   3.335  0.00  0.00    -0.244 OA
BRANCH  16  18
ATOM     18  O   UNL     1      -1.399  -6.489   1.886  0.00  0.00    -0.461 OA
BRANCH  18  19
ATOM     19  C   UNL     1      -1.423  -7.396   2.990  0.00  0.00    +0.229 C 
ATOM     20  C   UNL     1      -1.484  -8.833   2.469  0.00  0.00    +0.048 C 
ENDBRANCH  18  19
ENDBRANCH  16  18
ENDBRANCH   7  16
ENDBRANCH   1   9
BRANCH   2  21
ATOM     21  C   UNL     1      -1.315  -2.653  -4.943  0.00  0.00    +0.328 C 
BRANCH  21  22
ATOM     22  O   UNL     1      -1.367  -3.763  -5.878  0.00  0.00    -0.454 OA
BRANCH  22  23
ATOM     23  C   UNL     1      -1.368  -3.459  -7.185  0.00  0.00    +0.325 C 
ATOM     24  O   UNL     1      -1.326  -2.303  -7.537  0.00  0.00    -0.249 OA
BRANCH  23  25
ATOM     25  C   UNL     1      -1.420  -4.558  -8.215  0.00  0.00    +0.225 C 
BRANCH  25  26
ATOM     26  N   UNL     1      -1.410  -3.971  -9.557  0.00  0.00    -0.301 N 
ATOM     27  C   UNL     1      -1.451  -4.770 -10.642  0.00  0.00    +0.245 C 
ATOM     28  O   UNL     1      -1.496  -5.977 -10.507  0.00  0.00    -0.270 OA
ATOM     29  H   UNL     1      -1.373  -3.008  -9.665  0.00  0.00    +0.150 HD
BRANCH  27  30
ATOM     30  C   UNL     1      -1.440  -4.178 -11.997  0.00  0.00    +0.037 A 
ATOM     31  C   UNL     1      -1.394  -2.792 -12.155  0.00  0.00    +0.013 A 
ATOM     32  C   UNL     1      -1.380  -2.246 -13.422  0.00  0.00    +0.004 A 
ATOM     33  C   UNL     1      -1.423  -3.069 -14.534  0.00  0.00    -0.050 A 
ATOM     34  C   UNL     1      -1.474  -4.443 -14.383  0.00  0.00    +0.004 A 
ATOM     35  C   UNL     1      -1.483  -5.002 -13.122  0.00  0.00    +0.013 A 
ATOM     36  C   UNL     1      -1.413  -2.465 -15.915  0.00  0.00    +0.044 C 
ENDBRANCH  27  30
ENDBRANCH  25  26
ENDBRANCH  23  25
ENDBRANCH  22  23
ENDBRANCH  21  22
ENDBRANCH   2  21
TORSDOF 13
