REMARK  Name = ZINC13303316
REMARK  6 active torsions:
REMARK  status: ('A' for Active; 'I' for Inactive)
REMARK    1  A    between atoms: C_4  and  S_10
REMARK    2  A    between atoms: C_6  and  N_7
REMARK    3  A    between atoms: S_10  and  N_13
REMARK    4  A    between atoms: C_16  and  C_19
REMARK    5  A    between atoms: N_21  and  C_22
REMARK    6  A    between atoms: C_27  and  C_28
REMARK                            x       y       z     vdW  Elec       q    Type
REMARK                         _______ _______ _______ _____ _____    ______ ____
ROOT
ATOM      1  N   UNL     1      -5.886   1.200   1.524  0.00  0.00    -0.176 NA
ATOM      2  C   UNL     1      -5.492   0.338   2.647  0.00  0.00    +0.110 C 
ATOM      3  C   UNL     1      -5.074   1.231   3.825  0.00  0.00    +0.030 C 
ATOM      4  C   UNL     1      -6.211   2.204   4.148  0.00  0.00    +0.078 C 
ATOM      5  C   UNL     1      -6.479   3.099   2.936  0.00  0.00    +0.030 C 
ATOM      6  C   UNL     1      -6.908   2.231   1.749  0.00  0.00    +0.110 C 
ENDROOT
BRANCH   4   7
ATOM      7  C   UNL     1      -5.822   3.057   5.327  0.00  0.00    +0.220 C 
ATOM      8  O   UNL     1      -5.764   4.263   5.210  0.00  0.00    -0.275 OA
ATOM      9  N   UNL     1      -5.538   2.481   6.512  0.00  0.00    -0.284 N 
ATOM     10  H   UNL     1      -5.517   1.514   6.588  0.00  0.00    +0.155 HD
BRANCH   9  11
ATOM     11  C   UNL     1      -5.276   3.274   7.627  0.00  0.00    +0.050 A 
ATOM     12  C   UNL     1      -4.590   4.471   7.484  0.00  0.00    +0.062 A 
ATOM     13  C   UNL     1      -4.331   5.257   8.593  0.00  0.00    +0.125 A 
ATOM     14  C   UNL     1      -4.753   4.854   9.853  0.00  0.00    +0.039 A 
ATOM     15  C   UNL     1      -5.435   3.669  10.011  0.00  0.00    +0.020 A 
ATOM     16  C   UNL     1      -5.709   2.867   8.899  0.00  0.00    +0.084 A 
ATOM     17  F   UNL     1      -3.663   6.422   8.449  0.00  0.00    -0.205 F 
BRANCH  16  18
ATOM     18  C   UNL     1      -6.443   1.601   9.061  0.00  0.00    +0.388 C 
ATOM     19  O   UNL     1      -6.601   0.864   8.108  0.00  0.00    -0.241 OA
ATOM     20  O   UNL     1      -6.939   1.260  10.267  0.00  0.00    -0.241 OA
ENDBRANCH  16  18
ENDBRANCH   9  11
ENDBRANCH   4   7
BRANCH   1  21
ATOM     21  S   UNL     1      -5.196   1.008   0.031  0.00  0.00    +0.062 S 
ATOM     22  O   UNL     1      -6.036   1.683  -0.895  0.00  0.00    -0.153 OA
ATOM     23  O   UNL     1      -4.877  -0.371  -0.095  0.00  0.00    -0.153 OA
BRANCH  21  27
ATOM     24  C   UNL     1      -1.260   3.246   0.081  0.00  0.00    +0.034 A 
ATOM     25  C   UNL     1      -2.452   3.943   0.152  0.00  0.00    +0.024 A 
ATOM     26  C   UNL     1      -3.655   3.260   0.138  0.00  0.00    +0.067 A 
ATOM     27  C   UNL     1      -3.664   1.879   0.049  0.00  0.00    +0.126 A 
ATOM     28  C   UNL     1      -2.473   1.183  -0.028  0.00  0.00    +0.062 A 
ATOM     29  C   UNL     1      -1.271   1.867  -0.014  0.00  0.00    +0.128 A 
ATOM     30 CL   UNL     1      -5.151   4.134   0.234  0.00  0.00    -0.082 Cl
BRANCH  29  31
ATOM     31  N   UNL     1       0.005   1.121  -0.096  0.00  0.00    +0.056 N 
ATOM     32  O   UNL     1      -0.004  -0.094  -0.175  0.00  0.00    -0.126 OA
ATOM     33  O   UNL     1       1.064   1.724  -0.089  0.00  0.00    -0.126 OA
ENDBRANCH  29  31
ENDBRANCH  21  27
ENDBRANCH   1  21
TORSDOF 6
