REMARK  Name = ZINC32103151
REMARK  8 active torsions:
REMARK  status: ('A' for Active; 'I' for Inactive)
REMARK    1  A    between atoms: C_1  and  C_2
REMARK    2  A    between atoms: C_2  and  C_3
REMARK    3  A    between atoms: C_3  and  C_4
REMARK    4  A    between atoms: C_4  and  O_5
REMARK    5  A    between atoms: O_5  and  C_6
REMARK    6  A    between atoms: C_11  and  C_12
REMARK    7  A    between atoms: C_15  and  O_30
REMARK    8  A    between atoms: C_19  and  C_29
REMARK                            x       y       z     vdW  Elec       q    Type
REMARK                         _______ _______ _______ _____ _____    ______ ____
ROOT
ATOM      1  C   UNL     1       2.816  -3.471   4.673  0.00  0.00    +0.067 C 
ATOM      2  C   UNL     1       2.192  -3.759   6.044  0.00  0.00    +0.108 C 
ATOM      3  C   UNL     1       3.032  -3.203   7.157  0.00  0.00    +0.190 C 
ATOM      4  N   UNL     1       4.329  -3.137   7.114  0.00  0.00    -0.197 NA
ATOM      5  C   UNL     1       4.977  -3.543   5.985  0.00  0.00    +0.165 A 
ATOM      6  C   UNL     1       4.300  -3.718   4.784  0.00  0.00    +0.028 A 
ATOM      7  C   UNL     1       5.216  -4.127   3.833  0.00  0.00    +0.066 A 
ATOM      8  N   UNL     1       6.401  -4.191   4.398  0.00  0.00    -0.168 NA
ATOM      9  N   UNL     1       6.280  -3.822   5.750  0.00  0.00    -0.194 N 
ATOM     10  C   UNL     1       7.319  -3.751   6.681  0.00  0.00    +0.178 A 
ATOM     11  C   UNL     1       8.471  -4.516   6.505  0.00  0.00    +0.053 A 
ATOM     12  C   UNL     1       9.473  -4.410   7.456  0.00  0.00    +0.045 A 
ATOM     13  C   UNL     1       9.268  -3.549   8.526  0.00  0.00    +0.152 A 
ATOM     14  N   UNL     1       8.145  -2.861   8.614  0.00  0.00    -0.136 NA
ATOM     15  N   UNL     1       7.217  -2.952   7.732  0.00  0.00    -0.128 NA
ATOM     16 CL   UNL     1      10.489  -3.377   9.748  0.00  0.00    -0.060 Cl
ATOM     17  C   UNL     1       4.908  -4.445   2.393  0.00  0.00    +0.068 C 
ENDROOT
BRANCH   1  23
ATOM     18  C   UNL     1       1.563  -3.861   2.537  0.00  0.00    +0.124 A 
ATOM     19  C   UNL     1       1.020  -4.709   1.582  0.00  0.00    +0.046 A 
ATOM     20  C   UNL     1       1.133  -6.078   1.733  0.00  0.00    +0.004 A 
ATOM     21  C   UNL     1       1.785  -6.602   2.833  0.00  0.00    +0.001 A 
ATOM     22  C   UNL     1       2.326  -5.759   3.786  0.00  0.00    +0.008 A 
ATOM     23  C   UNL     1       2.221  -4.389   3.637  0.00  0.00    +0.002 A 
BRANCH  18  24
ATOM     24  O   UNL     1       1.454  -2.514   2.391  0.00  0.00    -0.492 OA
BRANCH  24  25
ATOM     25  C   UNL     1       0.763  -2.041   1.233  0.00  0.00    +0.229 C 
BRANCH  25  26
ATOM     26  C   UNL     1       0.742  -0.511   1.242  0.00  0.00    +0.041 C 
BRANCH  26  28
ATOM     27  C   UNL     1      -0.019   1.526   0.010  0.00  0.00    +0.004 C 
ATOM     28  C   UNL     1       0.002  -0.004   0.002  0.00  0.00    -0.000 C 
ENDBRANCH  26  28
ENDBRANCH  25  26
ENDBRANCH  24  25
ENDBRANCH  18  24
ENDBRANCH   1  23
BRANCH   3  29
ATOM     29  O   UNL     1       2.406  -2.749   8.263  0.00  0.00    -0.495 OA
ATOM     30  H   UNL     1       3.005  -2.405   8.940  0.00  0.00    +0.293 HD
ENDBRANCH   3  29
TORSDOF 6
