REMARK  Name = ZINC08215618
REMARK  6 active torsions:
REMARK  status: ('A' for Active; 'I' for Inactive)
REMARK    1  A    between atoms: C_7  and  C_17
REMARK    2  A    between atoms: C_7  and  O_29
REMARK    3  A    between atoms: N_10  and  C_11
REMARK    4  A    between atoms: C_11  and  N_54
REMARK    5  A    between atoms: C_17  and  C_18
REMARK    6  A    between atoms: C_18  and  C_20
REMARK                            x       y       z     vdW  Elec       q    Type
REMARK                         _______ _______ _______ _____ _____    ______ ____
ROOT
ATOM      1  C   UNL     1       0.543  -2.729  -0.017  0.00  0.00    +0.000 A 
ATOM      2  C   UNL     1      -0.766  -2.281  -0.002  0.00  0.00    +0.002 A 
ATOM      3  C   UNL     1      -1.040  -0.929   0.007  0.00  0.00    +0.024 A 
ATOM      4  C   UNL     1       0.002  -0.004   0.002  0.00  0.00    +0.041 A 
ATOM      5  C   UNL     1       1.312  -0.467  -0.013  0.00  0.00    +0.014 A 
ATOM      6  C   UNL     1       1.583  -1.816  -0.022  0.00  0.00    +0.009 A 
ATOM      7  C   UNL     1       2.196   0.759  -0.015  0.00  0.00    +0.175 C 
ATOM      8  C   UNL     1       1.220   1.917   0.001  0.00  0.00    +0.255 C 
ATOM      9  O   UNL     1       1.501   3.096   0.004  0.00  0.00    -0.272 OA
ATOM     10  N   UNL     1      -0.017   1.391   0.010  0.00  0.00    -0.285 N 
ENDROOT
BRANCH   7  11
ATOM     11  O   UNL     1       2.998   0.797  -1.197  0.00  0.00    -0.374 OA
ATOM     12  H   UNL     1       3.585   1.563  -1.250  0.00  0.00    +0.211 HD
ENDBRANCH   7  11
BRANCH  10  13
ATOM     13  C   UNL     1      -1.244   2.191   0.020  0.00  0.00    +0.038 C 
BRANCH  13  19
ATOM     14  C   UNL     1      -2.357   1.297   1.975  0.00  0.00    -0.077 C 
ATOM     15  C   UNL     1      -2.633   1.545   3.460  0.00  0.00    -0.019 C 
ATOM     16  C   UNL     1      -3.478   2.813   3.612  0.00  0.00    -0.004 C 
ATOM     17  C   UNL     1      -2.738   3.990   2.972  0.00  0.00    -0.019 C 
ATOM     18  C   UNL     1      -2.459   3.671   1.501  0.00  0.00    -0.077 C 
ATOM     19  N   UNL     1      -1.622   2.455   1.424  0.00  0.00    +0.390 N 
ATOM     20  H   UNL     1      -0.769   2.602   1.977  0.00  0.00    -0.080 HD
ENDBRANCH  13  19
ENDBRANCH  10  13
BRANCH   7  21
ATOM     21  C   UNL     1       3.081   0.784   1.233  0.00  0.00    +0.129 C 
BRANCH  21  22
ATOM     22  C   UNL     1       3.861   2.072   1.270  0.00  0.00    +0.167 C 
ATOM     23  O   UNL     1       3.723   2.891   0.385  0.00  0.00    -0.292 OA
BRANCH  22  24
ATOM     24  C   UNL     1       4.789   2.337   2.377  0.00  0.00    +0.021 A 
ATOM     25  C   UNL     1       4.946   1.397   3.402  0.00  0.00    +0.015 A 
ATOM     26  C   UNL     1       5.821   1.646   4.436  0.00  0.00    +0.050 A 
ATOM     27  C   UNL     1       6.541   2.833   4.472  0.00  0.00    +0.166 A 
ATOM     28  C   UNL     1       6.386   3.778   3.456  0.00  0.00    +0.167 A 
ATOM     29  C   UNL     1       5.516   3.534   2.413  0.00  0.00    +0.061 A 
ATOM     30  O   UNL     1       7.197   4.844   3.725  0.00  0.00    -0.453 OA
ATOM     31  C   UNL     1       7.539   4.723   5.119  0.00  0.00    +0.466 C 
ATOM     32  O   UNL     1       7.448   3.309   5.373  0.00  0.00    -0.453 OA
ENDBRANCH  22  24
ENDBRANCH  21  22
ENDBRANCH   7  21
TORSDOF 6
