REMARK  Name = ZINC33897393
REMARK  10 active torsions:
REMARK  status: ('A' for Active; 'I' for Inactive)
REMARK    1  A    between atoms: C_1  and  C_2
REMARK    2  A    between atoms: C_2  and  C_4
REMARK    3  A    between atoms: C_7  and  N_10
REMARK    4  A    between atoms: C_15  and  C_33
REMARK    5  A    between atoms: C_18  and  C_23
REMARK    6  A    between atoms: C_18  and  C_30
REMARK    7  A    between atoms: C_23  and  C_24
REMARK    8  A    between atoms: C_36  and  N_39
REMARK    9  A    between atoms: N_39  and  C_40
REMARK   10  A    between atoms: N_39  and  C_41
REMARK                            x       y       z     vdW  Elec       q    Type
REMARK                         _______ _______ _______ _____ _____    ______ ____
ROOT
ATOM      1  N   UNL     1      -4.500  -3.744   0.253  0.00  0.00    -0.210 N 
ATOM      2  C   UNL     1      -5.526  -2.846   0.092  0.00  0.00    +0.229 C 
ATOM      3  O   UNL     1      -5.441  -1.666  -0.175  0.00  0.00    -0.275 OA
ATOM      4  C   UNL     1      -6.726  -3.614   0.312  0.00  0.00    +0.077 C 
ATOM      5  C   UNL     1      -8.170  -3.576   0.021  0.00  0.00    -0.027 C 
ATOM      6  N   UNL     1      -8.610  -4.954   0.431  0.00  0.00    +0.395 N 
ATOM      7  C   UNL     1      -7.416  -5.849   0.381  0.00  0.00    +0.048 C 
ATOM      8  C   UNL     1      -6.324  -5.013  -0.304  0.00  0.00    +0.086 C 
ATOM      9  C   UNL     1      -4.931  -5.041   0.260  0.00  0.00    +0.229 C 
ATOM     10  O   UNL     1      -4.318  -6.014   0.644  0.00  0.00    -0.275 OA
ATOM     11  H   UNL     1      -8.979  -4.929   1.370  0.00  0.00    -0.083 HD
ATOM     12  H   UNL     1      -9.316  -5.291  -0.206  0.00  0.00    -0.083 HD
ENDROOT
BRANCH   1  16
ATOM     13  C   UNL     1      -0.502  -2.637   0.659  0.00  0.00    +0.017 A 
ATOM     14  C   UNL     1      -1.490  -1.657   0.505  0.00  0.00    +0.013 A 
ATOM     15  C   UNL     1      -2.808  -2.027   0.371  0.00  0.00    +0.024 A 
ATOM     16  C   UNL     1      -3.160  -3.373   0.389  0.00  0.00    +0.044 A 
ATOM     17  C   UNL     1      -2.182  -4.351   0.542  0.00  0.00    +0.024 A 
ATOM     18  C   UNL     1      -0.860  -3.991   0.671  0.00  0.00    +0.013 A 
BRANCH  13  20
ATOM     19  C   UNL     1       1.290  -0.789   0.791  0.00  0.00    +0.091 C 
ATOM     20  C   UNL     1       0.907  -2.247   0.803  0.00  0.00    +0.160 C 
ATOM     21  O   UNL     1       1.762  -3.098   0.932  0.00  0.00    -0.292 OA
ENDBRANCH  13  20
ENDBRANCH   1  16
BRANCH   5  22
ATOM     22  C   UNL     1      -8.858  -2.522   0.849  0.00  0.00    -0.060 A 
ATOM     23  C   UNL     1      -9.042  -2.721   2.205  0.00  0.00    +0.004 A 
ATOM     24  C   UNL     1      -9.673  -1.757   2.967  0.00  0.00    +0.023 A 
ATOM     25  C   UNL     1     -10.121  -0.586   2.370  0.00  0.00    +0.029 A 
ATOM     26  C   UNL     1      -9.934  -0.389   1.007  0.00  0.00    +0.023 A 
ATOM     27  C   UNL     1      -9.298  -1.355   0.252  0.00  0.00    +0.004 A 
BRANCH  25  28
ATOM     28  N   UNL     1     -10.759   0.391   3.137  0.00  0.00    -0.336 N 
ATOM     29  C   UNL     1     -10.956   0.181   4.574  0.00  0.00    +0.129 C 
ATOM     30  C   UNL     1     -11.232   1.625   2.506  0.00  0.00    +0.129 C 
ENDBRANCH  25  28
ENDBRANCH   5  22
BRANCH   7  31
ATOM     31  C   UNL     1      -7.715  -7.073  -0.447  0.00  0.00    +0.346 C 
ATOM     32  O   UNL     1      -8.822  -7.222  -0.936  0.00  0.00    -0.248 OA
ATOM     33  O   UNL     1      -6.851  -7.913  -0.628  0.00  0.00    -0.248 OA
ENDBRANCH   7  31
BRANCH   7  34
ATOM     34  C   UNL     1      -6.997  -6.255   1.795  0.00  0.00    +0.003 C 
BRANCH  34  35
ATOM     35  C   UNL     1      -8.025  -7.231   2.371  0.00  0.00    -0.012 C 
ATOM     36  C   UNL     1      -9.385  -6.537   2.474  0.00  0.00    +0.003 C 
ATOM     37  C   UNL     1     -10.413  -7.514   3.050  0.00  0.00    +0.000 C 
ATOM     38  C   UNL     1      -9.964  -7.966   4.441  0.00  0.00    +0.000 C 
ATOM     39  C   UNL     1      -8.604  -8.660   4.337  0.00  0.00    +0.000 C 
ATOM     40  C   UNL     1      -7.576  -7.683   3.762  0.00  0.00    +0.003 C 
ENDBRANCH  34  35
ENDBRANCH   7  34
TORSDOF 7
