REMARK  Name = ZINC02637108
REMARK  13 active torsions:
REMARK  status: ('A' for Active; 'I' for Inactive)
REMARK    1  A    between atoms: C_1  and  C_2
REMARK    2  A    between atoms: C_3  and  C_30
REMARK    3  A    between atoms: C_4  and  S_11
REMARK    4  A    between atoms: C_6  and  C_7
REMARK    5  A    between atoms: C_7  and  O_9
REMARK    6  A    between atoms: O_9  and  C_10
REMARK    7  A    between atoms: S_11  and  N_14
REMARK    8  A    between atoms: N_14  and  C_15
REMARK    9  A    between atoms: C_20  and  C_21
REMARK   10  A    between atoms: N_23  and  C_24
REMARK   11  A    between atoms: C_24  and  C_25
REMARK   12  A    between atoms: C_30  and  O_32
REMARK   13  A    between atoms: O_32  and  C_33
REMARK                            x       y       z     vdW  Elec       q    Type
REMARK                         _______ _______ _______ _____ _____    ______ ____
ROOT
ATOM      1  N   UNL     1       4.987   0.438  -0.042  0.00  0.00    -0.215 N 
ATOM      2  H   UNL     1       5.570   0.248   0.710  0.00  0.00    +0.174 HD
ENDROOT
BRANCH   1   3
ATOM      3  C   UNL     1       4.884  -0.470  -1.088  0.00  0.00    +0.060 A 
ATOM      4  C   UNL     1       4.727  -0.018  -2.393  0.00  0.00    +0.025 A 
ATOM      5  C   UNL     1       4.629  -0.921  -3.430  0.00  0.00    +0.002 A 
ATOM      6  C   UNL     1       4.676  -2.284  -3.181  0.00  0.00    +0.001 A 
ATOM      7  C   UNL     1       4.827  -2.751  -1.893  0.00  0.00    +0.015 A 
ATOM      8  C   UNL     1       4.932  -1.849  -0.832  0.00  0.00    +0.059 A 
BRANCH   8   9
ATOM      9  C   UNL     1       5.093  -2.342   0.548  0.00  0.00    +0.246 C 
ATOM     10  O   UNL     1       5.184  -1.553   1.469  0.00  0.00    -0.270 OA
ATOM     11  N   UNL     1       5.139  -3.667   0.789  0.00  0.00    -0.304 N 
ATOM     12  H   UNL     1       5.066  -4.297   0.054  0.00  0.00    +0.149 HD
BRANCH  11  13
ATOM     13  C   UNL     1       5.298  -4.157   2.160  0.00  0.00    +0.179 C 
BRANCH  13  14
ATOM     14  C   UNL     1       5.319  -5.664   2.156  0.00  0.00    +0.122 A 
ATOM     15  C   UNL     1       6.415  -6.435   2.033  0.00  0.00    +0.046 A 
ATOM     16  C   UNL     1       5.977  -7.779   2.080  0.00  0.00    +0.041 A 
ATOM     17  C   UNL     1       4.641  -7.749   2.228  0.00  0.00    +0.195 A 
ATOM     18  O   UNL     1       4.248  -6.465   2.280  0.00  0.00    -0.466 OA
ENDBRANCH  13  14
ENDBRANCH  11  13
ENDBRANCH   8   9
ENDBRANCH   1   3
BRANCH   1  19
ATOM     19  S   UNL     1       4.116   1.846  -0.079  0.00  0.00    +0.079 S 
ATOM     20  O   UNL     1       4.411   2.475  -1.318  0.00  0.00    -0.149 OA
ATOM     21  O   UNL     1       4.328   2.488   1.171  0.00  0.00    -0.149 OA
BRANCH  19  25
ATOM     22  C   UNL     1      -1.206   2.483  -0.264  0.00  0.00    +0.046 C 
ATOM     23  C   UNL     1       0.047   1.647  -0.212  0.00  0.00    -0.013 A 
ATOM     24  C   UNL     1       1.302   2.235  -0.174  0.00  0.00    +0.096 A 
ATOM     25  C   UNL     1       2.411   1.402  -0.133  0.00  0.00    +0.161 A 
ATOM     26  S   UNL     1       1.709  -0.182  -0.148  0.00  0.00    -0.061 S 
ATOM     27  C   UNL     1      -0.013   0.279  -0.207  0.00  0.00    +0.102 A 
BRANCH  27  28
ATOM     28  C   UNL     1      -1.194  -0.588  -0.241  0.00  0.00    +0.346 C 
ATOM     29  O   UNL     1      -2.306  -0.099  -0.281  0.00  0.00    -0.244 OA
BRANCH  28  30
ATOM     30  O   UNL     1      -1.047  -1.929  -0.229  0.00  0.00    -0.464 OA
ATOM     31  C   UNL     1      -2.260  -2.725  -0.265  0.00  0.00    +0.280 C 
ENDBRANCH  28  30
ENDBRANCH  27  28
BRANCH  24  32
ATOM     32  C   UNL     1       1.454   3.699  -0.177  0.00  0.00    +0.342 C 
ATOM     33  O   UNL     1       1.482   4.309   0.873  0.00  0.00    -0.245 OA
BRANCH  32  34
ATOM     34  O   UNL     1       1.562   4.363  -1.346  0.00  0.00    -0.464 OA
ATOM     35  C   UNL     1       1.708   5.805  -1.273  0.00  0.00    +0.280 C 
ENDBRANCH  32  34
ENDBRANCH  24  32
ENDBRANCH  19  25
ENDBRANCH   1  19
TORSDOF 10
