REMARK  Name = ZINC16693768
REMARK  13 active torsions:
REMARK  status: ('A' for Active; 'I' for Inactive)
REMARK    1  A    between atoms: C_1  and  C_2
REMARK    2  A    between atoms: C_3  and  C_33
REMARK    3  A    between atoms: N_6  and  C_28
REMARK    4  A    between atoms: C_10  and  C_11
REMARK    5  A    between atoms: C_14  and  C_16
REMARK    6  A    between atoms: C_19  and  C_22
REMARK    7  A    between atoms: C_22  and  O_24
REMARK    8  A    between atoms: O_24  and  C_25
REMARK    9  A    between atoms: C_25  and  C_26
REMARK   10  A    between atoms: C_25  and  C_27
REMARK   11  A    between atoms: C_28  and  C_29
REMARK   12  A    between atoms: C_29  and  C_31
REMARK   13  A    between atoms: C_29  and  O_32
REMARK                            x       y       z     vdW  Elec       q    Type
REMARK                         _______ _______ _______ _____ _____    ______ ____
ROOT
ATOM      1  C   UNL     1       0.521   1.148  -0.137  0.00  0.00    +0.046 C 
ATOM      2  C   UNL     1      -0.458   0.018   0.051  0.00  0.00    -0.016 C 
ATOM      3  C   UNL     1      -1.164  -0.493  -1.030  0.00  0.00    +0.117 C 
ATOM      4  C   UNL     1      -2.110  -1.592  -0.821  0.00  0.00    +0.264 C 
ATOM      5  O   UNL     1      -2.728  -2.041  -1.768  0.00  0.00    -0.269 OA
ATOM      6  N   UNL     1      -2.302  -2.110   0.405  0.00  0.00    -0.231 N 
ATOM      7  C   UNL     1      -1.637  -1.640   1.475  0.00  0.00    +0.254 C 
ATOM      8  O   UNL     1      -1.833  -2.130   2.572  0.00  0.00    -0.270 OA
ATOM      9  C   UNL     1      -0.671  -0.543   1.327  0.00  0.00    +0.045 C 
ATOM     10  C   UNL     1       0.025  -0.058   2.439  0.00  0.00    +0.059 C 
ENDROOT
BRANCH  10  11
ATOM     11  C   UNL     1      -0.044  -0.738   3.659  0.00  0.00    +0.129 A 
ATOM     12  C   UNL     1      -0.147  -0.151   4.918  0.00  0.00    +0.050 A 
ATOM     13  C   UNL     1      -0.188  -1.189   5.843  0.00  0.00    +0.050 A 
ATOM     14  C   UNL     1      -0.110  -2.370   5.131  0.00  0.00    +0.136 A 
ATOM     15  O   UNL     1      -0.030  -2.079   3.822  0.00  0.00    -0.455 OA
BRANCH  14  16
ATOM     16  C   UNL     1      -0.119  -3.726   5.711  0.00  0.00    +0.017 A 
ATOM     17  C   UNL     1      -0.219  -3.894   7.096  0.00  0.00    +0.012 A 
ATOM     18  C   UNL     1      -0.227  -5.155   7.634  0.00  0.00    +0.015 A 
ATOM     19  C   UNL     1      -0.136  -6.272   6.800  0.00  0.00    +0.059 A 
ATOM     20  C   UNL     1      -0.037  -6.105   5.415  0.00  0.00    +0.015 A 
ATOM     21  C   UNL     1      -0.035  -4.845   4.875  0.00  0.00    +0.012 A 
BRANCH  19  22
ATOM     22  C   UNL     1      -0.144  -7.630   7.380  0.00  0.00    +0.339 C 
ATOM     23  O   UNL     1      -0.230  -7.776   8.583  0.00  0.00    -0.245 OA
BRANCH  22  24
ATOM     24  O   UNL     1      -0.056  -8.707   6.576  0.00  0.00    -0.458 OA
BRANCH  24  25
ATOM     25  C   UNL     1      -0.070  -9.990   7.206  0.00  0.00    +0.171 C 
ATOM     26  C   UNL     1      -1.513 -10.485   7.323  0.00  0.00    +0.052 C 
ATOM     27  C   UNL     1       0.742 -10.979   6.367  0.00  0.00    +0.052 C 
ENDBRANCH  24  25
ENDBRANCH  22  24
ENDBRANCH  19  22
ENDBRANCH  14  16
ENDBRANCH  10  11
BRANCH   3  28
ATOM     28  C   UNL     1      -0.969   0.050  -2.341  0.00  0.00    +0.105 C 
ATOM     29  N   UNL     1      -0.814   0.481  -3.380  0.00  0.00    -0.191 NA
ENDBRANCH   3  28
BRANCH   6  30
ATOM     30  C   UNL     1      -3.256  -3.208   0.578  0.00  0.00    +0.148 C 
BRANCH  30  31
ATOM     31  C   UNL     1      -2.532  -4.545   0.400  0.00  0.00    +0.129 C 
ATOM     32  C   UNL     1      -3.528  -5.692   0.581  0.00  0.00    +0.039 C 
BRANCH  31  33
ATOM     33  O   UNL     1      -1.964  -4.609  -0.910  0.00  0.00    -0.390 OA
ATOM     34  H   UNL     1      -1.489  -5.431  -1.093  0.00  0.00    +0.210 HD
ENDBRANCH  31  33
ENDBRANCH  30  31
ENDBRANCH   6  30
TORSDOF 9
