REMARK  Name = ZINC09065635
REMARK  4 active torsions:
REMARK  status: ('A' for Active; 'I' for Inactive)
REMARK    1  A    between atoms: C_5  and  N_7
REMARK    2  A    between atoms: N_10  and  C_11
REMARK    3  A    between atoms: C_11  and  C_12
REMARK    4  A    between atoms: N_17  and  C_19
REMARK                            x       y       z     vdW  Elec       q    Type
REMARK                         _______ _______ _______ _____ _____    ______ ____
ROOT
ATOM      1  C   UNL     1       7.065  -1.733   2.922  0.00  0.00    +0.033 C 
ATOM      2  C   UNL     1       7.187  -0.195   2.832  0.00  0.00    +0.103 C 
ATOM      3  C   UNL     1       5.916   0.236   2.133  0.00  0.00    +0.220 C 
ATOM      4  O   UNL     1       5.741   1.319   1.616  0.00  0.00    -0.275 OA
ATOM      5  N   UNL     1       5.008  -0.754   2.172  0.00  0.00    -0.271 N 
ATOM      6  C   UNL     1       5.534  -1.931   2.875  0.00  0.00    +0.119 C 
ENDROOT
BRANCH   5   7
ATOM      7  C   UNL     1       3.728  -0.676   1.610  0.00  0.00    +0.040 A 
ATOM      8  C   UNL     1       2.907  -1.795   1.593  0.00  0.00    +0.027 A 
ATOM      9  C   UNL     1       1.643  -1.719   1.039  0.00  0.00    +0.051 A 
ATOM     10  C   UNL     1       1.192  -0.526   0.499  0.00  0.00    +0.166 A 
ATOM     11  C   UNL     1       2.013   0.599   0.514  0.00  0.00    +0.168 A 
ATOM     12  C   UNL     1       3.280   0.522   1.069  0.00  0.00    +0.073 A 
ATOM     13  O   UNL     1       1.345   1.635  -0.072  0.00  0.00    -0.453 OA
ATOM     14  C   UNL     1      -0.041   1.246  -0.077  0.00  0.00    +0.466 C 
ATOM     15  O   UNL     1       0.008  -0.193  -0.097  0.00  0.00    -0.453 OA
ENDBRANCH   5   7
BRANCH   1  16
ATOM     16  C   UNL     1       7.643  -2.252   4.241  0.00  0.00    +0.111 C 
BRANCH  16  20
ATOM     17  N   UNL     1      11.178  -2.475   5.229  0.00  0.00    -0.268 N 
ATOM     18  C   UNL     1       9.833  -2.561   5.263  0.00  0.00    +0.304 C 
ATOM     19  O   UNL     1       9.277  -3.002   6.250  0.00  0.00    -0.253 OA
ATOM     20  N   UNL     1       9.105  -2.159   4.203  0.00  0.00    -0.299 N 
ATOM     21  H   UNL     1      11.617  -2.047   4.477  0.00  0.00    +0.156 HD
ATOM     22  H   UNL     1       9.548  -1.807   3.415  0.00  0.00    +0.150 HD
BRANCH  17  27
ATOM     23  C   UNL     1      12.267  -4.666   7.975  0.00  0.00    +0.002 A 
ATOM     24  C   UNL     1      13.447  -4.050   8.349  0.00  0.00    +0.002 A 
ATOM     25  C   UNL     1      13.877  -2.913   7.690  0.00  0.00    +0.022 A 
ATOM     26  C   UNL     1      13.130  -2.391   6.651  0.00  0.00    +0.062 A 
ATOM     27  C   UNL     1      11.940  -3.005   6.277  0.00  0.00    +0.053 A 
ATOM     28  C   UNL     1      11.512  -4.146   6.941  0.00  0.00    +0.025 A 
ATOM     29 CL   UNL     1      13.673  -0.968   5.819  0.00  0.00    -0.082 Cl
ENDBRANCH  17  27
ENDBRANCH  16  20
ENDBRANCH   1  16
TORSDOF 4
