REMARK  Name = ZINC22068067
REMARK  9 active torsions:
REMARK  status: ('A' for Active; 'I' for Inactive)
REMARK    1  A    between atoms: C_1  and  C_2
REMARK    2  A    between atoms: C_2  and  C_3
REMARK    3  A    between atoms: C_2  and  C_4
REMARK    4  A    between atoms: C_8  and  N_10
REMARK    5  A    between atoms: C_11  and  C_13
REMARK    6  A    between atoms: C_13  and  S_14
REMARK    7  A    between atoms: S_14  and  C_15
REMARK    8  A    between atoms: N_28  and  C_29
REMARK    9  A    between atoms: C_29  and  C_30
REMARK                            x       y       z     vdW  Elec       q    Type
REMARK                         _______ _______ _______ _____ _____    ______ ____
ROOT
ATOM      1  C   UNL     1       1.223   1.819  -0.013  0.00  0.00    +0.198 A 
ATOM      2  N   UNL     1      -0.018   1.396  -0.012  0.00  0.00    -0.120 NA
ATOM      3  N   UNL     1       0.001  -0.004  -0.026  0.00  0.00    -0.109 NA
ATOM      4  C   UNL     1       1.256  -0.396  -0.035  0.00  0.00    +0.240 A 
ATOM      5  N   UNL     1       2.043   0.723  -0.027  0.00  0.00    -0.256 N 
ATOM      6  C   UNL     1       3.432   0.611  -0.033  0.00  0.00    +0.064 A 
ATOM      7  C   UNL     1       4.239   1.739  -0.025  0.00  0.00    +0.027 A 
ATOM      8  C   UNL     1       5.613   1.600  -0.032  0.00  0.00    +0.002 A 
ATOM      9  C   UNL     1       6.195   0.343  -0.046  0.00  0.00    +0.001 A 
ATOM     10  C   UNL     1       5.407  -0.790  -0.054  0.00  0.00    +0.015 A 
ATOM     11  C   UNL     1       4.019  -0.663  -0.047  0.00  0.00    +0.064 A 
ATOM     12  C   UNL     1       3.143  -1.848  -0.056  0.00  0.00    +0.263 A 
ATOM     13  O   UNL     1       3.616  -2.968  -0.068  0.00  0.00    -0.267 OA
ATOM     14  N   UNL     1       1.806  -1.669  -0.050  0.00  0.00    -0.273 N 
ENDROOT
BRANCH   1  15
ATOM     15  S   UNL     1       1.744   3.502   0.001  0.00  0.00    -0.076 S 
BRANCH  15  16
ATOM     16  C   UNL     1       0.192   4.441   0.016  0.00  0.00    +0.173 C 
BRANCH  16  18
ATOM     17  N   UNL     1      -0.508   6.814   0.042  0.00  0.00    -0.285 N 
ATOM     18  C   UNL     1       0.498   5.917   0.029  0.00  0.00    +0.227 C 
ATOM     19  O   UNL     1       1.649   6.297   0.028  0.00  0.00    -0.275 OA
ATOM     20  H   UNL     1      -1.551   6.471  -0.034  0.00  0.00    +0.155 HD
BRANCH  17  25
ATOM     21  C   UNL     1       1.186  10.055  -0.339  0.00  0.00    -0.043 A 
ATOM     22  C   UNL     1       0.331  10.881   0.368  0.00  0.00    +0.004 A 
ATOM     23  C   UNL     1      -0.801  10.360   0.966  0.00  0.00    +0.002 A 
ATOM     24  C   UNL     1      -1.085   9.013   0.855  0.00  0.00    +0.023 A 
ATOM     25  C   UNL     1      -0.226   8.180   0.151  0.00  0.00    +0.034 A 
ATOM     26  C   UNL     1       0.910   8.706  -0.449  0.00  0.00    +0.027 A 
BRANCH  21  28
ATOM     27  C   UNL     1       2.010  11.694  -2.007  0.00  0.00    +0.012 C 
ATOM     28  C   UNL     1       2.419  10.627  -0.990  0.00  0.00    +0.013 C 
ATOM     29  C   UNL     1       3.314  11.257   0.079  0.00  0.00    +0.012 C 
ENDBRANCH  21  28
ENDBRANCH  17  25
ENDBRANCH  16  18
ENDBRANCH  15  16
ENDBRANCH   1  15
BRANCH  14  30
ATOM     30  C   UNL     1       0.922  -2.837  -0.057  0.00  0.00    +0.155 C 
BRANCH  30  31
ATOM     31  C   UNL     1       0.613  -3.223  -1.481  0.00  0.00    -0.013 C 
ATOM     32  C   UNL     1       0.850  -4.443  -1.894  0.00  0.00    +0.005 C 
ENDBRANCH  30  31
ENDBRANCH  14  30
TORSDOF 7
