REMARK  Name = ZINC09285217
REMARK  8 active torsions:
REMARK  status: ('A' for Active; 'I' for Inactive)
REMARK    1  A    between atoms: C_1  and  O_2
REMARK    2  A    between atoms: O_2  and  C_3
REMARK    3  A    between atoms: C_6  and  N_30
REMARK    4  A    between atoms: C_8  and  N_9
REMARK    5  A    between atoms: N_9  and  S_10
REMARK    6  A    between atoms: S_10  and  C_13
REMARK    7  A    between atoms: C_16  and  C_19
REMARK    8  A    between atoms: N_21  and  C_22
REMARK                            x       y       z     vdW  Elec       q    Type
REMARK                         _______ _______ _______ _____ _____    ______ ____
ROOT
ATOM      1  C   UNL     1       0.474   0.922  -0.185  0.00  0.00    +0.109 A 
ATOM      2  C   UNL     1       1.643   1.639  -0.374  0.00  0.00    +0.029 A 
ATOM      3  C   UNL     1       2.859   0.988  -0.399  0.00  0.00    +0.015 A 
ATOM      4  C   UNL     1       2.909  -0.397  -0.233  0.00  0.00    +0.037 A 
ATOM      5  C   UNL     1       1.727  -1.114  -0.042  0.00  0.00    +0.015 A 
ATOM      6  C   UNL     1       0.517  -0.451  -0.019  0.00  0.00    +0.029 A 
ENDROOT
BRANCH   4   7
ATOM      7  C   UNL     1       4.208  -1.101  -0.258  0.00  0.00    +0.248 C 
ATOM      8  O   UNL     1       4.249  -2.307  -0.112  0.00  0.00    -0.270 OA
ATOM      9  N   UNL     1       5.348  -0.405  -0.442  0.00  0.00    -0.279 N 
ATOM     10  H   UNL     1       5.311   0.546  -0.627  0.00  0.00    +0.155 HD
BRANCH   9  11
ATOM     11  C   UNL     1       6.586  -1.056  -0.366  0.00  0.00    +0.069 A 
ATOM     12  C   UNL     1       6.708  -2.369  -0.800  0.00  0.00    +0.029 A 
ATOM     13  C   UNL     1       7.930  -3.010  -0.725  0.00  0.00    +0.040 A 
ATOM     14  C   UNL     1       9.033  -2.344  -0.218  0.00  0.00    +0.126 A 
ATOM     15  C   UNL     1       8.915  -1.035   0.217  0.00  0.00    +0.078 A 
ATOM     16  C   UNL     1       7.695  -0.387   0.138  0.00  0.00    +0.147 A 
ATOM     17  F   UNL     1       7.581   0.892   0.557  0.00  0.00    -0.203 F 
ATOM     18  F   UNL     1      10.226  -2.973  -0.146  0.00  0.00    -0.205 F 
ENDBRANCH   9  11
ENDBRANCH   4   7
BRANCH   1  19
ATOM     19  S   UNL     1      -1.075   1.761  -0.161  0.00  0.00    +0.072 S 
ATOM     20  O   UNL     1      -0.893   2.972  -0.882  0.00  0.00    -0.150 OA
ATOM     21  O   UNL     1      -2.061   0.802  -0.520  0.00  0.00    -0.150 OA
BRANCH  19  22
ATOM     22  N   UNL     1      -1.378   2.186   1.410  0.00  0.00    -0.213 N 
ATOM     23  H   UNL     1      -2.170   1.852   1.859  0.00  0.00    +0.174 HD
BRANCH  22  29
ATOM     24  C   UNL     1      -0.257   2.844   3.451  0.00  0.00    +0.142 A 
ATOM     25  C   UNL     1       0.625   3.678   4.119  0.00  0.00    +0.050 A 
ATOM     26  C   UNL     1       1.264   4.697   3.436  0.00  0.00    +0.036 A 
ATOM     27  C   UNL     1       1.029   4.883   2.087  0.00  0.00    +0.128 A 
ATOM     28  C   UNL     1       0.154   4.053   1.413  0.00  0.00    +0.061 A 
ATOM     29  C   UNL     1      -0.491   3.029   2.091  0.00  0.00    +0.092 A 
BRANCH  27  30
ATOM     30  N   UNL     1       1.716   5.976   1.362  0.00  0.00    +0.056 N 
ATOM     31  O   UNL     1       1.510   6.143   0.173  0.00  0.00    -0.126 OA
ATOM     32  O   UNL     1       2.487   6.709   1.955  0.00  0.00    -0.126 OA
ENDBRANCH  27  30
BRANCH  24  34
ATOM     33  C   UNL     1      -0.603   1.715   5.516  0.00  0.00    +0.277 C 
ATOM     34  O   UNL     1      -0.891   1.845   4.122  0.00  0.00    -0.493 OA
ENDBRANCH  24  34
ENDBRANCH  22  29
ENDBRANCH  19  22
ENDBRANCH   1  19
TORSDOF 7
