REMARK  Name = ZINC14040569
REMARK  9 active torsions:
REMARK  status: ('A' for Active; 'I' for Inactive)
REMARK    1  A    between atoms: C_4  and  O_7
REMARK    2  A    between atoms: O_7  and  C_8
REMARK    3  A    between atoms: C_8  and  C_9
REMARK    4  A    between atoms: C_9  and  O_10
REMARK    5  A    between atoms: O_10  and  C_11
REMARK    6  A    between atoms: C_16  and  C_17
REMARK    7  A    between atoms: N_19  and  N_20
REMARK    8  A    between atoms: C_21  and  C_23
REMARK    9  A    between atoms: C_26  and  N_29
REMARK                            x       y       z     vdW  Elec       q    Type
REMARK                         _______ _______ _______ _____ _____    ______ ____
ROOT
ATOM      1  C   UNL     1       2.369   1.025  -0.015  0.00  0.00    +0.264 C 
ATOM      2  O   UNL     1       2.385  -0.191  -0.022  0.00  0.00    -0.269 OA
ATOM      3  N   UNL     1       1.193   1.683  -0.000  0.00  0.00    -0.230 N 
ATOM      4  H   UNL     1       1.179   2.653   0.005  0.00  0.00    +0.173 HD
ENDROOT
BRANCH   1  10
ATOM      5  C   UNL     1       4.862   1.100  -0.038  0.00  0.00    +0.133 A 
ATOM      6  C   UNL     1       6.047   1.820  -0.046  0.00  0.00    +0.046 A 
ATOM      7  C   UNL     1       6.019   3.200  -0.039  0.00  0.00    +0.004 A 
ATOM      8  C   UNL     1       4.809   3.876  -0.024  0.00  0.00    +0.001 A 
ATOM      9  C   UNL     1       3.622   3.177  -0.021  0.00  0.00    +0.017 A 
ATOM     10  C   UNL     1       3.636   1.780  -0.023  0.00  0.00    +0.080 A 
BRANCH   5  11
ATOM     11  O   UNL     1       4.888  -0.256  -0.046  0.00  0.00    -0.488 OA
BRANCH  11  12
ATOM     12  C   UNL     1       6.174  -0.880  -0.062  0.00  0.00    +0.270 C 
BRANCH  12  13
ATOM     13  C   UNL     1       6.003  -2.401  -0.068  0.00  0.00    +0.270 C 
BRANCH  13  14
ATOM     14  O   UNL     1       5.372  -2.804  -1.285  0.00  0.00    -0.489 OA
BRANCH  14  18
ATOM     15  C   UNL     1       4.684  -6.840  -1.790  0.00  0.00    +0.000 A 
ATOM     16  C   UNL     1       4.307  -5.947  -2.776  0.00  0.00    +0.004 A 
ATOM     17  C   UNL     1       4.537  -4.595  -2.610  0.00  0.00    +0.045 A 
ATOM     18  C   UNL     1       5.145  -4.133  -1.452  0.00  0.00    +0.121 A 
ATOM     19  C   UNL     1       5.527  -5.032  -0.466  0.00  0.00    +0.045 A 
ATOM     20  C   UNL     1       5.290  -6.383  -0.635  0.00  0.00    +0.004 A 
ENDBRANCH  14  18
ENDBRANCH  13  14
ENDBRANCH  12  13
ENDBRANCH  11  12
ENDBRANCH   5  11
ENDBRANCH   1  10
BRANCH   3  21
ATOM     21  N   UNL     1      -0.011   0.966   0.007  0.00  0.00    -0.230 N 
ATOM     22  C   UNL     1      -1.187   1.624   0.017  0.00  0.00    +0.260 C 
ATOM     23  O   UNL     1      -1.204   2.839   0.023  0.00  0.00    -0.269 OA
ATOM     24  H   UNL     1       0.002  -0.004   0.002  0.00  0.00    +0.173 HD
BRANCH  22  25
ATOM     25  C   UNL     1      -2.458   0.867   0.018  0.00  0.00    +0.038 A 
ATOM     26  C   UNL     1      -2.442  -0.528   0.005  0.00  0.00    +0.015 A 
ATOM     27  C   UNL     1      -3.631  -1.228   0.012  0.00  0.00    +0.033 A 
ATOM     28  C   UNL     1      -4.837  -0.550   0.021  0.00  0.00    +0.126 A 
ATOM     29  C   UNL     1      -4.859   0.834   0.029  0.00  0.00    +0.033 A 
ATOM     30  C   UNL     1      -3.677   1.546   0.028  0.00  0.00    +0.015 A 
BRANCH  28  31
ATOM     31  N   UNL     1      -6.108  -1.307   0.021  0.00  0.00    +0.056 N 
ATOM     32  O   UNL     1      -7.171  -0.713   0.030  0.00  0.00    -0.126 OA
ATOM     33  O   UNL     1      -6.092  -2.525   0.014  0.00  0.00    -0.126 OA
ENDBRANCH  28  31
ENDBRANCH  22  25
ENDBRANCH   3  21
TORSDOF 9
