REMARK  Name = ZINC63375280
REMARK  4 active torsions:
REMARK  status: ('A' for Active; 'I' for Inactive)
REMARK    1  A    between atoms: C_20  and  C_25
REMARK    2  A    between atoms: N_27  and  C_28
REMARK    3  A    between atoms: C_28  and  C_29
REMARK    4  A    between atoms: C_29  and  C_30
REMARK                            x       y       z     vdW  Elec       q    Type
REMARK                         _______ _______ _______ _____ _____    ______ ____
ROOT
ATOM      1  C   UNL     1      -0.169   1.136  -1.335  0.00  0.00    +0.000 A 
ATOM      2  C   UNL     1       0.969   1.910  -1.451  0.00  0.00    +0.001 A 
ATOM      3  C   UNL     1       2.236   1.383  -1.253  0.00  0.00    +0.013 A 
ATOM      4  C   UNL     1       2.312   0.025  -0.931  0.00  0.00    +0.042 A 
ATOM      5  C   UNL     1       1.145  -0.753  -0.810  0.00  0.00    -0.013 A 
ATOM      6  C   UNL     1      -0.107  -0.215  -1.012  0.00  0.00    +0.006 A 
ATOM      7  C   UNL     1       1.590  -2.132  -0.445  0.00  0.00    +0.134 C 
ATOM      8  C   UNL     1       1.145  -3.149  -1.503  0.00  0.00    +0.131 C 
ATOM      9  C   UNL     1       2.004  -4.391  -1.300  0.00  0.00    -0.034 C 
ATOM     10  C   UNL     1       1.162  -5.399  -1.095  0.00  0.00    -0.001 A 
ATOM     11  C   UNL     1       1.391  -6.839  -0.901  0.00  0.00    +0.010 A 
ATOM     12  C   UNL     1       0.282  -7.601  -0.703  0.00  0.00    +0.001 A 
ATOM     13  C   UNL     1      -1.015  -7.079  -0.678  0.00  0.00    +0.002 A 
ATOM     14  C   UNL     1      -1.318  -5.768  -0.852  0.00  0.00    +0.026 A 
ATOM     15  C   UNL     1      -0.235  -4.868  -1.073  0.00  0.00    +0.043 A 
ATOM     16  N   UNL     1      -0.241  -3.574  -1.286  0.00  0.00    -0.375 N 
ATOM     17  C   UNL     1       3.513  -4.357  -1.285  0.00  0.00    +0.065 C 
ATOM     18  C   UNL     1       3.932  -3.274  -0.273  0.00  0.00    +0.167 C 
ATOM     19  N   UNL     1       3.069  -2.095  -0.439  0.00  0.00    -0.276 N 
ATOM     20  C   UNL     1       3.470  -0.831  -0.668  0.00  0.00    +0.248 C 
ATOM     21  O   UNL     1       4.625  -0.455  -0.659  0.00  0.00    -0.270 OA
ATOM     22  H   UNL     1      -1.019  -2.995  -1.297  0.00  0.00    +0.160 HD
ENDROOT
BRANCH  18  23
ATOM     23  C   UNL     1       5.370  -2.890  -0.507  0.00  0.00    +0.234 C 
ATOM     24  O   UNL     1       5.680  -2.280  -1.509  0.00  0.00    -0.274 OA
ATOM     25  N   UNL     1       6.313  -3.225   0.396  0.00  0.00    -0.313 N 
ATOM     26  H   UNL     1       6.066  -3.712   1.197  0.00  0.00    +0.149 HD
BRANCH  25  27
ATOM     27  C   UNL     1       7.711  -2.851   0.168  0.00  0.00    +0.108 C 
BRANCH  27  28
ATOM     28  C   UNL     1       8.568  -3.347   1.335  0.00  0.00    +0.049 C 
BRANCH  28  29
ATOM     29  C   UNL     1      10.007  -2.963   1.100  0.00  0.00    -0.072 C 
ATOM     30  C   UNL     1      10.439  -1.870   1.642  0.00  0.00    -0.028 C 
ATOM     31  C   UNL     1      11.840  -1.353   1.490  0.00  0.00    +0.027 C 
ATOM     32  C   UNL     1      12.762  -2.468   0.993  0.00  0.00    +0.004 C 
ATOM     33  C   UNL     1      12.104  -3.137  -0.221  0.00  0.00    +0.005 C 
ATOM     34  C   UNL     1      10.850  -3.875   0.258  0.00  0.00    +0.030 C 
ENDBRANCH  28  29
ENDBRANCH  27  28
ENDBRANCH  25  27
ENDBRANCH  18  23
TORSDOF 4
