REMARK  Name = ZINC09354196
REMARK  13 active torsions:
REMARK  status: ('A' for Active; 'I' for Inactive)
REMARK    1  A    between atoms: C_1  and  C_2
REMARK    2  A    between atoms: C_5  and  S_8
REMARK    3  A    between atoms: S_8  and  N_11
REMARK    4  A    between atoms: N_11  and  C_12
REMARK    5  A    between atoms: N_11  and  C_26
REMARK    6  A    between atoms: C_12  and  C_13
REMARK    7  A    between atoms: C_13  and  C_15
REMARK    8  A    between atoms: C_13  and  O_25
REMARK    9  A    between atoms: C_15  and  N_16
REMARK   10  A    between atoms: C_19  and  C_23
REMARK   11  A    between atoms: C_19  and  C_24
REMARK   12  A    between atoms: C_21  and  O_22
REMARK   13  A    between atoms: C_31  and  N_32
REMARK                            x       y       z     vdW  Elec       q    Type
REMARK                         _______ _______ _______ _____ _____    ______ ____
ROOT
ATOM      1  N   UNL     1       1.573  -4.980  -0.082  0.00  0.00    -0.198 N 
ENDROOT
BRANCH   1   2
ATOM      2  C   UNL     1       2.245  -5.282  -1.268  0.00  0.00    +0.081 A 
ATOM      3  C   UNL     1       2.222  -6.577  -1.771  0.00  0.00    +0.027 A 
ATOM      4  C   UNL     1       2.888  -6.872  -2.944  0.00  0.00    +0.002 A 
ATOM      5  C   UNL     1       3.576  -5.880  -3.619  0.00  0.00    +0.002 A 
ATOM      6  C   UNL     1       3.602  -4.591  -3.121  0.00  0.00    +0.034 A 
ATOM      7  C   UNL     1       2.933  -4.287  -1.951  0.00  0.00    +0.149 A 
BRANCH   7   8
ATOM      8  N   UNL     1       2.956  -2.905  -1.422  0.00  0.00    +0.058 N 
ATOM      9  O   UNL     1       3.442  -2.014  -2.079  0.00  0.00    -0.126 OA
ATOM     10  O   UNL     1       2.488  -2.667  -0.333  0.00  0.00    -0.126 OA
ENDBRANCH   7   8
ENDBRANCH   1   2
BRANCH   1  11
ATOM     11  S   UNL     1       0.003  -4.454  -0.130  0.00  0.00    +0.075 S 
ATOM     12  O   UNL     1      -0.600  -4.863   1.089  0.00  0.00    -0.150 OA
ATOM     13  O   UNL     1      -0.512  -4.831  -1.400  0.00  0.00    -0.150 OA
BRANCH  11  18
ATOM     14  C   UNL     1       0.137   1.578  -0.047  0.00  0.00    +0.044 C 
ATOM     15  C   UNL     1       0.103   0.071  -0.068  0.00  0.00    -0.050 A 
ATOM     16  C   UNL     1       0.132  -0.604  -1.274  0.00  0.00    +0.005 A 
ATOM     17  C   UNL     1       0.101  -1.986  -1.293  0.00  0.00    +0.029 A 
ATOM     18  C   UNL     1       0.043  -2.693  -0.106  0.00  0.00    +0.109 A 
ATOM     19  C   UNL     1       0.016  -2.017   1.100  0.00  0.00    +0.029 A 
ATOM     20  C   UNL     1       0.051  -0.635   1.119  0.00  0.00    +0.005 A 
ENDBRANCH  11  18
ENDBRANCH   1  11
BRANCH   1  21
ATOM     21  C   UNL     1       2.256  -5.128   1.206  0.00  0.00    +0.164 C 
BRANCH  21  22
ATOM     22  C   UNL     1       2.139  -6.578   1.681  0.00  0.00    +0.151 C 
BRANCH  22  23
ATOM     23  O   UNL     1       0.760  -6.921   1.831  0.00  0.00    -0.389 OA
ATOM     24  H   UNL     1       0.286  -6.372   2.471  0.00  0.00    +0.210 HD
ENDBRANCH  22  23
BRANCH  22  25
ATOM     25  C   UNL     1       2.853  -6.733   3.025  0.00  0.00    +0.151 C 
BRANCH  25  26
ATOM     26  N   UNL     1       2.845  -8.143   3.423  0.00  0.00    -0.222 N 
ATOM     27  C   UNL     1       1.874  -8.729   4.156  0.00  0.00    +0.250 C 
ATOM     28  O   UNL     1       0.871  -8.212   4.600  0.00  0.00    -0.272 OA
ATOM     29  C   UNL     1       2.310 -10.174   4.302  0.00  0.00    +0.137 C 
ATOM     30  N   UNL     1       3.585 -10.233   3.570  0.00  0.00    -0.221 NA
ATOM     31  C   UNL     1       3.819  -9.052   3.096  0.00  0.00    +0.286 C 
ATOM     32  C   UNL     1       2.520 -10.524   5.777  0.00  0.00    +0.046 C 
ATOM     33  C   UNL     1       1.281 -11.112   3.667  0.00  0.00    +0.046 C 
BRANCH  31  34
ATOM     34  O   UNL     1       4.910  -8.744   2.362  0.00  0.00    -0.481 OA
ATOM     35  H   UNL     1       5.508  -9.490   2.215  0.00  0.00    +0.295 HD
ENDBRANCH  31  34
ENDBRANCH  25  26
ENDBRANCH  22  25
ENDBRANCH  21  22
ENDBRANCH   1  21
TORSDOF 10
