REMARK  Name = ZINC67063755
REMARK  5 active torsions:
REMARK  status: ('A' for Active; 'I' for Inactive)
REMARK    1  A    between atoms: C_1  and  C_2
REMARK    2  A    between atoms: C_2  and  C_4
REMARK    3  A    between atoms: C_2  and  N_10
REMARK    4  A    between atoms: C_4  and  N_5
REMARK    5  A    between atoms: C_17  and  C_19
REMARK                            x       y       z     vdW  Elec       q    Type
REMARK                         _______ _______ _______ _____ _____    ______ ____
ROOT
ATOM      1  N   UNL     1      -1.372  -0.511   0.012  0.00  0.00    -0.295 N 
ATOM      2  C   UNL     1      -2.029  -0.655   1.181  0.00  0.00    +0.303 C 
ATOM      3  O   UNL     1      -1.480  -0.364   2.226  0.00  0.00    -0.253 OA
ATOM      4  N   UNL     1      -3.293  -1.122   1.190  0.00  0.00    -0.278 N 
ATOM      5  C   UNL     1      -4.072  -1.517   0.003  0.00  0.00    +0.110 C 
ATOM      6  C   UNL     1      -5.553  -1.371   0.433  0.00  0.00    +0.021 C 
ATOM      7  C   UNL     1      -5.496  -1.843   1.910  0.00  0.00    +0.029 C 
ATOM      8  C   UNL     1      -4.122  -1.327   2.387  0.00  0.00    +0.111 C 
ATOM      9  H   UNL     1      -1.810  -0.743  -0.822  0.00  0.00    +0.151 HD
ENDROOT
BRANCH   8  10
ATOM     10  C   UNL     1      -3.474  -2.345   3.291  0.00  0.00    +0.018 A 
ATOM     11  C   UNL     1      -2.505  -3.195   2.790  0.00  0.00    +0.009 A 
ATOM     12  C   UNL     1      -1.909  -4.129   3.616  0.00  0.00    +0.004 A 
ATOM     13  C   UNL     1      -2.281  -4.218   4.944  0.00  0.00    +0.049 A 
ATOM     14  C   UNL     1      -3.253  -3.370   5.452  0.00  0.00    +0.162 A 
ATOM     15  C   UNL     1      -3.846  -2.424   4.624  0.00  0.00    +0.167 A 
ATOM     16  O   UNL     1      -4.793  -1.573   5.105  0.00  0.00    -0.485 OA
ATOM     17  C   UNL     1      -5.407  -1.929   6.348  0.00  0.00    +0.270 C 
ATOM     18  C   UNL     1      -4.301  -2.348   7.327  0.00  0.00    +0.270 C 
ATOM     19  O   UNL     1      -3.611  -3.472   6.761  0.00  0.00    -0.485 OA
ENDBRANCH   8  10
BRANCH   1  21
ATOM     20  C   UNL     1      -0.019   1.526   0.010  0.00  0.00    +0.029 C 
ATOM     21  C   UNL     1       0.002  -0.004   0.002  0.00  0.00    +0.091 C 
BRANCH  21  22
ATOM     22  C   UNL     1       0.718  -0.497  -1.257  0.00  0.00    +0.144 C 
BRANCH  22  23
ATOM     23  N   UNL     1       0.844  -1.956  -1.207  0.00  0.00    -0.337 N 
ATOM     24  C   UNL     1       1.881  -2.664  -0.662  0.00  0.00    +0.104 A 
ATOM     25  C   UNL     1       1.593  -3.969  -0.830  0.00  0.00    +0.101 A 
ATOM     26  N   UNL     1       0.412  -4.055  -1.461  0.00  0.00    -0.352 N 
ATOM     27  C   UNL     1      -0.045  -2.854  -1.685  0.00  0.00    +0.173 A 
ATOM     28  H   UNL     1      -0.034  -4.881  -1.708  0.00  0.00    +0.166 HD
ENDBRANCH  22  23
ENDBRANCH  21  22
ENDBRANCH   1  21
TORSDOF 4
