REMARK  Name = ZINC32103151
REMARK  7 active torsions:
REMARK  status: ('A' for Active; 'I' for Inactive)
REMARK    1  A    between atoms: C_1  and  C_2
REMARK    2  A    between atoms: C_2  and  C_3
REMARK    3  A    between atoms: C_3  and  C_4
REMARK    4  A    between atoms: C_4  and  O_5
REMARK    5  A    between atoms: O_5  and  C_6
REMARK    6  A    between atoms: C_11  and  C_12
REMARK    7  A    between atoms: C_20  and  C_30
REMARK                            x       y       z     vdW  Elec       q    Type
REMARK                         _______ _______ _______ _____ _____    ______ ____
ROOT
ATOM      1  C   UNL     1      -5.396  -3.557   0.034  0.00  0.00    +0.066 C 
ATOM      2  C   UNL     1      -6.260  -3.830  -1.202  0.00  0.00    +0.109 C 
ATOM      3  C   UNL     1      -7.640  -3.260  -1.037  0.00  0.00    +0.219 C 
ATOM      4  O   UNL     1      -8.184  -2.751  -1.994  0.00  0.00    -0.275 OA
ATOM      5  N   UNL     1      -8.294  -3.298   0.143  0.00  0.00    -0.270 N 
ATOM      6  C   UNL     1      -7.586  -3.703   1.274  0.00  0.00    +0.134 A 
ATOM      7  C   UNL     1      -6.223  -3.838   1.263  0.00  0.00    +0.023 A 
ATOM      8  C   UNL     1      -5.822  -4.255   2.524  0.00  0.00    +0.066 A 
ATOM      9  N   UNL     1      -6.889  -4.357   3.282  0.00  0.00    -0.168 NA
ATOM     10  N   UNL     1      -8.015  -4.005   2.517  0.00  0.00    -0.198 N 
ATOM     11  C   UNL     1      -9.339  -3.971   2.965  0.00  0.00    +0.178 A 
ATOM     12  C   UNL     1      -9.733  -4.758   4.045  0.00  0.00    +0.053 A 
ATOM     13  C   UNL     1     -11.056  -4.689   4.451  0.00  0.00    +0.045 A 
ATOM     14  C   UNL     1     -11.908  -3.839   3.756  0.00  0.00    +0.152 A 
ATOM     15  N   UNL     1     -11.448  -3.129   2.744  0.00  0.00    -0.136 NA
ATOM     16  N   UNL     1     -10.222  -3.187   2.367  0.00  0.00    -0.128 NA
ATOM     17 CL   UNL     1     -13.576  -3.712   4.220  0.00  0.00    -0.060 Cl
ATOM     18  C   UNL     1      -4.406  -4.541   2.951  0.00  0.00    +0.068 C 
ATOM     19  H   UNL     1      -9.230  -3.050   0.203  0.00  0.00    +0.156 HD
ENDROOT
BRANCH   1  25
ATOM     20  C   UNL     1      -2.913  -3.908   0.009  0.00  0.00    +0.124 A 
ATOM     21  C   UNL     1      -1.802  -4.739  -0.000  0.00  0.00    +0.046 A 
ATOM     22  C   UNL     1      -1.967  -6.110  -0.006  0.00  0.00    +0.004 A 
ATOM     23  C   UNL     1      -3.238  -6.655  -0.002  0.00  0.00    +0.001 A 
ATOM     24  C   UNL     1      -4.347  -5.829   0.007  0.00  0.00    +0.008 A 
ATOM     25  C   UNL     1      -4.187  -4.457   0.018  0.00  0.00    +0.002 A 
BRANCH  20  26
ATOM     26  O   UNL     1      -2.753  -2.558   0.015  0.00  0.00    -0.492 OA
BRANCH  26  27
ATOM     27  C   UNL     1      -1.413  -2.063   0.004  0.00  0.00    +0.229 C 
BRANCH  27  28
ATOM     28  C   UNL     1      -1.433  -0.534   0.013  0.00  0.00    +0.041 C 
BRANCH  28  30
ATOM     29  C   UNL     1      -0.019   1.526   0.010  0.00  0.00    +0.004 C 
ATOM     30  C   UNL     1       0.002  -0.004   0.002  0.00  0.00    -0.000 C 
ENDBRANCH  28  30
ENDBRANCH  27  28
ENDBRANCH  26  27
ENDBRANCH  20  26
ENDBRANCH   1  25
TORSDOF 5
