REMARK  Name = ZINC64181838
REMARK  6 active torsions:
REMARK  status: ('A' for Active; 'I' for Inactive)
REMARK    1  A    between atoms: C_4  and  C_6
REMARK    2  A    between atoms: C_8  and  S_12
REMARK    3  A    between atoms: S_12  and  C_13
REMARK    4  A    between atoms: C_13  and  C_14
REMARK    5  A    between atoms: N_16  and  C_17
REMARK    6  A    between atoms: C_19  and  C_28
REMARK                            x       y       z     vdW  Elec       q    Type
REMARK                         _______ _______ _______ _____ _____    ______ ____
ROOT
ATOM      1  C   UNL     1       2.914  -6.670  -3.207  0.00  0.00    +0.224 C 
ATOM      2  O   UNL     1       2.564  -7.035  -4.309  0.00  0.00    -0.275 OA
ATOM      3  N   UNL     1       3.641  -7.492  -2.424  0.00  0.00    -0.302 N 
ATOM      4  H   UNL     1       3.921  -7.200  -1.543  0.00  0.00    +0.150 HD
ENDROOT
BRANCH   3   5
ATOM      5  C   UNL     1       4.009  -8.826  -2.906  0.00  0.00    +0.151 C 
ATOM      6  C   UNL     1       5.461  -9.191  -2.514  0.00  0.00    +0.132 C 
ATOM      7  C   UNL     1       5.587 -10.646  -2.139  0.00  0.00    -0.046 C 
ATOM      8  C   UNL     1       4.475 -11.297  -1.819  0.00  0.00    -0.013 C 
ATOM      9  S   UNL     1       3.126 -10.148  -1.975  0.00  0.00    -0.106 S 
ATOM     10  C   UNL     1       4.359 -12.736  -1.400  0.00  0.00    +0.042 C 
ATOM     11  C   UNL     1       5.658 -13.463  -1.766  0.00  0.00    +0.005 C 
ATOM     12  C   UNL     1       6.841 -12.619  -1.282  0.00  0.00    +0.005 C 
ATOM     13  C   UNL     1       6.942 -11.350  -2.128  0.00  0.00    +0.032 C 
BRANCH   6  14
ATOM     14  C   UNL     1       5.881  -8.345  -1.339  0.00  0.00    +0.220 C 
ATOM     15  O   UNL     1       6.182  -8.871  -0.289  0.00  0.00    -0.275 OA
ATOM     16  N   UNL     1       5.923  -7.003  -1.456  0.00  0.00    -0.329 N 
ATOM     17  H   UNL     1       5.682  -6.581  -2.296  0.00  0.00    +0.145 HD
ATOM     18  H   UNL     1       6.193  -6.458  -0.700  0.00  0.00    +0.145 HD
ENDBRANCH   6  14
ENDBRANCH   3   5
BRANCH   1  19
ATOM     19  C   UNL     1       2.535  -5.298  -2.712  0.00  0.00    +0.173 C 
BRANCH  19  20
ATOM     20  S   UNL     1       1.566  -4.442  -3.984  0.00  0.00    -0.077 S 
BRANCH  20  23
ATOM     21  C   UNL     1       1.130  -1.229  -1.857  0.00  0.00    +0.155 A 
ATOM     22  N   UNL     1       1.579  -2.467  -2.069  0.00  0.00    -0.205 NA
ATOM     23  C   UNL     1       1.206  -2.875  -3.264  0.00  0.00    +0.185 A 
ATOM     24  N   UNL     1       0.498  -1.879  -3.839  0.00  0.00    -0.254 N 
ATOM     25  H   UNL     1       0.093  -1.887  -4.720  0.00  0.00    +0.191 HD
ATOM     26  N   UNL     1       0.461  -0.831  -2.905  0.00  0.00    -0.157 NA
BRANCH  21  30
ATOM     27  C   UNL     1      -0.019   1.538   0.011  0.00  0.00    +0.001 C 
ATOM     28  C   UNL     1       1.477   1.939  -0.002  0.00  0.00    +0.001 C 
ATOM     29  C   UNL     1       2.107   0.881  -0.942  0.00  0.00    +0.011 C 
ATOM     30  C   UNL     1       1.353  -0.422  -0.604  0.00  0.00    +0.059 C 
ATOM     31  C   UNL     1       0.002  -0.004   0.002  0.00  0.00    +0.011 C 
ENDBRANCH  21  30
ENDBRANCH  20  23
ENDBRANCH  19  20
ENDBRANCH   1  19
TORSDOF 6
