REMARK  Name = ZINC65090452
REMARK  9 active torsions:
REMARK  status: ('A' for Active; 'I' for Inactive)
REMARK    1  A    between atoms: C_4  and  N_7
REMARK    2  A    between atoms: N_9  and  C_21
REMARK    3  A    between atoms: C_10  and  C_13
REMARK    4  A    between atoms: C_16  and  O_20
REMARK    5  A    between atoms: C_17  and  O_19
REMARK    6  A    between atoms: C_21  and  C_22
REMARK    7  A    between atoms: C_22  and  N_23
REMARK    8  A    between atoms: N_23  and  C_24
REMARK    9  A    between atoms: C_29  and  N_30
REMARK                            x       y       z     vdW  Elec       q    Type
REMARK                         _______ _______ _______ _____ _____    ______ ____
ROOT
ATOM      1  N   UNL     1       3.252   0.242   0.806  0.00  0.00    -0.295 N 
ATOM      2  C   UNL     1       3.236  -1.104   0.477  0.00  0.00    +0.143 A 
ATOM      3  N   UNL     1       4.212  -1.863   0.011  0.00  0.00    -0.321 N 
ATOM      4  C   UNL     1       4.018  -3.147  -0.253  0.00  0.00    +0.058 A 
ATOM      5  C   UNL     1       2.786  -3.697  -0.038  0.00  0.00    +0.074 A 
ATOM      6  S   UNL     1       1.891  -2.277   0.578  0.00  0.00    -0.062 S 
ATOM      7  H   UNL     1       4.042   0.776   0.628  0.00  0.00    +0.154 HD
ENDROOT
BRANCH   1  11
ATOM      8  C   UNL     1      -0.092   1.997   2.563  0.00  0.00    +0.000 A 
ATOM      9  C   UNL     1       0.231   0.684   2.854  0.00  0.00    +0.002 A 
ATOM     10  C   UNL     1       1.339   0.099   2.273  0.00  0.00    +0.023 A 
ATOM     11  C   UNL     1       2.129   0.831   1.395  0.00  0.00    +0.033 A 
ATOM     12  C   UNL     1       1.801   2.149   1.105  0.00  0.00    +0.023 A 
ATOM     13  C   UNL     1       0.692   2.728   1.690  0.00  0.00    +0.002 A 
ENDBRANCH   1  11
BRANCH   4  14
ATOM     14  C   UNL     1       5.129  -3.979  -0.776  0.00  0.00    +0.003 A 
ATOM     15  C   UNL     1       6.435  -3.751  -0.345  0.00  0.00    +0.014 A 
ATOM     16  C   UNL     1       7.468  -4.526  -0.833  0.00  0.00    +0.050 A 
ATOM     17  C   UNL     1       7.210  -5.531  -1.752  0.00  0.00    +0.158 A 
ATOM     18  C   UNL     1       5.907  -5.763  -2.186  0.00  0.00    +0.159 A 
ATOM     19  C   UNL     1       4.868  -4.994  -1.695  0.00  0.00    +0.059 A 
BRANCH  18  20
ATOM     20  O   UNL     1       5.657  -6.750  -3.088  0.00  0.00    -0.503 OA
ATOM     21  H   UNL     1       5.466  -7.609  -2.687  0.00  0.00    +0.292 HD
ENDBRANCH  18  20
BRANCH  17  22
ATOM     22  O   UNL     1       8.231  -6.291  -2.232  0.00  0.00    -0.503 OA
ATOM     23  H   UNL     1       8.409  -7.085  -1.709  0.00  0.00    +0.292 HD
ENDBRANCH  17  22
ENDBRANCH   4  14
BRANCH   3  24
ATOM     24  C   UNL     1       5.533  -1.273  -0.219  0.00  0.00    +0.142 C 
BRANCH  24  25
ATOM     25  C   UNL     1       6.273  -1.145   1.114  0.00  0.00    +0.123 C 
BRANCH  25  26
ATOM     26  N   UNL     1       7.646  -0.694   0.869  0.00  0.00    -0.340 N 
ATOM     27  H   UNL     1       7.947  -0.527  -0.038  0.00  0.00    +0.146 HD
BRANCH  26  28
ATOM     28  C   UNL     1       8.520  -0.503   1.942  0.00  0.00    +0.058 A 
ATOM     29  C   UNL     1       8.113  -0.807   3.235  0.00  0.00    +0.025 A 
ATOM     30  C   UNL     1       8.980  -0.619   4.292  0.00  0.00    +0.002 A 
ATOM     31  C   UNL     1      10.253  -0.127   4.066  0.00  0.00    +0.002 A 
ATOM     32  C   UNL     1      10.661   0.177   2.780  0.00  0.00    +0.034 A 
ATOM     33  C   UNL     1       9.801  -0.015   1.717  0.00  0.00    +0.147 A 
BRANCH  33  34
ATOM     34  N   UNL     1      10.241   0.304   0.341  0.00  0.00    +0.058 N 
ATOM     35  O   UNL     1       9.910  -0.405  -0.580  0.00  0.00    -0.126 OA
ATOM     36  O   UNL     1      10.932   1.275   0.137  0.00  0.00    -0.126 OA
ENDBRANCH  33  34
ENDBRANCH  26  28
ENDBRANCH  25  26
ENDBRANCH  24  25
ENDBRANCH   3  24
TORSDOF 9
