REMARK  Name = ZINC05118509
REMARK  10 active torsions:
REMARK  status: ('A' for Active; 'I' for Inactive)
REMARK    1  A    between atoms: C_1  and  C_2
REMARK    2  A    between atoms: C_4  and  C_28
REMARK    3  A    between atoms: C_5  and  N_9
REMARK    4  A    between atoms: C_6  and  C_8
REMARK    5  A    between atoms: C_10  and  C_12
REMARK    6  A    between atoms: C_12  and  N_13
REMARK    7  A    between atoms: C_14  and  C_16
REMARK    8  A    between atoms: C_16  and  O_17
REMARK    9  A    between atoms: O_17  and  C_18
REMARK   10  A    between atoms: C_21  and  N_25
REMARK                            x       y       z     vdW  Elec       q    Type
REMARK                         _______ _______ _______ _____ _____    ______ ____
ROOT
ATOM      1  N   UNL     1       0.600  -0.137  -1.598  0.00  0.00    -0.304 N 
ATOM      2  C   UNL     1       0.607   1.202  -1.748  0.00  0.00    +0.251 C 
ATOM      3  O   UNL     1       1.391   1.879  -1.118  0.00  0.00    -0.272 OA
ATOM      4  H   UNL     1      -0.027  -0.678  -2.102  0.00  0.00    +0.149 HD
ENDROOT
BRANCH   1   5
ATOM      5  C   UNL     1       1.542  -0.775  -0.674  0.00  0.00    +0.200 C 
BRANCH   5   7
ATOM      6  N   UNL     1       2.089  -3.065   0.085  0.00  0.00    -0.284 N 
ATOM      7  C   UNL     1       1.330  -2.267  -0.693  0.00  0.00    +0.234 C 
ATOM      8  O   UNL     1       0.477  -2.750  -1.407  0.00  0.00    -0.274 OA
ATOM      9  H   UNL     1       2.806  -2.685   0.616  0.00  0.00    +0.155 HD
BRANCH   6  14
ATOM     10  C   UNL     1       1.089  -8.647   0.252  0.00  0.00    +0.044 C 
ATOM     11  C   UNL     1       1.354  -7.164   0.208  0.00  0.00    -0.050 A 
ATOM     12  C   UNL     1       2.630  -6.699  -0.055  0.00  0.00    +0.008 A 
ATOM     13  C   UNL     1       2.877  -5.341  -0.096  0.00  0.00    -0.029 A 
ATOM     14  C   UNL     1       1.842  -4.442   0.126  0.00  0.00    +0.039 A 
ATOM     15  C   UNL     1       0.563  -4.912   0.394  0.00  0.00    -0.029 A 
ATOM     16  C   UNL     1       0.322  -6.271   0.429  0.00  0.00    +0.008 A 
ATOM     17  C   UNL     1      -0.562  -3.939   0.640  0.00  0.00    +0.045 C 
ATOM     18  C   UNL     1       4.267  -4.835  -0.383  0.00  0.00    +0.045 C 
ENDBRANCH   6  14
ENDBRANCH   5   7
ENDBRANCH   1   5
BRANCH   2  19
ATOM     19  C   UNL     1      -0.358   1.858  -2.702  0.00  0.00    +0.324 C 
BRANCH  19  20
ATOM     20  O   UNL     1      -0.158   3.273  -2.684  0.00  0.00    -0.481 OA
BRANCH  20  21
ATOM     21  C   UNL     1      -0.953   4.019  -3.496  0.00  0.00    +0.140 A 
ATOM     22  C   UNL     1      -1.906   3.402  -4.293  0.00  0.00    +0.049 A 
ATOM     23  C   UNL     1      -2.714   4.163  -5.116  0.00  0.00    +0.036 A 
ATOM     24  C   UNL     1      -2.573   5.538  -5.147  0.00  0.00    +0.128 A 
ATOM     25  C   UNL     1      -1.624   6.156  -4.354  0.00  0.00    +0.056 A 
ATOM     26  C   UNL     1      -0.817   5.400  -3.524  0.00  0.00    +0.085 A 
ATOM     27 CL   UNL     1       0.370   6.177  -2.523  0.00  0.00    -0.080 Cl
BRANCH  24  28
ATOM     28  N   UNL     1      -3.440   6.350  -6.030  0.00  0.00    +0.056 N 
ATOM     29  O   UNL     1      -4.277   5.806  -6.728  0.00  0.00    -0.126 OA
ATOM     30  O   UNL     1      -3.317   7.561  -6.058  0.00  0.00    -0.126 OA
ENDBRANCH  24  28
ENDBRANCH  20  21
ENDBRANCH  19  20
ENDBRANCH   2  19
TORSDOF 7
