REMARK  Name = ZINC43303480
REMARK  10 active torsions:
REMARK  status: ('A' for Active; 'I' for Inactive)
REMARK    1  A    between atoms: C_1  and  C_2
REMARK    2  A    between atoms: C_2  and  C_4
REMARK    3  A    between atoms: C_2  and  N_14
REMARK    4  A    between atoms: N_14  and  C_15
REMARK    5  A    between atoms: C_15  and  C_17
REMARK    6  A    between atoms: C_15  and  C_18
REMARK    7  A    between atoms: C_18  and  C_20
REMARK    8  A    between atoms: C_21  and  N_30
REMARK    9  A    between atoms: N_22  and  C_29
REMARK   10  A    between atoms: N_25  and  C_28
REMARK                            x       y       z     vdW  Elec       q    Type
REMARK                         _______ _______ _______ _____ _____    ______ ____
ROOT
ATOM      1  C   UNL     1      -1.980  -0.145  -1.095  0.00  0.00    -0.001 C 
ATOM      2  C   UNL     1      -1.895   1.383  -1.090  0.00  0.00    -0.006 C 
ENDROOT
BRANCH   1   3
ATOM      3  N   UNL     1      -1.252  -0.679   0.063  0.00  0.00    +0.390 N 
ATOM      4  H   UNL     1      -1.721  -0.402   0.912  0.00  0.00    -0.084 HD
ATOM      5  H   UNL     1      -0.310  -0.317   0.065  0.00  0.00    -0.084 HD
BRANCH   3   7
ATOM      6  C   UNL     1      -0.371  -2.567  -1.226  0.00  0.00    -0.009 C 
ATOM      7  C   UNL     1      -1.211  -2.146  -0.018  0.00  0.00    -0.043 C 
BRANCH   7   8
ATOM      8  C   UNL     1      -0.596  -2.702   1.240  0.00  0.00    -0.054 A 
ATOM      9  C   UNL     1       0.170  -1.907   2.036  0.00  0.00    +0.002 A 
ATOM     10  C   UNL     1       0.747  -2.403   3.203  0.00  0.00    +0.001 A 
ATOM     11  C   UNL     1       0.561  -3.698   3.581  0.00  0.00    +0.008 A 
ATOM     12  C   UNL     1      -0.224  -4.548   2.785  0.00  0.00    -0.018 A 
ATOM     13  C   UNL     1      -0.816  -4.042   1.601  0.00  0.00    -0.016 A 
ATOM     14  C   UNL     1      -1.606  -4.891   0.808  0.00  0.00    +0.009 A 
ATOM     15  C   UNL     1      -1.796  -6.184   1.189  0.00  0.00    +0.001 A 
ATOM     16  C   UNL     1      -1.220  -6.680   2.356  0.00  0.00    +0.001 A 
ATOM     17  C   UNL     1      -0.438  -5.891   3.142  0.00  0.00    +0.008 A 
ENDBRANCH   7   8
ENDBRANCH   3   7
ENDBRANCH   1   3
BRANCH   1  18
ATOM     18  C   UNL     1      -3.425  -0.567  -1.019  0.00  0.00    +0.158 C 
ATOM     19  O   UNL     1      -3.899  -0.919   0.043  0.00  0.00    -0.294 OA
BRANCH  18  20
ATOM     20  C   UNL     1      -4.226  -0.554  -2.180  0.00  0.00    +0.118 A 
ATOM     21  C   UNL     1      -5.606  -0.815  -2.112  0.00  0.00    +0.116 A 
ATOM     22  N   UNL     1      -6.340  -0.790  -3.264  0.00  0.00    -0.284 N 
ATOM     23  C   UNL     1      -5.770  -0.524  -4.449  0.00  0.00    +0.333 A 
ATOM     24  O   UNL     1      -6.467  -0.514  -5.445  0.00  0.00    -0.246 OA
ATOM     25  N   UNL     1      -4.458  -0.267  -4.575  0.00  0.00    -0.263 N 
ATOM     26  C   UNL     1      -3.647  -0.261  -3.497  0.00  0.00    +0.269 A 
ATOM     27  O   UNL     1      -2.459  -0.023  -3.615  0.00  0.00    -0.267 OA
ATOM     28  C   UNL     1      -3.901   0.016  -5.901  0.00  0.00    +0.157 C 
ATOM     29  C   UNL     1      -7.779  -1.061  -3.204  0.00  0.00    +0.155 C 
BRANCH  21  30
ATOM     30  N   UNL     1      -6.200  -1.088  -0.919  0.00  0.00    -0.344 N 
ATOM     31  H   UNL     1      -5.697  -0.998  -0.095  0.00  0.00    +0.144 HD
ATOM     32  H   UNL     1      -7.127  -1.373  -0.893  0.00  0.00    +0.144 HD
ENDBRANCH  21  30
ENDBRANCH  18  20
ENDBRANCH   1  18
TORSDOF 6
