REMARK  Name = ZINC59644084
REMARK  7 active torsions:
REMARK  status: ('A' for Active; 'I' for Inactive)
REMARK    1  A    between atoms: C_1  and  C_2
REMARK    2  A    between atoms: C_2  and  C_3
REMARK    3  A    between atoms: C_3  and  C_4
REMARK    4  A    between atoms: C_4  and  C_5
REMARK    5  A    between atoms: C_5  and  C_21
REMARK    6  A    between atoms: C_10  and  C_11
REMARK    7  A    between atoms: C_15  and  O_17
REMARK                            x       y       z     vdW  Elec       q    Type
REMARK                         _______ _______ _______ _____ _____    ______ ____
ROOT
ATOM      1  C   UNL     1       1.568  -2.341   2.392  0.00  0.00    +0.257 C 
ATOM      2  O   UNL     1       0.924  -1.709   3.505  0.00  0.00    -0.419 OA
ATOM      3  C   UNL     1       1.407  -2.052   4.732  0.00  0.00    +0.349 C 
ATOM      4  O   UNL     1       0.681  -2.336   5.665  0.00  0.00    -0.245 OA
ATOM      5  C   UNL     1       2.892  -2.053   4.845  0.00  0.00    +0.143 C 
ATOM      6  C   UNL     1       3.557  -1.699   5.999  0.00  0.00    +0.030 C 
ATOM      7  C   UNL     1       3.596  -2.470   3.599  0.00  0.00    +0.349 C 
ATOM      8  O   UNL     1       4.640  -3.091   3.615  0.00  0.00    -0.245 OA
ATOM      9  O   UNL     1       2.979  -2.101   2.442  0.00  0.00    -0.419 OA
ATOM     10  C   UNL     1       1.307  -3.847   2.446  0.00  0.00    +0.104 C 
ENDROOT
BRANCH   6  11
ATOM     11  C   UNL     1       5.017  -1.556   5.990  0.00  0.00    -0.021 A 
ATOM     12  C   UNL     1       5.674  -1.116   4.833  0.00  0.00    +0.008 A 
ATOM     13  C   UNL     1       7.046  -0.983   4.830  0.00  0.00    +0.004 A 
ATOM     14  C   UNL     1       7.777  -1.282   5.966  0.00  0.00    +0.045 A 
ATOM     15  C   UNL     1       7.137  -1.719   7.119  0.00  0.00    +0.117 A 
ATOM     16  C   UNL     1       5.760  -1.852   7.139  0.00  0.00    +0.053 A 
BRANCH  15  17
ATOM     17  O   UNL     1       7.864  -2.011   8.229  0.00  0.00    -0.507 OA
ATOM     18  H   UNL     1       7.994  -1.260   8.823  0.00  0.00    +0.292 HD
ENDBRANCH  15  17
ENDBRANCH   6  11
BRANCH   1  19
ATOM     19  C   UNL     1       1.002  -1.773   1.089  0.00  0.00    +0.093 C 
BRANCH  19  20
ATOM     20  C   UNL     1       1.267  -0.267   1.032  0.00  0.00    +0.007 C 
BRANCH  20  22
ATOM     21  C   UNL     1       0.967   1.806  -0.330  0.00  0.00    +0.004 C 
ATOM     22  C   UNL     1       0.701   0.301  -0.272  0.00  0.00    -0.003 C 
ENDBRANCH  20  22
ENDBRANCH  19  20
ENDBRANCH   1  19
TORSDOF 5
