REMARK  Name = ZINC38994984
REMARK  9 active torsions:
REMARK  status: ('A' for Active; 'I' for Inactive)
REMARK    1  A    between atoms: C_1  and  C_2
REMARK    2  A    between atoms: C_2  and  O_3
REMARK    3  A    between atoms: O_3  and  C_4
REMARK    4  A    between atoms: C_8  and  C_10
REMARK    5  A    between atoms: C_12  and  C_16
REMARK    6  A    between atoms: N_18  and  N_19
REMARK    7  A    between atoms: C_20  and  C_21
REMARK    8  A    between atoms: C_20  and  C_22
REMARK    9  A    between atoms: C_25  and  N_28
REMARK                            x       y       z     vdW  Elec       q    Type
REMARK                         _______ _______ _______ _____ _____    ______ ____
ROOT
ATOM      1  C   UNL     1       4.526  -6.330   5.093  0.00  0.00    +0.263 C 
ATOM      2  O   UNL     1       5.529  -5.657   4.978  0.00  0.00    -0.271 OA
ATOM      3  N   UNL     1       4.610  -7.675   5.054  0.00  0.00    -0.205 N 
ATOM      4  H   UNL     1       3.809  -8.214   5.145  0.00  0.00    +0.177 HD
ENDROOT
BRANCH   1   7
ATOM      5  C   UNL     1       2.261  -4.302   3.733  0.00  0.00    +0.092 C 
ATOM      6  C   UNL     1       2.425  -5.619   3.966  0.00  0.00    +0.041 C 
ATOM      7  C   UNL     1       3.188  -5.664   5.278  0.00  0.00    +0.240 C 
ATOM      8  N   UNL     1       3.354  -4.241   5.618  0.00  0.00    -0.170 NA
ATOM      9  N   UNL     1       2.829  -3.571   4.727  0.00  0.00    -0.153 NA
BRANCH   5  14
ATOM     10  C   UNL     1       0.802  -1.824   1.306  0.00  0.00    +0.121 A 
ATOM     11  C   UNL     1       0.259  -2.672   0.350  0.00  0.00    +0.045 A 
ATOM     12  C   UNL     1       0.367  -4.042   0.494  0.00  0.00    +0.004 A 
ATOM     13  C   UNL     1       1.016  -4.576   1.590  0.00  0.00    +0.010 A 
ATOM     14  C   UNL     1       1.564  -3.732   2.554  0.00  0.00    +0.005 A 
ATOM     15  C   UNL     1       1.460  -2.351   2.405  0.00  0.00    +0.055 A 
BRANCH  10  16
ATOM     16  O   UNL     1       0.693  -0.477   1.160  0.00  0.00    -0.492 OA
BRANCH  16  18
ATOM     17  C   UNL     1      -0.019   1.526   0.010  0.00  0.00    +0.048 C 
ATOM     18  C   UNL     1       0.002  -0.004   0.002  0.00  0.00    +0.225 C 
ENDBRANCH  16  18
ENDBRANCH  10  16
ENDBRANCH   5  14
ENDBRANCH   1   7
BRANCH   3  19
ATOM     19  N   UNL     1       5.855  -8.295   4.881  0.00  0.00    -0.184 NA
ATOM     20  C   UNL     1       5.935  -9.589   4.844  0.00  0.00    +0.063 C 
ATOM     21  C   UNL     1       4.690 -10.426   4.986  0.00  0.00    +0.068 C 
BRANCH  20  22
ATOM     22  C   UNL     1       7.246 -10.242   4.662  0.00  0.00    -0.002 A 
ATOM     23  C   UNL     1       7.335 -11.635   4.616  0.00  0.00    +0.012 A 
ATOM     24  C   UNL     1       8.564 -12.238   4.446  0.00  0.00    +0.033 A 
ATOM     25  C   UNL     1       9.706 -11.467   4.322  0.00  0.00    +0.126 A 
ATOM     26  C   UNL     1       9.625 -10.086   4.368  0.00  0.00    +0.033 A 
ATOM     27  C   UNL     1       8.402  -9.469   4.530  0.00  0.00    +0.012 A 
BRANCH  25  28
ATOM     28  N   UNL     1      11.021 -12.121   4.141  0.00  0.00    +0.056 N 
ATOM     29  O   UNL     1      11.096 -13.328   4.101  0.00  0.00    -0.126 OA
ATOM     30  O   UNL     1      12.021 -11.450   4.032  0.00  0.00    -0.126 OA
ENDBRANCH  25  28
ENDBRANCH  20  22
ENDBRANCH   3  19
TORSDOF 7
