REMARK  Name = ZINC21739102
REMARK  7 active torsions:
REMARK  status: ('A' for Active; 'I' for Inactive)
REMARK    1  A    between atoms: C_1  and  C_2
REMARK    2  A    between atoms: C_5  and  N_8
REMARK    3  A    between atoms: C_12  and  S_13
REMARK    4  A    between atoms: S_13  and  C_14
REMARK    5  A    between atoms: C_14  and  C_15
REMARK    6  A    between atoms: N_17  and  C_18
REMARK    7  A    between atoms: C_19  and  C_27
REMARK                            x       y       z     vdW  Elec       q    Type
REMARK                         _______ _______ _______ _____ _____    ______ ____
ROOT
ATOM      1  C   UNL     1      -0.706  -2.732  -0.006  0.00  0.00    +0.173 C 
ENDROOT
BRANCH   1   2
ATOM      2  C   UNL     1      -1.821  -3.745   0.000  0.00  0.00    +0.228 C 
ATOM      3  O   UNL     1      -2.976  -3.376   0.013  0.00  0.00    -0.275 OA
ATOM      4  N   UNL     1      -1.534  -5.062  -0.010  0.00  0.00    -0.279 N 
ATOM      5  H   UNL     1      -0.487  -5.397  -0.022  0.00  0.00    +0.155 HD
BRANCH   4   6
ATOM      6  C   UNL     1      -2.561  -5.995  -0.005  0.00  0.00    +0.084 A 
ATOM      7  C   UNL     1      -2.467  -7.380  -0.019  0.00  0.00    +0.068 A 
ATOM      8  C   UNL     1      -3.708  -8.136  -0.006  0.00  0.00    -0.023 A 
ATOM      9  C   UNL     1      -4.835  -7.393   0.009  0.00  0.00    -0.004 A 
ATOM     10  S   UNL     1      -4.270  -5.715   0.013  0.00  0.00    -0.077 S 
ATOM     11  C   UNL     1      -6.247  -7.893   0.018  0.00  0.00    +0.043 C 
ATOM     12  C   UNL     1      -6.236  -9.379  -0.368  0.00  0.00    +0.005 C 
ATOM     13  C   UNL     1      -5.162 -10.095   0.454  0.00  0.00    +0.005 C 
ATOM     14  C   UNL     1      -3.772  -9.659  -0.013  0.00  0.00    +0.037 C 
BRANCH   7  15
ATOM     15  C   UNL     1      -1.165  -8.054  -0.042  0.00  0.00    +0.244 C 
ATOM     16  O   UNL     1      -0.612  -8.344   1.003  0.00  0.00    -0.270 OA
ATOM     17  N   UNL     1      -0.582  -8.352  -1.219  0.00  0.00    -0.325 N 
ATOM     18  H   UNL     1       0.395  -8.858  -1.236  0.00  0.00    +0.145 HD
ATOM     19  H   UNL     1      -1.082  -8.090  -2.163  0.00  0.00    +0.145 HD
ENDBRANCH   7  15
ENDBRANCH   4   6
ENDBRANCH   1   2
BRANCH   1  20
ATOM     20  S   UNL     1      -1.409  -1.060   0.010  0.00  0.00    -0.076 S 
BRANCH  20  25
ATOM     21  N   UNL     1      -0.017   1.365   0.009  0.00  0.00    -0.259 N 
ATOM     22  C   UNL     1       1.280   1.804  -0.001  0.00  0.00    +0.225 A 
ATOM     23  N   UNL     1       2.062   0.753  -0.014  0.00  0.00    -0.112 NA
ATOM     24  N   UNL     1       1.254  -0.391  -0.012  0.00  0.00    -0.120 NA
ATOM     25  C   UNL     1       0.002  -0.004   0.002  0.00  0.00    +0.198 A 
ATOM     26  N   UNL     1       1.693   3.130   0.003  0.00  0.00    -0.299 N 
ATOM     27  C   UNL     1       1.254   3.821   1.242  0.00  0.00    +0.108 C 
ATOM     28  C   UNL     1       2.206   5.041   1.323  0.00  0.00    +0.020 C 
ATOM     29  C   UNL     1       3.549   4.466   0.819  0.00  0.00    +0.020 C 
ATOM     30  C   UNL     1       3.169   3.225  -0.011  0.00  0.00    +0.108 C 
BRANCH  21  35
ATOM     31  C   UNL     1      -4.651   4.642   0.051  0.00  0.00    +0.044 C 
ATOM     32  C   UNL     1      -3.421   3.772   0.040  0.00  0.00    -0.050 A 
ATOM     33  C   UNL     1      -3.144   2.955   1.120  0.00  0.00    +0.005 A 
ATOM     34  C   UNL     1      -2.017   2.156   1.113  0.00  0.00    +0.026 A 
ATOM     35  C   UNL     1      -1.162   2.175   0.020  0.00  0.00    +0.052 A 
ATOM     36  C   UNL     1      -1.439   3.000  -1.061  0.00  0.00    +0.026 A 
ATOM     37  C   UNL     1      -2.570   3.793  -1.050  0.00  0.00    +0.005 A 
ENDBRANCH  21  35
ENDBRANCH  20  25
ENDBRANCH   1  20
TORSDOF 6
