REMARK  Name = ZINC04945898
REMARK  10 active torsions:
REMARK  status: ('A' for Active; 'I' for Inactive)
REMARK    1  A    between atoms: C_1  and  C_2
REMARK    2  A    between atoms: C_2  and  C_8
REMARK    3  A    between atoms: N_3  and  N_4
REMARK    4  A    between atoms: N_4  and  C_5
REMARK    5  A    between atoms: C_5  and  N_7
REMARK    6  A    between atoms: C_13  and  C_34
REMARK    7  A    between atoms: C_23  and  C_33
REMARK    8  A    between atoms: C_26  and  O_29
REMARK    9  A    between atoms: O_29  and  C_30
REMARK   10  A    between atoms: C_30  and  C_32
REMARK                            x       y       z     vdW  Elec       q    Type
REMARK                         _______ _______ _______ _____ _____    ______ ____
ROOT
ATOM      1  C   UNL     1       1.979   3.499   1.060  0.00  0.00    -0.023 C 
ATOM      2  C   UNL     1       3.163   3.503   1.702  0.00  0.00    -0.021 C 
ATOM      3  C   UNL     1       3.617   2.066   1.956  0.00  0.00    +0.032 C 
ATOM      4  C   UNL     1       2.278   1.313   1.971  0.00  0.00    +0.007 C 
ATOM      5  C   UNL     1       1.577   2.083   0.815  0.00  0.00    -0.002 C 
ATOM      6  C   UNL     1       0.111   1.716   0.870  0.00  0.00    +0.012 C 
ATOM      7  C   UNL     1       0.018   0.220   0.533  0.00  0.00    +0.005 C 
ATOM      8  C   UNL     1       0.863  -0.639   1.469  0.00  0.00    +0.003 C 
ATOM      9  C   UNL     1       2.319  -0.146   1.556  0.00  0.00    +0.001 C 
ATOM     10  C   UNL     1       3.025  -0.960   2.648  0.00  0.00    +0.031 C 
ATOM     11  C   UNL     1       2.853  -2.425   2.381  0.00  0.00    -0.027 C 
ATOM     12  C   UNL     1       1.913  -2.914   1.638  0.00  0.00    -0.064 C 
ATOM     13  C   UNL     1       0.853  -2.080   0.971  0.00  0.00    -0.008 C 
ATOM     14  C   UNL     1       1.050  -2.135  -0.542  0.00  0.00    +0.015 C 
ATOM     15  C   UNL     1       1.716  -3.452  -0.937  0.00  0.00    +0.046 C 
ATOM     16  C   UNL     1       1.260  -4.593  -0.029  0.00  0.00    +0.180 C 
ATOM     17  C   UNL     1       1.867  -4.409   1.369  0.00  0.00    +0.075 C 
ATOM     18  C   UNL     1      -0.513  -2.691   1.289  0.00  0.00    +0.016 C 
ATOM     19  C   UNL     1       2.163   1.627  -0.523  0.00  0.00    +0.016 C 
ENDROOT
BRANCH   1  21
ATOM     20  C   UNL     1       1.742   6.063   0.984  0.00  0.00    +0.067 C 
ATOM     21  C   UNL     1       1.212   4.687   0.670  0.00  0.00    +0.060 C 
ATOM     22  N   UNL     1       0.076   4.554   0.052  0.00  0.00    -0.186 NA
BRANCH  22  23
ATOM     23  N   UNL     1      -0.656   5.689  -0.321  0.00  0.00    -0.218 N 
ATOM     24  H   UNL     1      -0.315   6.574  -0.118  0.00  0.00    +0.176 HD
BRANCH  23  25
ATOM     25  C   UNL     1      -1.834   5.550  -0.961  0.00  0.00    +0.147 C 
ATOM     26  S   UNL     1      -2.728   6.937  -1.417  0.00  0.00    -0.017 S 
BRANCH  25  27
ATOM     27  N   UNL     1      -2.307   4.320  -1.242  0.00  0.00    -0.339 N 
ATOM     28  H   UNL     1      -1.800   3.534  -0.984  0.00  0.00    +0.144 HD
ATOM     29  H   UNL     1      -3.155   4.221  -1.703  0.00  0.00    +0.144 HD
ENDBRANCH  25  27
ENDBRANCH  23  25
ENDBRANCH  22  23
ENDBRANCH   1  21
BRANCH  16  30
ATOM     30  O   UNL     1      -0.189  -4.585   0.067  0.00  0.00    -0.461 OA
BRANCH  30  31
ATOM     31  C   UNL     1      -0.793  -5.768   0.262  0.00  0.00    +0.304 C 
ATOM     32  O   UNL     1      -0.133  -6.776   0.349  0.00  0.00    -0.251 OA
ATOM     33  C   UNL     1      -2.294  -5.838   0.372  0.00  0.00    +0.136 C 
ENDBRANCH  30  31
ENDBRANCH  16  30
TORSDOF 6
