REMARK  Name = ZINC35784764
REMARK  8 active torsions:
REMARK  status: ('A' for Active; 'I' for Inactive)
REMARK    1  A    between atoms: C_1  and  C_2
REMARK    2  A    between atoms: C_2  and  N_3
REMARK    3  A    between atoms: C_9  and  C_12
REMARK    4  A    between atoms: C_12  and  C_14
REMARK    5  A    between atoms: C_12  and  N_24
REMARK    6  A    between atoms: N_16  and  C_17
REMARK    7  A    between atoms: C_17  and  C_18
REMARK    8  A    between atoms: C_25  and  C_27
REMARK                            x       y       z     vdW  Elec       q    Type
REMARK                         _______ _______ _______ _____ _____    ______ ____
ROOT
ATOM      1  C   UNL     1       1.261  -3.825  -6.697  0.00  0.00    +0.162 C 
ENDROOT
BRANCH   1   8
ATOM      2  N   UNL     1       3.285  -5.052  -1.025  0.00  0.00    -0.300 N 
ATOM      3  C   UNL     1       3.959  -4.407  -1.997  0.00  0.00    +0.302 C 
ATOM      4  O   UNL     1       5.175  -4.425  -2.008  0.00  0.00    -0.253 OA
ATOM      5  N   UNL     1       3.286  -3.741  -2.956  0.00  0.00    -0.286 N 
ATOM      6  C   UNL     1       1.824  -3.615  -2.894  0.00  0.00    +0.109 C 
ATOM      7  C   UNL     1       1.229  -4.112  -4.216  0.00  0.00    +0.025 C 
ATOM      8  C   UNL     1       1.877  -3.356  -5.378  0.00  0.00    +0.021 C 
ATOM      9  C   UNL     1       3.382  -3.630  -5.392  0.00  0.00    +0.025 C 
ATOM     10  C   UNL     1       4.002  -3.123  -4.081  0.00  0.00    +0.109 C 
ATOM     11  H   UNL     1       2.318  -4.981  -0.976  0.00  0.00    +0.150 HD
BRANCH   2  13
ATOM     12  C   UNL     1       3.017  -6.479   0.943  0.00  0.00    +0.024 C 
ATOM     13  C   UNL     1       4.011  -5.860  -0.042  0.00  0.00    +0.102 C 
ENDBRANCH   2  13
ENDBRANCH   1   8
BRANCH   1  14
ATOM     14  C   UNL     1      -0.210  -3.496  -6.710  0.00  0.00    +0.234 C 
ATOM     15  O   UNL     1      -1.026  -4.357  -6.457  0.00  0.00    -0.274 OA
ATOM     16  N   UNL     1      -0.619  -2.246  -7.003  0.00  0.00    -0.310 N 
ATOM     17  H   UNL     1       0.034  -1.557  -7.206  0.00  0.00    +0.149 HD
BRANCH  16  18
ATOM     18  C   UNL     1      -2.048  -1.926  -7.016  0.00  0.00    +0.139 C 
BRANCH  18  19
ATOM     19  C   UNL     1      -2.235  -0.473  -7.369  0.00  0.00    -0.030 A 
ATOM     20  C   UNL     1      -2.261   0.483  -6.372  0.00  0.00    +0.005 A 
ATOM     21  C   UNL     1      -2.433   1.816  -6.696  0.00  0.00    +0.000 A 
ATOM     22  C   UNL     1      -2.578   2.192  -8.018  0.00  0.00    +0.000 A 
ATOM     23  C   UNL     1      -2.552   1.236  -9.016  0.00  0.00    +0.000 A 
ATOM     24  C   UNL     1      -2.376  -0.097  -8.692  0.00  0.00    +0.005 A 
ENDBRANCH  18  19
ENDBRANCH  16  18
ENDBRANCH   1  14
BRANCH   1  25
ATOM     25  N   UNL     1       1.439  -5.273  -6.832  0.00  0.00    -0.304 N 
ATOM     26  C   UNL     1       1.446  -5.840  -8.054  0.00  0.00    +0.217 C 
ATOM     27  O   UNL     1       1.395  -5.144  -9.046  0.00  0.00    -0.275 OA
ATOM     28  H   UNL     1       1.551  -5.823  -6.041  0.00  0.00    +0.149 HD
BRANCH  26  29
ATOM     29  C   UNL     1       1.518  -7.340  -8.189  0.00  0.00    +0.075 C 
ATOM     30  C   UNL     1       2.845  -7.860  -7.598  0.00  0.00    +0.013 C 
ATOM     31  C   UNL     1       3.253  -9.018  -8.543  0.00  0.00    +0.001 C 
ATOM     32  C   UNL     1       2.837  -8.484  -9.937  0.00  0.00    +0.001 C 
ATOM     33  C   UNL     1       1.513  -7.736  -9.675  0.00  0.00    +0.013 C 
ENDBRANCH  26  29
ENDBRANCH   1  25
TORSDOF 7
