REMARK  Name = ZINC20579893
REMARK  3 active torsions:
REMARK  status: ('A' for Active; 'I' for Inactive)
REMARK    1  A    between atoms: C_1  and  C_2
REMARK    2  A    between atoms: C_2  and  C_4
REMARK    3  A    between atoms: C_2  and  N_14
REMARK                            x       y       z     vdW  Elec       q    Type
REMARK                         _______ _______ _______ _____ _____    ______ ____
ROOT
ATOM      1  N   UNL     1       2.336   4.301   0.004  0.00  0.00    -0.324 N 
ATOM      2  C   UNL     1       1.156   3.573   0.011  0.00  0.00    +0.149 A 
ATOM      3  C   UNL     1       1.201   2.107   0.002  0.00  0.00    +0.027 A 
ATOM      4  C   UNL     1       2.409   1.408  -0.014  0.00  0.00    +0.012 A 
ATOM      5  C   UNL     1       2.398   0.041  -0.021  0.00  0.00    +0.001 A 
ATOM      6  C   UNL     1       1.200  -0.662  -0.013  0.00  0.00    +0.001 A 
ATOM      7  C   UNL     1       0.002  -0.004   0.002  0.00  0.00    +0.012 A 
ATOM      8  C   UNL     1      -0.017   1.390   0.010  0.00  0.00    +0.033 A 
ATOM      9  C   UNL     1      -1.268   2.152   0.032  0.00  0.00    +0.207 A 
ATOM     10  N   UNL     1      -2.545   1.819   0.036  0.00  0.00    -0.106 NA
ATOM     11  N   UNL     1      -3.280   2.874   0.049  0.00  0.00    -0.021 NA
ATOM     12  N   UNL     1      -2.550   3.938   0.049  0.00  0.00    -0.021 NA
ATOM     13  N   UNL     1      -1.211   3.516   0.034  0.00  0.00    -0.108 N 
ATOM     14  N   UNL     1       0.006   4.195   0.025  0.00  0.00    -0.130 NA
ATOM     15  H   UNL     1       3.304   3.779  -0.008  0.00  0.00    +0.148 HD
ENDROOT
BRANCH   1  17
ATOM     16  C   UNL     1       2.166   6.263   1.454  0.00  0.00    +0.028 C 
ATOM     17  C   UNL     1       2.293   5.765   0.013  0.00  0.00    +0.075 C 
BRANCH  17  18
ATOM     18  C   UNL     1       3.579   6.317  -0.606  0.00  0.00    -0.010 C 
ATOM     19  C   UNL     1       3.707   5.819  -2.047  0.00  0.00    +0.012 C 
ATOM     20  C   UNL     1       4.993   6.370  -2.666  0.00  0.00    -0.010 C 
ATOM     21  C   UNL     1       4.948   7.900  -2.656  0.00  0.00    +0.007 C 
ATOM     22  C   UNL     1       4.821   8.398  -1.215  0.00  0.00    -0.010 C 
ATOM     23  C   UNL     1       3.535   7.846  -0.597  0.00  0.00    +0.012 C 
ATOM     24  C   UNL     1       6.025   7.918  -0.402  0.00  0.00    +0.007 C 
ATOM     25  C   UNL     1       6.069   6.388  -0.411  0.00  0.00    -0.010 C 
ATOM     26  C   UNL     1       6.196   5.890  -1.852  0.00  0.00    +0.007 C 
ATOM     27  C   UNL     1       4.783   5.837   0.207  0.00  0.00    +0.012 C 
ENDBRANCH  17  18
ENDBRANCH   1  17
TORSDOF 2
