REMARK  Name = ZINC39688737
REMARK  7 active torsions:
REMARK  status: ('A' for Active; 'I' for Inactive)
REMARK    1  A    between atoms: C_1  and  C_2
REMARK    2  A    between atoms: C_2  and  C_4
REMARK    3  A    between atoms: C_2  and  N_12
REMARK    4  A    between atoms: C_4  and  C_5
REMARK    5  A    between atoms: C_13  and  C_15
REMARK    6  A    between atoms: C_26  and  C_28
REMARK    7  A    between atoms: C_31  and  C_33
REMARK                            x       y       z     vdW  Elec       q    Type
REMARK                         _______ _______ _______ _____ _____    ______ ____
ROOT
ATOM      1  C   UNL     1       0.690  -1.314  -3.499  0.00  0.00    +0.100 C 
ATOM      2  C   UNL     1       0.983  -2.821  -3.318  0.00  0.00    +0.121 C 
ATOM      3  N   UNL     1      -0.158  -3.505  -3.970  0.00  0.00    -0.294 N 
ATOM      4  C   UNL     1      -0.429  -2.696  -5.183  0.00  0.00    +0.115 C 
ATOM      5  C   UNL     1      -0.235  -1.237  -4.726  0.00  0.00    -0.004 C 
ATOM      6  C   UNL     1      -1.577  -0.623  -4.338  0.00  0.00    -0.010 C 
ATOM      7  C   UNL     1      -2.457  -0.504  -5.585  0.00  0.00    -0.082 C 
ATOM      8  N   UNL     1      -1.784   0.334  -6.584  0.00  0.00    +0.379 N 
ATOM      9  C   UNL     1      -0.538  -0.309  -7.020  0.00  0.00    -0.082 C 
ATOM     10  C   UNL     1       0.424  -0.420  -5.833  0.00  0.00    -0.010 C 
ATOM     11  C   UNL     1      -0.803  -4.613  -3.555  0.00  0.00    +0.282 C 
ATOM     12  O   UNL     1      -1.670  -5.109  -4.251  0.00  0.00    -0.267 OA
ATOM     13  H   UNL     1      -2.391   0.461  -7.379  0.00  0.00    -0.086 HD
ATOM     14  H   UNL     1      -1.572   1.234  -6.179  0.00  0.00    -0.086 HD
ENDROOT
BRANCH  11  15
ATOM     15  C   UNL     1      -0.461  -5.221  -2.267  0.00  0.00    +0.190 A 
ATOM     16  C   UNL     1      -0.967  -6.402  -1.769  0.00  0.00    +0.055 A 
ATOM     17  C   UNL     1      -0.372  -6.601  -0.520  0.00  0.00    +0.050 A 
ATOM     18  C   UNL     1       0.467  -5.546  -0.302  0.00  0.00    +0.136 A 
ATOM     19  O   UNL     1       0.410  -4.724  -1.363  0.00  0.00    -0.450 OA
BRANCH  18  20
ATOM     20  C   UNL     1       1.303  -5.345   0.899  0.00  0.00    +0.017 A 
ATOM     21  C   UNL     1       1.367  -6.335   1.882  0.00  0.00    +0.014 A 
ATOM     22  C   UNL     1       2.150  -6.142   3.001  0.00  0.00    +0.039 A 
ATOM     23  C   UNL     1       2.872  -4.968   3.150  0.00  0.00    +0.123 A 
ATOM     24  C   UNL     1       2.813  -3.983   2.178  0.00  0.00    +0.039 A 
ATOM     25  C   UNL     1       2.038  -4.167   1.052  0.00  0.00    +0.014 A 
ATOM     26  F   UNL     1       3.638  -4.785   4.248  0.00  0.00    -0.205 F 
ENDBRANCH  18  20
ENDBRANCH  11  15
BRANCH   1  28
ATOM     27  N   UNL     1       0.133   0.534  -1.953  0.00  0.00    -0.312 N 
ATOM     28  C   UNL     1      -0.007  -0.765  -2.281  0.00  0.00    +0.218 C 
ATOM     29  O   UNL     1      -0.694  -1.493  -1.596  0.00  0.00    -0.275 OA
ATOM     30  H   UNL     1       0.739   1.099  -2.457  0.00  0.00    +0.149 HD
BRANCH  27  32
ATOM     31  C   UNL     1      -1.989   1.583  -1.336  0.00  0.00    +0.028 C 
ATOM     32  C   UNL     1      -0.629   1.093  -0.833  0.00  0.00    +0.074 C 
BRANCH  32  33
ATOM     33  C   UNL     1       0.143   2.267  -0.226  0.00  0.00    +0.057 C 
BRANCH  33  34
ATOM     34  C   UNL     1       1.423   1.762   0.387  0.00  0.00    -0.045 A 
ATOM     35  C   UNL     1       1.417   1.241   1.668  0.00  0.00    +0.006 A 
ATOM     36  C   UNL     1       2.591   0.777   2.231  0.00  0.00    +0.038 A 
ATOM     37  C   UNL     1       3.773   0.835   1.513  0.00  0.00    +0.123 A 
ATOM     38  C   UNL     1       3.778   1.357   0.230  0.00  0.00    +0.038 A 
ATOM     39  C   UNL     1       2.602   1.815  -0.333  0.00  0.00    +0.006 A 
ATOM     40  F   UNL     1       4.921   0.383   2.063  0.00  0.00    -0.205 F 
ENDBRANCH  33  34
ENDBRANCH  32  33
ENDBRANCH  27  32
ENDBRANCH   1  28
TORSDOF 6
