REMARK  Name = ZINC38901971
REMARK  8 active torsions:
REMARK  status: ('A' for Active; 'I' for Inactive)
REMARK    1  A    between atoms: C_4  and  C_31
REMARK    2  A    between atoms: C_5  and  C_7
REMARK    3  A    between atoms: C_7  and  N_8
REMARK    4  A    between atoms: C_9  and  C_11
REMARK    5  A    between atoms: N_16  and  C_18
REMARK    6  A    between atoms: C_18  and  C_19
REMARK    7  A    between atoms: C_21  and  C_24
REMARK    8  A    between atoms: C_31  and  N_32
REMARK                            x       y       z     vdW  Elec       q    Type
REMARK                         _______ _______ _______ _____ _____    ______ ____
ROOT
ATOM      1  C   UNL     1       2.174  -4.760   2.993  0.00  0.00    +0.058 C 
ATOM      2  C   UNL     1       0.885  -4.477   3.771  0.00  0.00    +0.009 C 
ATOM      3  C   UNL     1       1.034  -5.014   5.197  0.00  0.00    -0.018 C 
ATOM      4  C   UNL     1       1.362  -6.508   5.142  0.00  0.00    -0.078 C 
ATOM      5  N   UNL     1       2.617  -6.710   4.409  0.00  0.00    +0.386 N 
ATOM      6  C   UNL     1       2.461  -6.262   3.020  0.00  0.00    -0.065 C 
ATOM      7  H   UNL     1       3.353  -6.179   4.851  0.00  0.00    -0.081 HD
ENDROOT
BRANCH   1   9
ATOM      8  N   UNL     1       1.748  -3.010   1.298  0.00  0.00    -0.311 N 
ATOM      9  C   UNL     1       2.010  -4.304   1.566  0.00  0.00    +0.215 C 
ATOM     10  O   UNL     1       2.115  -5.102   0.659  0.00  0.00    -0.276 OA
ATOM     11  H   UNL     1       1.664  -2.371   2.023  0.00  0.00    +0.149 HD
BRANCH   8  12
ATOM     12  C   UNL     1       1.589  -2.567  -0.090  0.00  0.00    +0.139 C 
BRANCH  12  17
ATOM     13  C   UNL     1      -0.255   0.722  -0.297  0.00  0.00    +0.000 A 
ATOM     14  C   UNL     1       0.781   1.627  -0.164  0.00  0.00    +0.000 A 
ATOM     15  C   UNL     1       2.078   1.176  -0.007  0.00  0.00    +0.005 A 
ATOM     16  C   UNL     1       2.340  -0.181   0.017  0.00  0.00    -0.029 A 
ATOM     17  C   UNL     1       1.304  -1.087  -0.115  0.00  0.00    -0.026 A 
ATOM     18  C   UNL     1       0.007  -0.635  -0.274  0.00  0.00    +0.005 A 
BRANCH  16  19
ATOM     19  C   UNL     1       3.754  -0.673   0.187  0.00  0.00    +0.120 C 
BRANCH  19  20
ATOM     20  N   UNL     1       3.966  -1.082   1.582  0.00  0.00    -0.294 NA
ATOM     21  C   UNL     1       4.013   0.087   2.472  0.00  0.00    +0.113 C 
ATOM     22  C   UNL     1       4.174  -0.386   3.919  0.00  0.00    +0.175 C 
ATOM     23  O   UNL     1       5.351  -1.193   4.023  0.00  0.00    -0.377 OA
ATOM     24  C   UNL     1       5.338  -2.341   3.170  0.00  0.00    +0.175 C 
ATOM     25  C   UNL     1       5.188  -1.888   1.716  0.00  0.00    +0.113 C 
ENDBRANCH  19  20
ENDBRANCH  16  19
ENDBRANCH  12  17
ENDBRANCH   8  12
ENDBRANCH   1   9
BRANCH   5  26
ATOM     26  C   UNL     1       2.969  -8.136   4.426  0.00  0.00    +0.022 C 
BRANCH  26  27
ATOM     27  C   UNL     1       3.259  -8.565   5.841  0.00  0.00    +0.211 A 
ATOM     28  N   UNL     1       2.389  -9.035   6.688  0.00  0.00    -0.193 NA
ATOM     29  C   UNL     1       2.990  -9.316   7.858  0.00  0.00    +0.202 A 
ATOM     30  N   UNL     1       4.262  -9.020   7.757  0.00  0.00    -0.056 NA
ATOM     31  O   UNL     1       4.458  -8.531   6.438  0.00  0.00    -0.340 OA
BRANCH  29  32
ATOM     32  C   UNL     1       2.323  -9.868   9.063  0.00  0.00    +0.023 A 
ATOM     33  C   UNL     1       0.957 -10.147   9.040  0.00  0.00    +0.014 A 
ATOM     34  C   UNL     1       0.341 -10.661  10.162  0.00  0.00    +0.039 A 
ATOM     35  C   UNL     1       1.078 -10.900  11.311  0.00  0.00    +0.123 A 
ATOM     36  C   UNL     1       2.436 -10.625  11.338  0.00  0.00    +0.039 A 
ATOM     37  C   UNL     1       3.061 -10.116  10.219  0.00  0.00    +0.014 A 
ATOM     38  F   UNL     1       0.471 -11.404  12.408  0.00  0.00    -0.205 F 
ENDBRANCH  29  32
ENDBRANCH  26  27
ENDBRANCH   5  26
TORSDOF 8
