REMARK  Name = ZINC54200885
REMARK  9 active torsions:
REMARK  status: ('A' for Active; 'I' for Inactive)
REMARK    1  A    between atoms: C_1  and  C_2
REMARK    2  A    between atoms: C_3  and  N_15
REMARK    3  A    between atoms: N_6  and  C_9
REMARK    4  A    between atoms: N_7  and  C_8
REMARK    5  A    between atoms: C_16  and  C_18
REMARK    6  A    between atoms: C_18  and  C_20
REMARK    7  A    between atoms: C_18  and  N_21
REMARK    8  A    between atoms: N_21  and  S_22
REMARK    9  A    between atoms: S_22  and  C_25
REMARK                            x       y       z     vdW  Elec       q    Type
REMARK                         _______ _______ _______ _____ _____    ______ ____
ROOT
ATOM      1  N   UNL     1       0.107  -0.213  -2.460  0.00  0.00    -0.278 N 
ATOM      2  C   UNL     1       0.622  -0.883  -3.510  0.00  0.00    +0.236 C 
ATOM      3  O   UNL     1       1.138  -1.968  -3.344  0.00  0.00    -0.274 OA
ATOM      4  H   UNL     1      -0.242   0.684  -2.580  0.00  0.00    +0.155 HD
ENDROOT
BRANCH   1   7
ATOM      5  C   UNL     1      -2.436  -0.674  -0.807  0.00  0.00    +0.067 C 
ATOM      6  C   UNL     1      -1.023  -1.036  -0.430  0.00  0.00    +0.059 A 
ATOM      7  C   UNL     1       0.076  -0.816  -1.187  0.00  0.00    +0.121 A 
ATOM      8  C   UNL     1       1.226  -1.322  -0.437  0.00  0.00    +0.293 A 
ATOM      9  O   UNL     1       2.391  -1.301  -0.794  0.00  0.00    -0.264 OA
ATOM     10  N   UNL     1       0.752  -1.815   0.726  0.00  0.00    -0.216 N 
ATOM     11  N   UNL     1      -0.636  -1.637   0.738  0.00  0.00    -0.282 N 
ATOM     12  C   UNL     1      -1.533  -2.033   1.827  0.00  0.00    +0.171 C 
BRANCH  10  13
ATOM     13  C   UNL     1       1.514  -2.399   1.742  0.00  0.00    +0.067 A 
ATOM     14  C   UNL     1       1.121  -3.608   2.301  0.00  0.00    +0.028 A 
ATOM     15  C   UNL     1       1.877  -4.181   3.305  0.00  0.00    +0.002 A 
ATOM     16  C   UNL     1       3.023  -3.553   3.754  0.00  0.00    +0.000 A 
ATOM     17  C   UNL     1       3.417  -2.348   3.200  0.00  0.00    +0.002 A 
ATOM     18  C   UNL     1       2.670  -1.773   2.192  0.00  0.00    +0.028 A 
ENDBRANCH  10  13
ENDBRANCH   1   7
BRANCH   2  19
ATOM     19  C   UNL     1       0.555  -0.284  -4.891  0.00  0.00    +0.159 C 
ATOM     20  C   UNL     1       1.300   1.053  -4.904  0.00  0.00    +0.035 C 
BRANCH  19  21
ATOM     21  N   UNL     1       1.177  -1.199  -5.851  0.00  0.00    -0.178 NA
ATOM     22  H   UNL     1       1.945  -1.730  -5.587  0.00  0.00    +0.149 HD
BRANCH  21  23
ATOM     23  S   UNL     1       0.571  -1.326  -7.387  0.00  0.00    +0.059 S 
ATOM     24  O   UNL     1       1.395  -2.259  -8.073  0.00  0.00    -0.153 OA
ATOM     25  O   UNL     1      -0.833  -1.502  -7.256  0.00  0.00    -0.153 OA
BRANCH  23  26
ATOM     26  C   UNL     1       0.812   0.232  -8.173  0.00  0.00    +0.105 A 
ATOM     27  C   UNL     1      -0.161   1.209  -8.084  0.00  0.00    +0.029 A 
ATOM     28  C   UNL     1       0.028   2.432  -8.700  0.00  0.00    +0.017 A 
ATOM     29  C   UNL     1       1.192   2.677  -9.406  0.00  0.00    +0.018 A 
ATOM     30  C   UNL     1       2.166   1.699  -9.495  0.00  0.00    +0.017 A 
ATOM     31  C   UNL     1       1.978   0.479  -8.874  0.00  0.00    +0.029 A 
ATOM     32 BR   UNL     1       1.451   4.350 -10.251  0.00  0.00    -0.050 Br
ENDBRANCH  23  26
ENDBRANCH  21  23
ENDBRANCH  19  21
ENDBRANCH   2  19
TORSDOF 6
