REMARK  Name = ZINC64020109
REMARK  5 active torsions:
REMARK  status: ('A' for Active; 'I' for Inactive)
REMARK    1  A    between atoms: C_1  and  C_2
REMARK    2  A    between atoms: C_5  and  N_24
REMARK    3  A    between atoms: C_10  and  C_12
REMARK    4  A    between atoms: N_14  and  N_15
REMARK    5  A    between atoms: C_16  and  C_17
REMARK                            x       y       z     vdW  Elec       q    Type
REMARK                         _______ _______ _______ _____ _____    ______ ____
ROOT
ATOM      1  C   UNL     1      -0.018   1.503   0.010  0.00  0.00    +0.042 C 
ATOM      2  C   UNL     1       0.002  -0.004   0.002  0.00  0.00    -0.033 C 
ATOM      3  C   UNL     1       0.009  -0.811  -1.083  0.00  0.00    +0.002 A 
ATOM      4  C   UNL     1      -0.001  -0.538  -2.526  0.00  0.00    +0.042 A 
ATOM      5  C   UNL     1       0.010  -1.579  -3.390  0.00  0.00    +0.127 A 
ATOM      6  C   UNL     1       0.030  -2.907  -2.944  0.00  0.00    +0.035 A 
ATOM      7  C   UNL     1       0.039  -3.237  -1.635  0.00  0.00    +0.028 A 
ATOM      8  C   UNL     1       0.030  -2.223  -0.638  0.00  0.00    +0.043 A 
ATOM      9  N   UNL     1       0.036  -2.286   0.671  0.00  0.00    -0.370 N 
ATOM     10  C   UNL     1       0.026  -0.920   1.206  0.00  0.00    +0.194 C 
ATOM     11  H   UNL     1       0.049  -3.100   1.199  0.00  0.00    +0.161 HD
ENDROOT
BRANCH  10  12
ATOM     12  C   UNL     1       1.266  -0.670   2.024  0.00  0.00    +0.259 C 
ATOM     13  O   UNL     1       2.221  -1.410   1.919  0.00  0.00    -0.271 OA
ATOM     14  N   UNL     1       1.315   0.377   2.872  0.00  0.00    -0.205 N 
ATOM     15  H   UNL     1       0.551   0.969   2.955  0.00  0.00    +0.177 HD
BRANCH  14  16
ATOM     16  N   UNL     1       2.468   0.609   3.633  0.00  0.00    -0.188 NA
ATOM     17  C   UNL     1       2.514   1.617   4.449  0.00  0.00    +0.138 C 
BRANCH  17  18
ATOM     18  C   UNL     1       3.728   1.861   5.250  0.00  0.00    -0.005 A 
ATOM     19  C   UNL     1       4.832   1.014   5.128  0.00  0.00    +0.010 A 
ATOM     20  C   UNL     1       5.964   1.248   5.879  0.00  0.00    +0.016 A 
ATOM     21  C   UNL     1       6.009   2.321   6.754  0.00  0.00    +0.018 A 
ATOM     22  C   UNL     1       4.918   3.165   6.880  0.00  0.00    +0.016 A 
ATOM     23  C   UNL     1       3.782   2.945   6.130  0.00  0.00    +0.010 A 
ATOM     24 BR   UNL     1       7.565   2.635   7.780  0.00  0.00    -0.050 Br
ENDBRANCH  17  18
ENDBRANCH  14  16
ENDBRANCH  10  12
BRANCH   5  25
ATOM     25  N   UNL     1      -0.000  -1.307  -4.845  0.00  0.00    +0.056 N 
ATOM     26  O   UNL     1      -0.018  -0.166  -5.247  0.00  0.00    -0.126 OA
ATOM     27  O   UNL     1       0.009  -2.225  -5.631  0.00  0.00    -0.126 OA
ENDBRANCH   5  25
TORSDOF 4
