REMARK  Name = ZINC09473007
REMARK  11 active torsions:
REMARK  status: ('A' for Active; 'I' for Inactive)
REMARK    1  A    between atoms: C_4  and  C_7
REMARK    2  A    between atoms: C_7  and  N_8
REMARK    3  A    between atoms: C_9  and  C_11
REMARK    4  A    between atoms: C_11  and  S_12
REMARK    5  A    between atoms: S_12  and  C_13
REMARK    6  A    between atoms: N_23  and  C_24
REMARK    7  A    between atoms: C_24  and  C_25
REMARK    8  A    between atoms: C_25  and  C_26
REMARK    9  A    between atoms: C_26  and  C_27
REMARK   10  A    between atoms: N_29  and  C_30
REMARK   11  A    between atoms: C_30  and  C_31
REMARK                            x       y       z     vdW  Elec       q    Type
REMARK                         _______ _______ _______ _____ _____    ______ ____
ROOT
ATOM      1  C   UNL     1       0.122   0.990  -2.724  0.00  0.00    +0.173 A 
ATOM      2  N   UNL     1       1.165   0.280  -2.370  0.00  0.00    -0.223 NA
ATOM      3  C   UNL     1       1.978  -0.285  -3.285  0.00  0.00    +0.079 A 
ATOM      4  C   UNL     1       3.088  -1.047  -2.908  0.00  0.00    +0.028 A 
ATOM      5  C   UNL     1       3.889  -1.596  -3.869  0.00  0.00    +0.002 A 
ATOM      6  C   UNL     1       3.617  -1.410  -5.219  0.00  0.00    +0.001 A 
ATOM      7  C   UNL     1       2.538  -0.671  -5.619  0.00  0.00    +0.015 A 
ATOM      8  C   UNL     1       1.704  -0.099  -4.659  0.00  0.00    +0.065 A 
ATOM      9  C   UNL     1       0.532   0.706  -5.030  0.00  0.00    +0.262 A 
ATOM     10  O   UNL     1       0.245   0.903  -6.197  0.00  0.00    -0.267 OA
ATOM     11  N   UNL     1      -0.216   1.220  -4.027  0.00  0.00    -0.287 N 
ENDROOT
BRANCH   1  12
ATOM     12  S   UNL     1      -0.888   1.685  -1.458  0.00  0.00    -0.078 S 
BRANCH  12  13
ATOM     13  C   UNL     1      -0.013   1.086   0.008  0.00  0.00    +0.173 C 
BRANCH  13  15
ATOM     14  N   UNL     1      -0.242   1.246   2.466  0.00  0.00    -0.311 N 
ATOM     15  C   UNL     1      -0.718   1.572   1.248  0.00  0.00    +0.224 C 
ATOM     16  O   UNL     1      -1.714   2.256   1.150  0.00  0.00    -0.275 OA
ATOM     17  H   UNL     1       0.555   0.699   2.544  0.00  0.00    +0.149 HD
BRANCH  14  18
ATOM     18  C   UNL     1      -0.927   1.718   3.671  0.00  0.00    +0.139 C 
BRANCH  18  22
ATOM     19  C   UNL     1       1.139   0.303   7.132  0.00  0.00    +0.000 A 
ATOM     20  C   UNL     1       1.482   1.519   6.571  0.00  0.00    +0.000 A 
ATOM     21  C   UNL     1       0.814   1.977   5.451  0.00  0.00    +0.005 A 
ATOM     22  C   UNL     1      -0.198   1.219   4.892  0.00  0.00    -0.030 A 
ATOM     23  C   UNL     1      -0.546   0.006   5.457  0.00  0.00    +0.005 A 
ATOM     24  C   UNL     1       0.126  -0.454   6.574  0.00  0.00    +0.000 A 
ENDBRANCH  18  22
ENDBRANCH  14  18
ENDBRANCH  13  15
ENDBRANCH  12  13
ENDBRANCH   1  12
BRANCH  11  25
ATOM     25  C   UNL     1      -1.395   2.030  -4.340  0.00  0.00    +0.128 C 
BRANCH  25  26
ATOM     26  C   UNL     1      -0.990   3.502  -4.450  0.00  0.00    +0.031 C 
BRANCH  26  27
ATOM     27  C   UNL     1      -2.222   4.348  -4.778  0.00  0.00    +0.097 C 
BRANCH  27  28
ATOM     28  C   UNL     1      -1.822   5.796  -4.886  0.00  0.00    +0.213 C 
ATOM     29  O   UNL     1      -0.665   6.120  -4.719  0.00  0.00    -0.276 OA
ATOM     30  N   UNL     1      -2.749   6.732  -5.170  0.00  0.00    -0.313 N 
ATOM     31  H   UNL     1      -3.674   6.473  -5.304  0.00  0.00    +0.149 HD
BRANCH  30  32
ATOM     32  C   UNL     1      -2.361   8.140  -5.276  0.00  0.00    +0.135 C 
BRANCH  32  33
ATOM     33  C   UNL     1      -3.593   8.986  -5.603  0.00  0.00    +0.135 C 
ATOM     34  C   UNL     1      -3.194  10.471  -5.717  0.00  0.00    +0.035 C 
ATOM     35  C   UNL     1      -3.615  10.868  -7.152  0.00  0.00    +0.031 C 
ATOM     36  C   UNL     1      -4.665   9.781  -7.495  0.00  0.00    +0.160 C 
ATOM     37  O   UNL     1      -4.133   8.591  -6.875  0.00  0.00    -0.375 OA
ENDBRANCH  32  33
ENDBRANCH  30  32
ENDBRANCH  27  28
ENDBRANCH  26  27
ENDBRANCH  25  26
ENDBRANCH  11  25
TORSDOF 11
