REMARK  Name = ZINC27832163
REMARK  5 active torsions:
REMARK  status: ('A' for Active; 'I' for Inactive)
REMARK    1  A    between atoms: C_1  and  C_2
REMARK    2  A    between atoms: C_2  and  C_3
REMARK    3  A    between atoms: C_2  and  N_4
REMARK    4  A    between atoms: C_5  and  C_6
REMARK    5  A    between atoms: C_10  and  N_13
REMARK                            x       y       z     vdW  Elec       q    Type
REMARK                         _______ _______ _______ _____ _____    ______ ____
ROOT
ATOM      1  C   UNL     1       1.153  -2.106  -0.020  0.00  0.00    +0.051 A 
ATOM      2  C   UNL     1       2.379  -2.802  -0.036  0.00  0.00    +0.036 A 
ATOM      3  C   UNL     1       2.388  -4.206  -0.044  0.00  0.00    +0.138 A 
ATOM      4  C   UNL     1       1.183  -4.899  -0.036  0.00  0.00    +0.083 A 
ATOM      5  C   UNL     1      -0.015  -4.218  -0.019  0.00  0.00    +0.177 A 
ATOM      6  C   UNL     1      -0.044  -2.830  -0.007  0.00  0.00    +0.218 A 
ATOM      7  O   UNL     1      -1.233  -2.175   0.014  0.00  0.00    -0.285 OA
ATOM      8  O   UNL     1       3.680  -4.601  -0.060  0.00  0.00    -0.459 OA
ATOM      9  C   UNL     1       4.504  -3.542  -0.060  0.00  0.00    +0.109 A 
ATOM     10  C   UNL     1       3.781  -2.406  -0.045  0.00  0.00    +0.002 A 
ATOM     11  C   UNL     1       4.361  -1.017  -0.037  0.00  0.00    +0.039 C 
ATOM     12  C   UNL     1       5.840  -1.110   0.358  0.00  0.00    +0.005 C 
ATOM     13  C   UNL     1       6.523  -2.184  -0.493  0.00  0.00    +0.008 C 
ATOM     14  C   UNL     1       6.016  -3.569  -0.076  0.00  0.00    +0.075 C 
ENDROOT
BRANCH   1  16
ATOM     15  N   UNL     1       0.002  -0.004   0.002  0.00  0.00    -0.387 N 
ATOM     16  C   UNL     1       1.133  -0.637  -0.012  0.00  0.00    +0.091 C 
ATOM     17  H   UNL     1      -0.943  -0.567   0.008  0.00  0.00    +0.159 HD
BRANCH  15  19
ATOM     18  C   UNL     1      -0.758   1.968  -1.230  0.00  0.00    +0.030 C 
ATOM     19  C   UNL     1      -0.018   1.461   0.010  0.00  0.00    +0.073 C 
ATOM     20  C   UNL     1      -0.734   1.954   1.269  0.00  0.00    +0.030 C 
ENDBRANCH  15  19
ENDBRANCH   1  16
BRANCH   5  21
ATOM     21  N   UNL     1      -1.286  -4.976  -0.010  0.00  0.00    +0.060 N 
ATOM     22  O   UNL     1      -1.270  -6.194  -0.018  0.00  0.00    -0.126 OA
ATOM     23  O   UNL     1      -2.350  -4.382   0.004  0.00  0.00    -0.126 OA
ENDBRANCH   5  21
TORSDOF 3
