REMARK  Name = ZINC31306647
REMARK  7 active torsions:
REMARK  status: ('A' for Active; 'I' for Inactive)
REMARK    1  A    between atoms: C_3  and  N_11
REMARK    2  A    between atoms: C_4  and  N_8
REMARK    3  A    between atoms: N_14  and  C_17
REMARK    4  A    between atoms: C_17  and  C_18
REMARK    5  A    between atoms: C_18  and  C_19
REMARK    6  A    between atoms: N_21  and  C_22
REMARK    7  A    between atoms: C_23  and  C_27
REMARK                            x       y       z     vdW  Elec       q    Type
REMARK                         _______ _______ _______ _____ _____    ______ ____
ROOT
ATOM      1  N   UNL     1       2.401   1.107  -0.015  0.00  0.00    -0.332 N 
ATOM      2  C   UNL     1       2.554   0.328  -1.252  0.00  0.00    +0.086 C 
ATOM      3  C   UNL     1       3.933  -0.336  -1.265  0.00  0.00    -0.060 C 
ATOM      4  N   UNL     1       4.070  -1.198  -0.083  0.00  0.00    +0.382 N 
ATOM      5  C   UNL     1       3.917  -0.419   1.154  0.00  0.00    -0.060 C 
ATOM      6  C   UNL     1       2.538   0.245   1.167  0.00  0.00    +0.086 C 
ATOM      7  H   UNL     1       3.266  -1.948  -0.114  0.00  0.00    -0.082 HD
ENDROOT
BRANCH   1  10
ATOM      8  C   UNL     1      -1.218   1.751   0.017  0.00  0.00    +0.022 A 
ATOM      9  C   UNL     1      -0.013   1.076   0.008  0.00  0.00    +0.027 A 
ATOM     10  C   UNL     1       1.180   1.787   0.000  0.00  0.00    +0.060 A 
ATOM     11  C   UNL     1       1.158   3.176   0.008  0.00  0.00    +0.148 A 
ATOM     12  C   UNL     1      -0.050   3.846   0.022  0.00  0.00    +0.054 A 
ATOM     13  C   UNL     1      -1.237   3.134   0.030  0.00  0.00    +0.043 A 
ATOM     14 CL   UNL     1      -2.753   3.979   0.048  0.00  0.00    -0.083 Cl
BRANCH  11  15
ATOM     15  N   UNL     1       2.427   3.938   0.000  0.00  0.00    +0.058 N 
ATOM     16  O   UNL     1       2.406   5.155   0.006  0.00  0.00    -0.126 OA
ATOM     17  O   UNL     1       3.492   3.346  -0.013  0.00  0.00    -0.126 OA
ENDBRANCH  11  15
ENDBRANCH   1  10
BRANCH   4  18
ATOM     18  C   UNL     1       5.354  -1.913  -0.099  0.00  0.00    -0.069 C 
BRANCH  18  19
ATOM     19  C   UNL     1       5.373  -2.899  -1.269  0.00  0.00    +0.077 C 
BRANCH  19  20
ATOM     20  C   UNL     1       6.689  -3.633  -1.285  0.00  0.00    +0.216 C 
ATOM     21  O   UNL     1       7.529  -3.391  -0.444  0.00  0.00    -0.276 OA
ATOM     22  N   UNL     1       6.934  -4.558  -2.234  0.00  0.00    -0.279 N 
ATOM     23  H   UNL     1       6.172  -4.778  -2.997  0.00  0.00    +0.155 HD
BRANCH  22  24
ATOM     24  C   UNL     1       8.145  -5.233  -2.249  0.00  0.00    +0.084 A 
ATOM     25  C   UNL     1       8.575  -6.214  -3.134  0.00  0.00    +0.065 A 
ATOM     26  C   UNL     1       9.898  -6.749  -2.917  0.00  0.00    +0.022 A 
ATOM     27  C   UNL     1      10.595  -6.261  -1.875  0.00  0.00    +0.048 A 
ATOM     28  S   UNL     1       9.485  -5.063  -1.166  0.00  0.00    -0.081 S 
BRANCH  25  29
ATOM     29  C   UNL     1       7.728  -6.681  -4.237  0.00  0.00    +0.244 C 
ATOM     30  O   UNL     1       6.619  -6.207  -4.394  0.00  0.00    -0.270 OA
ATOM     31  N   UNL     1       8.179  -7.635  -5.076  0.00  0.00    -0.325 N 
ATOM     32  H   UNL     1       7.544  -7.984  -5.903  0.00  0.00    +0.145 HD
ATOM     33  H   UNL     1       9.182  -8.063  -4.933  0.00  0.00    +0.145 HD
ENDBRANCH  25  29
ENDBRANCH  22  24
ENDBRANCH  19  20
ENDBRANCH  18  19
ENDBRANCH   4  18
TORSDOF 7
