REMARK  Name = ZINC24294714
REMARK  12 active torsions:
REMARK  status: ('A' for Active; 'I' for Inactive)
REMARK    1  A    between atoms: C_1  and  C_2
REMARK    2  A    between atoms: C_2  and  C_4
REMARK    3  A    between atoms: C_2  and  O_29
REMARK    4  A    between atoms: N_6  and  N_7
REMARK    5  A    between atoms: C_8  and  C_10
REMARK    6  A    between atoms: C_10  and  C_12
REMARK    7  A    between atoms: C_10  and  N_15
REMARK    8  A    between atoms: C_12  and  C_13
REMARK    9  A    between atoms: C_12  and  C_14
REMARK   10  A    between atoms: N_15  and  S_16
REMARK   11  A    between atoms: S_16  and  C_19
REMARK   12  A    between atoms: O_29  and  C_30
REMARK                            x       y       z     vdW  Elec       q    Type
REMARK                         _______ _______ _______ _____ _____    ______ ____
ROOT
ATOM      1  C   UNL     1      -5.581  -1.421   3.322  0.00  0.00    +0.166 C 
ENDROOT
BRANCH   1   3
ATOM      2  N   UNL     1      -3.258  -1.862   2.596  0.00  0.00    -0.233 N 
ATOM      3  C   UNL     1      -4.089  -1.288   3.489  0.00  0.00    +0.248 C 
ATOM      4  O   UNL     1      -3.636  -0.665   4.425  0.00  0.00    -0.273 OA
ATOM      5  H   UNL     1      -3.619  -2.307   1.813  0.00  0.00    +0.173 HD
BRANCH   2   8
ATOM      6  C   UNL     1      -1.041  -2.390   1.906  0.00  0.00    +0.270 C 
ATOM      7  O   UNL     1      -1.493  -2.946   0.928  0.00  0.00    -0.270 OA
ATOM      8  N   UNL     1      -1.872  -1.816   2.799  0.00  0.00    -0.231 N 
ATOM      9  H   UNL     1      -1.511  -1.371   3.581  0.00  0.00    +0.173 HD
BRANCH   6  11
ATOM     10  C   UNL     1       0.927  -0.888   2.048  0.00  0.00    +0.062 C 
ATOM     11  C   UNL     1       0.449  -2.340   2.124  0.00  0.00    +0.257 C 
BRANCH  11  12
ATOM     12  O   UNL     1       1.104  -3.110   1.115  0.00  0.00    -0.480 OA
BRANCH  12  13
ATOM     13  C   UNL     1       2.342  -3.588   1.409  0.00  0.00    +0.122 A 
ATOM     14  C   UNL     1       2.915  -3.319   2.643  0.00  0.00    +0.048 A 
ATOM     15  C   UNL     1       4.173  -3.805   2.941  0.00  0.00    +0.042 A 
ATOM     16  C   UNL     1       4.863  -4.561   2.009  0.00  0.00    +0.124 A 
ATOM     17  C   UNL     1       4.293  -4.830   0.776  0.00  0.00    +0.042 A 
ATOM     18  C   UNL     1       3.032  -4.350   0.478  0.00  0.00    +0.048 A 
ATOM     19  F   UNL     1       6.093  -5.035   2.301  0.00  0.00    -0.205 F 
ENDBRANCH  12  13
ENDBRANCH  11  12
ENDBRANCH   6  11
ENDBRANCH   2   8
ENDBRANCH   1   3
BRANCH   1  20
ATOM     20  C   UNL     1      -6.050  -0.514   2.184  0.00  0.00    +0.010 C 
ATOM     21  C   UNL     1      -7.543  -0.739   1.934  0.00  0.00    +0.009 C 
ATOM     22  C   UNL     1      -5.812   0.949   2.566  0.00  0.00    +0.009 C 
ENDBRANCH   1  20
BRANCH   1  23
ATOM     23  N   UNL     1      -6.248  -1.029   4.566  0.00  0.00    -0.178 NA
ATOM     24  H   UNL     1      -6.207  -0.108   4.869  0.00  0.00    +0.149 HD
BRANCH  23  25
ATOM     25  S   UNL     1      -7.070  -2.157   5.457  0.00  0.00    +0.059 S 
ATOM     26  O   UNL     1      -7.513  -1.500   6.636  0.00  0.00    -0.153 OA
ATOM     27  O   UNL     1      -7.966  -2.805   4.564  0.00  0.00    -0.153 OA
BRANCH  25  28
ATOM     28  C   UNL     1      -5.901  -3.373   5.966  0.00  0.00    +0.109 A 
ATOM     29  C   UNL     1      -5.657  -4.473   5.166  0.00  0.00    +0.032 A 
ATOM     30  C   UNL     1      -4.741  -5.429   5.563  0.00  0.00    +0.051 A 
ATOM     31  C   UNL     1      -4.063  -5.286   6.764  0.00  0.00    +0.162 A 
ATOM     32  C   UNL     1      -4.307  -4.178   7.567  0.00  0.00    +0.164 A 
ATOM     33  C   UNL     1      -5.224  -3.221   7.162  0.00  0.00    +0.078 A 
ATOM     34  O   UNL     1      -3.647  -4.015   8.747  0.00  0.00    -0.485 OA
ATOM     35  C   UNL     1      -3.008  -5.174   9.293  0.00  0.00    +0.270 C 
ATOM     36  C   UNL     1      -2.235  -5.872   8.167  0.00  0.00    +0.270 C 
ATOM     37  O   UNL     1      -3.167  -6.238   7.143  0.00  0.00    -0.485 OA
ENDBRANCH  25  28
ENDBRANCH  23  25
ENDBRANCH   1  23
TORSDOF 9
