REMARK  Name = ZINC08833564
REMARK  6 active torsions:
REMARK  status: ('A' for Active; 'I' for Inactive)
REMARK    1  A    between atoms: C_1  and  C_2
REMARK    2  A    between atoms: C_9  and  C_12
REMARK    3  A    between atoms: C_15  and  N_18
REMARK    4  A    between atoms: N_18  and  S_19
REMARK    5  A    between atoms: S_19  and  C_22
REMARK    6  A    between atoms: C_27  and  N_28
REMARK                            x       y       z     vdW  Elec       q    Type
REMARK                         _______ _______ _______ _____ _____    ______ ____
ROOT
ATOM      1  C   UNL     1       2.282  -4.227   6.414  0.00  0.00    +0.017 A 
ATOM      2  C   UNL     1       1.544  -4.745   5.347  0.00  0.00    +0.013 A 
ATOM      3  C   UNL     1       1.133  -6.059   5.370  0.00  0.00    +0.027 A 
ATOM      4  C   UNL     1       1.452  -6.871   6.454  0.00  0.00    +0.074 A 
ATOM      5  C   UNL     1       2.187  -6.358   7.518  0.00  0.00    +0.027 A 
ATOM      6  C   UNL     1       2.605  -5.046   7.498  0.00  0.00    +0.013 A 
ENDROOT
BRANCH   1  15
ATOM      7  C   UNL     1       5.129   2.464   7.695  0.00  0.00    +0.044 C 
ATOM      8  C   UNL     1       4.397   1.334   7.016  0.00  0.00    -0.048 A 
ATOM      9  C   UNL     1       3.797   1.547   5.783  0.00  0.00    +0.005 A 
ATOM     10  C   UNL     1       3.124   0.525   5.147  0.00  0.00    +0.028 A 
ATOM     11  C   UNL     1       3.047  -0.725   5.746  0.00  0.00    +0.066 A 
ATOM     12  C   UNL     1       3.655  -0.941   6.995  0.00  0.00    +0.090 A 
ATOM     13  C   UNL     1       4.337   0.110   7.618  0.00  0.00    +0.033 A 
ATOM     14  N   UNL     1       3.424  -2.232   7.335  0.00  0.00    -0.228 NA
ATOM     15  C   UNL     1       2.724  -2.817   6.393  0.00  0.00    +0.139 A 
ATOM     16  N   UNL     1       2.466  -1.925   5.387  0.00  0.00    -0.338 N 
ATOM     17  H   UNL     1       1.968  -2.104   4.574  0.00  0.00    +0.167 HD
ENDBRANCH   1  15
BRANCH   4  18
ATOM     18  N   UNL     1       1.034  -8.200   6.473  0.00  0.00    -0.098 NA
BRANCH  18  19
ATOM     19  S   UNL     1       1.413  -9.168   7.763  0.00  0.00    +0.094 S 
ATOM     20  O   UNL     1       2.825  -9.324   7.752  0.00  0.00    -0.148 OA
ATOM     21  O   UNL     1       0.714  -8.644   8.883  0.00  0.00    -0.148 OA
BRANCH  19  22
ATOM     22  C   UNL     1       0.728 -10.758   7.440  0.00  0.00    +0.140 A 
ATOM     23  C   UNL     1      -0.303 -11.239   8.226  0.00  0.00    +0.031 A 
ATOM     24  C   UNL     1      -0.841 -12.487   7.973  0.00  0.00    +0.002 A 
ATOM     25  C   UNL     1      -0.349 -13.254   6.933  0.00  0.00    +0.002 A 
ATOM     26  C   UNL     1       0.681 -12.772   6.146  0.00  0.00    +0.035 A 
ATOM     27  C   UNL     1       1.216 -11.522   6.397  0.00  0.00    +0.153 A 
BRANCH  27  28
ATOM     28  N   UNL     1       2.315 -11.005   5.551  0.00  0.00    +0.058 N 
ATOM     29  O   UNL     1       3.183 -11.752   5.164  0.00  0.00    -0.126 OA
ATOM     30  O   UNL     1       2.344  -9.835   5.248  0.00  0.00    -0.126 OA
ENDBRANCH  27  28
ENDBRANCH  19  22
ENDBRANCH  18  19
ENDBRANCH   4  18
TORSDOF 5
