REMARK  Name = ZINC12658609
REMARK  11 active torsions:
REMARK  status: ('A' for Active; 'I' for Inactive)
REMARK    1  A    between atoms: C_1  and  C_2
REMARK    2  A    between atoms: C_5  and  S_11
REMARK    3  A    between atoms: C_7  and  N_8
REMARK    4  A    between atoms: S_11  and  N_14
REMARK    5  A    between atoms: N_14  and  N_15
REMARK    6  A    between atoms: C_16  and  C_17
REMARK    7  A    between atoms: C_16  and  C_18
REMARK    8  A    between atoms: C_21  and  O_28
REMARK    9  A    between atoms: C_23  and  O_24
REMARK   10  A    between atoms: O_24  and  C_25
REMARK   11  A    between atoms: O_28  and  C_29
REMARK                            x       y       z     vdW  Elec       q    Type
REMARK                         _______ _______ _______ _____ _____    ______ ____
ROOT
ATOM      1  N   UNL     1       2.804  -5.921  -0.535  0.00  0.00    -0.146 NA
ATOM      2  C   UNL     1       4.069  -6.056  -0.787  0.00  0.00    +0.070 C 
ATOM      3  C   UNL     1       4.935  -4.836  -0.968  0.00  0.00    +0.068 C 
ENDROOT
BRANCH   2   4
ATOM      4  C   UNL     1       4.660  -7.402  -0.897  0.00  0.00    +0.040 A 
ATOM      5  C   UNL     1       6.023  -7.550  -1.163  0.00  0.00    +0.017 A 
ATOM      6  C   UNL     1       6.571  -8.810  -1.265  0.00  0.00    +0.047 A 
ATOM      7  C   UNL     1       5.772  -9.935  -1.104  0.00  0.00    +0.130 A 
ATOM      8  C   UNL     1       4.417  -9.799  -0.840  0.00  0.00    +0.092 A 
ATOM      9  C   UNL     1       3.857  -8.538  -0.729  0.00  0.00    +0.139 A 
BRANCH   9  10
ATOM     10  O   UNL     1       2.531  -8.403  -0.464  0.00  0.00    -0.433 OA
BRANCH  10  11
ATOM     11  C   UNL     1       1.776  -9.605  -0.305  0.00  0.00    +0.541 C 
ATOM     12  F   UNL     1       1.849 -10.361  -1.480  0.00  0.00    -0.166 F 
ATOM     13  F   UNL     1       2.298 -10.347   0.760  0.00  0.00    -0.166 F 
ENDBRANCH  10  11
ENDBRANCH   9  10
BRANCH   7  14
ATOM     14  O   UNL     1       6.320 -11.175  -1.207  0.00  0.00    -0.434 OA
BRANCH  14  15
ATOM     15  C   UNL     1       7.721 -11.244  -1.481  0.00  0.00    +0.541 C 
ATOM     16  F   UNL     1       7.989 -10.613  -2.700  0.00  0.00    -0.166 F 
ATOM     17  F   UNL     1       8.429 -10.604  -0.458  0.00  0.00    -0.166 F 
ENDBRANCH  14  15
ENDBRANCH   7  14
ENDBRANCH   2   4
BRANCH   1  18
ATOM     18  N   UNL     1       2.242  -4.642  -0.430  0.00  0.00    +0.006 NA
BRANCH  18  19
ATOM     19  S   UNL     1       0.627  -4.470  -0.108  0.00  0.00    +0.108 S 
ATOM     20  O   UNL     1       0.420  -4.968   1.207  0.00  0.00    -0.147 OA
ATOM     21  O   UNL     1      -0.069  -4.983  -1.235  0.00  0.00    -0.147 OA
BRANCH  19  26
ATOM     22  C   UNL     1      -0.537   1.447   0.088  0.00  0.00    +0.046 C 
ATOM     23  C   UNL     1      -0.246  -0.031   0.039  0.00  0.00    -0.020 A 
ATOM     24  C   UNL     1      -0.347  -0.716  -1.157  0.00  0.00    +0.007 A 
ATOM     25  C   UNL     1      -0.080  -2.071  -1.202  0.00  0.00    +0.029 A 
ATOM     26  C   UNL     1       0.288  -2.742  -0.051  0.00  0.00    +0.114 A 
ATOM     27  C   UNL     1       0.390  -2.057   1.145  0.00  0.00    +0.062 A 
ATOM     28  C   UNL     1       0.127  -0.700   1.190  0.00  0.00    +0.131 A 
BRANCH  28  29
ATOM     29  N   UNL     1       0.241   0.035   2.470  0.00  0.00    +0.057 N 
ATOM     30  O   UNL     1       0.674   1.163   2.482  0.00  0.00    -0.126 OA
ATOM     31  O   UNL     1      -0.099  -0.494   3.502  0.00  0.00    -0.126 OA
ENDBRANCH  28  29
ENDBRANCH  19  26
ENDBRANCH  18  19
ENDBRANCH   1  18
TORSDOF 9
