REMARK  Name = ZINC05707090
REMARK  8 active torsions:
REMARK  status: ('A' for Active; 'I' for Inactive)
REMARK    1  A    between atoms: C_1  and  C_2
REMARK    2  A    between atoms: C_5  and  S_8
REMARK    3  A    between atoms: S_8  and  C_9
REMARK    4  A    between atoms: N_15  and  C1*_18
REMARK    5  A    between atoms: C2*_20  and  O2*_30
REMARK    6  A    between atoms: C3*_22  and  O3*_29
REMARK    7  A    between atoms: C4*_24  and  C5*_27
REMARK    8  A    between atoms: C5*_27  and  O5*_28
REMARK                            x       y       z     vdW  Elec       q    Type
REMARK                         _______ _______ _______ _____ _____    ______ ____
ROOT
ATOM      1  C   UNL     1      -0.017   1.402   0.006  0.00  0.00    +0.132 A 
ATOM      2  C   UNL     1       0.003  -0.004   0.001  0.00  0.00    +0.140 A 
ATOM      3  C   UNL     1       1.250  -0.650  -0.018  0.00  0.00    +0.167 A 
ATOM      4  N   UNL     1       2.358   0.085  -0.029  0.00  0.00    -0.216 NA
ATOM      5  C   UNL     1       2.292   1.400  -0.024  0.00  0.00    +0.224 A 
ATOM      6  N   UNL     1       1.143   2.051  -0.006  0.00  0.00    -0.227 NA
ATOM      7  N   UNL     1       0.980  -1.995  -0.018  0.00  0.00    -0.286 N 
ATOM      8  C   UNL     1      -0.376  -2.139  -0.001  0.00  0.00    +0.203 A 
ATOM      9  N   UNL     1      -0.947  -0.970   0.010  0.00  0.00    -0.231 NA
ENDROOT
BRANCH   7  10
ATOM     10  C1* UNL     1       1.966  -3.077  -0.036  0.00  0.00    +0.253 C 
ATOM     11  C2* UNL     1       2.402  -3.385  -1.485  0.00  0.00    +0.195 C 
ATOM     12  C3* UNL     1       2.573  -4.920  -1.509  0.00  0.00    +0.178 C 
ATOM     13  C4* UNL     1       2.220  -5.359  -0.070  0.00  0.00    +0.177 C 
ATOM     14  O4* UNL     1       1.373  -4.306   0.439  0.00  0.00    -0.346 OA
BRANCH  12  15
ATOM     15  O3* UNL     1       1.674  -5.510  -2.450  0.00  0.00    -0.386 OA
ATOM     16  H3* UNL     1       1.739  -6.473  -2.506  0.00  0.00    +0.210 HD
ENDBRANCH  12  15
BRANCH  11  17
ATOM     17  O2* UNL     1       3.642  -2.738  -1.783  0.00  0.00    -0.385 OA
ATOM     18  H2* UNL     1       3.963  -2.897  -2.681  0.00  0.00    +0.210 HD
ENDBRANCH  11  17
BRANCH  13  19
ATOM     19  C5* UNL     1       1.463  -6.688  -0.090  0.00  0.00    +0.190 C 
BRANCH  19  20
ATOM     20  O5* UNL     1       1.248  -7.134   1.251  0.00  0.00    -0.392 OA
ATOM     21  H5* UNL     1       0.772  -7.973   1.315  0.00  0.00    +0.210 HD
ENDBRANCH  19  20
ENDBRANCH  13  19
ENDBRANCH   7  10
BRANCH   1  22
ATOM     22  S   UNL     1      -1.543   2.283   0.022  0.00  0.00    -0.068 S 
BRANCH  22  27
ATOM     23  C   UNL     1       0.513   7.932   0.561  0.00  0.00    +0.044 C 
ATOM     24  C   UNL     1      -0.000   6.522   0.426  0.00  0.00    -0.050 A 
ATOM     25  C   UNL     1      -0.287   6.008  -0.826  0.00  0.00    +0.004 A 
ATOM     26  C   UNL     1      -0.758   4.716  -0.953  0.00  0.00    +0.015 A 
ATOM     27  C   UNL     1      -0.943   3.932   0.179  0.00  0.00    +0.014 A 
ATOM     28  C   UNL     1      -0.659   4.453   1.436  0.00  0.00    +0.015 A 
ATOM     29  C   UNL     1      -0.184   5.744   1.555  0.00  0.00    +0.004 A 
ENDBRANCH  22  27
ENDBRANCH   1  22
TORSDOF 7
