REMARK  Name = ZINC40401415
REMARK  12 active torsions:
REMARK  status: ('A' for Active; 'I' for Inactive)
REMARK    1  A    between atoms: C_1  and  C_2
REMARK    2  A    between atoms: C_2  and  C_3
REMARK    3  A    between atoms: C_2  and  C_4
REMARK    4  A    between atoms: C_7  and  C_10
REMARK    5  A    between atoms: C_10  and  N_11
REMARK    6  A    between atoms: N_11  and  C_12
REMARK    7  A    between atoms: N_11  and  C_22
REMARK    8  A    between atoms: C_12  and  C_13
REMARK    9  A    between atoms: C_22  and  C_23
REMARK   10  A    between atoms: C_25  and  C_28
REMARK   11  A    between atoms: N_30  and  C_31
REMARK   12  A    between atoms: C_31  and  C_32
REMARK                            x       y       z     vdW  Elec       q    Type
REMARK                         _______ _______ _______ _____ _____    ______ ____
ROOT
ATOM      1  N   UNL     1       2.439  -0.795   5.612  0.00  0.00    +0.391 N 
ATOM      2  H   UNL     1       1.587  -0.425   6.006  0.00  0.00    -0.080 HD
ENDROOT
BRANCH   1   3
ATOM      3  C   UNL     1       2.111  -1.777   4.570  0.00  0.00    -0.042 C 
BRANCH   3   7
ATOM      4  C   UNL     1      -0.486  -4.758   6.186  0.00  0.00    -0.045 A 
ATOM      5  C   UNL     1      -1.008  -3.569   5.715  0.00  0.00    +0.004 A 
ATOM      6  C   UNL     1      -0.168  -2.604   5.192  0.00  0.00    +0.002 A 
ATOM      7  C   UNL     1       1.195  -2.828   5.141  0.00  0.00    -0.064 A 
ATOM      8  C   UNL     1       1.718  -4.018   5.613  0.00  0.00    +0.002 A 
ATOM      9  C   UNL     1       0.878  -4.981   6.139  0.00  0.00    +0.004 A 
BRANCH   4  11
ATOM     10  C   UNL     1      -2.222  -5.208   7.898  0.00  0.00    +0.012 C 
ATOM     11  C   UNL     1      -1.402  -5.811   6.756  0.00  0.00    +0.013 C 
ATOM     12  C   UNL     1      -2.345  -6.313   5.661  0.00  0.00    +0.012 C 
ENDBRANCH   4  11
ENDBRANCH   3   7
ENDBRANCH   1   3
BRANCH   1  13
ATOM     13  C   UNL     1       3.221   0.301   5.024  0.00  0.00    -0.042 C 
BRANCH  13  14
ATOM     14  C   UNL     1       2.372   1.048   4.029  0.00  0.00    -0.060 A 
ATOM     15  C   UNL     1       2.443   0.730   2.685  0.00  0.00    +0.005 A 
ATOM     16  C   UNL     1       1.665   1.412   1.768  0.00  0.00    +0.050 A 
ATOM     17  C   UNL     1       0.811   2.416   2.194  0.00  0.00    +0.166 A 
ATOM     18  C   UNL     1       0.739   2.736   3.548  0.00  0.00    +0.166 A 
ATOM     19  C   UNL     1       1.518   2.045   4.462  0.00  0.00    +0.051 A 
ATOM     20  O   UNL     1      -0.164   3.747   3.710  0.00  0.00    -0.453 OA
ATOM     21  C   UNL     1      -0.340   4.318   2.400  0.00  0.00    +0.466 C 
ATOM     22  O   UNL     1      -0.046   3.227   1.508  0.00  0.00    -0.453 OA
ENDBRANCH  13  14
ENDBRANCH   1  13
BRANCH   1  23
ATOM     23  C   UNL     1       3.225  -1.446   6.669  0.00  0.00    +0.020 C 
BRANCH  23  24
ATOM     24  C   UNL     1       3.456  -0.471   7.795  0.00  0.00    +0.179 A 
ATOM     25  N   UNL     1       2.679  -0.314   8.825  0.00  0.00    -0.210 NA
ATOM     26  C   UNL     1       3.212   0.649   9.624  0.00  0.00    +0.163 A 
ATOM     27  C   UNL     1       4.359   1.075   9.027  0.00  0.00    +0.230 A 
ATOM     28  O   UNL     1       4.498   0.365   7.896  0.00  0.00    -0.449 OA
BRANCH  26  29
ATOM     29  C   UNL     1       2.653   1.141  10.896  0.00  0.00    +0.266 C 
ATOM     30  O   UNL     1       3.230   2.012  11.519  0.00  0.00    -0.268 OA
ATOM     31  N   UNL     1       1.501   0.625  11.370  0.00  0.00    -0.303 N 
ATOM     32  H   UNL     1       1.041  -0.069  10.874  0.00  0.00    +0.150 HD
BRANCH  31  33
ATOM     33  C   UNL     1       0.945   1.113  12.634  0.00  0.00    +0.179 C 
BRANCH  33  34
ATOM     34  C   UNL     1      -0.336   0.380  12.936  0.00  0.00    +0.122 A 
ATOM     35  C   UNL     1      -0.442  -0.762  13.640  0.00  0.00    +0.046 A 
ATOM     36  C   UNL     1      -1.815  -1.094  13.678  0.00  0.00    +0.041 A 
ATOM     37  C   UNL     1      -2.467  -0.136  12.995  0.00  0.00    +0.195 A 
ATOM     38  O   UNL     1      -1.567   0.757  12.553  0.00  0.00    -0.466 OA
ENDBRANCH  33  34
ENDBRANCH  31  33
ENDBRANCH  26  29
ENDBRANCH  23  24
ENDBRANCH   1  23
TORSDOF 10
