REMARK  Name = ZINC23469406
REMARK  10 active torsions:
REMARK  status: ('A' for Active; 'I' for Inactive)
REMARK    1  A    between atoms: C_1  and  C_2
REMARK    2  A    between atoms: C_2  and  C_4
REMARK    3  A    between atoms: C_2  and  O_15
REMARK    4  A    between atoms: N_6  and  C_7
REMARK    5  A    between atoms: N_11  and  C_12
REMARK    6  A    between atoms: C_12  and  C_13
REMARK    7  A    between atoms: C_12  and  C_14
REMARK    8  A    between atoms: O_15  and  C_16
REMARK    9  A    between atoms: C_16  and  C_18
REMARK   10  A    between atoms: C_22  and  N_24
REMARK                            x       y       z     vdW  Elec       q    Type
REMARK                         _______ _______ _______ _____ _____    ______ ____
ROOT
ATOM      1  C   UNL     1      -0.019   1.526   0.010  0.00  0.00    +0.062 C 
ATOM      2  C   UNL     1       0.002  -0.004   0.002  0.00  0.00    +0.259 C 
ENDROOT
BRANCH   2   3
ATOM      3  C   UNL     1       0.707  -0.490  -1.238  0.00  0.00    +0.259 C 
ATOM      4  O   UNL     1       1.753  -1.097  -1.142  0.00  0.00    -0.271 OA
ATOM      5  N   UNL     1       0.176  -0.250  -2.453  0.00  0.00    -0.268 N 
ATOM      6  H   UNL     1      -0.660   0.235  -2.530  0.00  0.00    +0.156 HD
BRANCH   5   7
ATOM      7  C   UNL     1       0.829  -0.700  -3.601  0.00  0.00    +0.123 A 
ATOM      8  C   UNL     1       1.999  -1.395  -3.640  0.00  0.00    +0.065 A 
ATOM      9  C   UNL     1       2.301  -1.648  -4.981  0.00  0.00    +0.136 A 
ATOM     10  N   UNL     1       1.355  -1.129  -5.721  0.00  0.00    -0.178 NA
ATOM     11  N   UNL     1       0.412  -0.530  -4.876  0.00  0.00    -0.248 N 
BRANCH  11  12
ATOM     12  C   UNL     1      -0.809   0.161  -5.299  0.00  0.00    +0.103 C 
ATOM     13  C   UNL     1      -0.440   1.342  -6.199  0.00  0.00    +0.032 C 
ATOM     14  C   UNL     1      -1.703  -0.810  -6.072  0.00  0.00    +0.032 C 
ENDBRANCH  11  12
ENDBRANCH   5   7
ENDBRANCH   2   3
BRANCH   2  15
ATOM     15  O   UNL     1       0.693  -0.477   1.160  0.00  0.00    -0.449 OA
BRANCH  15  16
ATOM     16  C   UNL     1      -0.045  -0.697   2.265  0.00  0.00    +0.340 C 
ATOM     17  O   UNL     1      -1.242  -0.493   2.247  0.00  0.00    -0.245 OA
BRANCH  16  18
ATOM     18  C   UNL     1       0.602  -1.187   3.499  0.00  0.00    +0.061 A 
ATOM     19  C   UNL     1       1.980  -1.418   3.525  0.00  0.00    +0.016 A 
ATOM     20  C   UNL     1       2.577  -1.874   4.681  0.00  0.00    +0.018 A 
ATOM     21  C   UNL     1       1.815  -2.105   5.814  0.00  0.00    +0.048 A 
ATOM     22  C   UNL     1       0.449  -1.878   5.795  0.00  0.00    +0.141 A 
ATOM     23  C   UNL     1      -0.160  -1.416   4.647  0.00  0.00    +0.048 A 
ATOM     24 BR   UNL     1       2.643  -2.732   7.394  0.00  0.00    -0.048 Br
BRANCH  22  25
ATOM     25  N   UNL     1      -0.358  -2.128   7.010  0.00  0.00    +0.058 N 
ATOM     26  O   UNL     1      -1.551  -1.931   6.994  0.00  0.00    -0.126 OA
ATOM     27  O   UNL     1       0.175  -2.529   8.018  0.00  0.00    -0.126 OA
ENDBRANCH  22  25
ENDBRANCH  16  18
ENDBRANCH  15  16
ENDBRANCH   2  15
TORSDOF 7
