REMARK  Name = ZINC51318333
REMARK  9 active torsions:
REMARK  status: ('A' for Active; 'I' for Inactive)
REMARK    1  A    between atoms: C_1  and  C_2
REMARK    2  A    between atoms: C_5  and  C_8
REMARK    3  A    between atoms: C_10  and  C_32
REMARK    4  A    between atoms: C_11  and  C_16
REMARK    5  A    between atoms: C_16  and  N_17
REMARK    6  A    between atoms: C_20  and  C_23
REMARK    7  A    between atoms: C_20  and  N_26
REMARK    8  A    between atoms: C_32  and  O_34
REMARK    9  A    between atoms: O_34  and  C_35
REMARK                            x       y       z     vdW  Elec       q    Type
REMARK                         _______ _______ _______ _____ _____    ______ ____
ROOT
ATOM      1  C   UNL     1       1.430  -5.749  -1.970  0.00  0.00    +0.144 C 
ATOM      2  C   UNL     1      -0.030  -5.788  -1.567  0.00  0.00    +0.079 C 
ATOM      3  C   UNL     1      -0.324  -6.164  -0.304  0.00  0.00    +0.038 C 
ATOM      4  N   UNL     1       0.663  -6.497   0.580  0.00  0.00    -0.271 N 
ATOM      5  C   UNL     1       1.967  -6.480   0.277  0.00  0.00    +0.304 C 
ATOM      6  O   UNL     1       2.773  -6.793   1.131  0.00  0.00    -0.252 OA
ATOM      7  N   UNL     1       2.415  -6.126  -0.943  0.00  0.00    -0.288 N 
ATOM      8  H   UNL     1       0.405  -6.760   1.477  0.00  0.00    +0.156 HD
ATOM      9  H   UNL     1       3.365  -6.121  -1.141  0.00  0.00    +0.151 HD
ENDROOT
BRANCH   1  14
ATOM     10  C   UNL     1       2.647  -0.379  -3.724  0.00  0.00    +0.044 C 
ATOM     11  C   UNL     1       2.330  -1.780  -3.267  0.00  0.00    -0.050 A 
ATOM     12  C   UNL     1       2.011  -2.754  -4.194  0.00  0.00    +0.004 A 
ATOM     13  C   UNL     1       1.720  -4.039  -3.775  0.00  0.00    +0.006 A 
ATOM     14  C   UNL     1       1.748  -4.349  -2.428  0.00  0.00    -0.022 A 
ATOM     15  C   UNL     1       2.067  -3.375  -1.501  0.00  0.00    +0.006 A 
ATOM     16  C   UNL     1       2.363  -2.091  -1.921  0.00  0.00    +0.004 A 
ENDBRANCH   1  14
BRANCH   2  17
ATOM     17  C   UNL     1      -1.051  -5.443  -2.483  0.00  0.00    +0.339 C 
ATOM     18  O   UNL     1      -1.377  -6.226  -3.356  0.00  0.00    -0.245 OA
BRANCH  17  19
ATOM     19  O   UNL     1      -1.665  -4.244  -2.389  0.00  0.00    -0.465 OA
ATOM     20  C   UNL     1      -2.687  -3.962  -3.347  0.00  0.00    +0.280 C 
ENDBRANCH  17  19
ENDBRANCH   2  17
BRANCH   3  21
ATOM     21  C   UNL     1      -1.763  -6.216   0.139  0.00  0.00    +0.135 C 
BRANCH  21  22
ATOM     22  N   UNL     1      -2.131  -7.604   0.447  0.00  0.00    -0.297 NA
ATOM     23  C   UNL     1      -2.102  -8.437  -0.763  0.00  0.00    +0.084 C 
ATOM     24  C   UNL     1      -2.346  -9.899  -0.384  0.00  0.00    +0.013 C 
ATOM     25  C   UNL     1      -3.706 -10.021   0.309  0.00  0.00    +0.015 C 
ATOM     26  C   UNL     1      -3.728  -9.107   1.538  0.00  0.00    +0.013 C 
ATOM     27  C   UNL     1      -3.443  -7.668   1.103  0.00  0.00    +0.084 C 
BRANCH  25  28
ATOM     28  N   UNL     1      -3.921 -11.412   0.728  0.00  0.00    +0.389 N 
ATOM     29  C   UNL     1      -3.908 -12.284  -0.452  0.00  0.00    -0.077 C 
ATOM     30  C   UNL     1      -4.050 -13.744  -0.015  0.00  0.00    -0.019 C 
ATOM     31  C   UNL     1      -5.373 -13.919   0.737  0.00  0.00    -0.004 C 
ATOM     32  C   UNL     1      -5.407 -12.951   1.923  0.00  0.00    -0.019 C 
ATOM     33  C   UNL     1      -5.215 -11.521   1.413  0.00  0.00    -0.077 C 
ATOM     34  H   UNL     1      -3.183 -11.691   1.358  0.00  0.00    -0.080 HD
ENDBRANCH  25  28
BRANCH  25  35
ATOM     35  C   UNL     1      -4.797  -9.606  -0.645  0.00  0.00    +0.200 C 
ATOM     36  O   UNL     1      -4.558  -9.500  -1.829  0.00  0.00    -0.278 OA
ATOM     37  N   UNL     1      -6.037  -9.354  -0.182  0.00  0.00    -0.330 N 
ATOM     38  H   UNL     1      -6.211  -9.367   0.772  0.00  0.00    +0.145 HD
ATOM     39  H   UNL     1      -6.756  -9.160  -0.804  0.00  0.00    +0.145 HD
ENDBRANCH  25  35
ENDBRANCH  21  22
ENDBRANCH   3  21
TORSDOF 7
