REMARK  Name = ZINC36050666
REMARK  11 active torsions:
REMARK  status: ('A' for Active; 'I' for Inactive)
REMARK    1  A    between atoms: C_1  and  C_2
REMARK    2  A    between atoms: C_7  and  C_8
REMARK    3  A    between atoms: C_10  and  C_31
REMARK    4  A    between atoms: C_11  and  C_30
REMARK    5  A    between atoms: C_15  and  C_18
REMARK    6  A    between atoms: C_19  and  N_21
REMARK    7  A    between atoms: N_21  and  C_22
REMARK    8  A    between atoms: C_22  and  C_23
REMARK    9  A    between atoms: C_23  and  N_24
REMARK   10  A    between atoms: C_31  and  O_33
REMARK   11  A    between atoms: O_33  and  C_34
REMARK                            x       y       z     vdW  Elec       q    Type
REMARK                         _______ _______ _______ _____ _____    ______ ____
ROOT
ATOM      1  C   UNL     1       0.297   0.235   2.472  0.00  0.00    +0.150 C 
ATOM      2  C   UNL     1       1.674   0.837   2.635  0.00  0.00    +0.082 C 
ATOM      3  C   UNL     1       2.417   0.459   3.737  0.00  0.00    +0.053 C 
ATOM      4  N   UNL     1       1.925  -0.403   4.612  0.00  0.00    -0.230 NA
ATOM      5  C   UNL     1       0.736  -0.963   4.530  0.00  0.00    +0.166 C 
ATOM      6  N   UNL     1      -0.151  -0.723   3.518  0.00  0.00    -0.267 N 
ATOM      7  C   UNL     1      -1.358  -1.389   3.573  0.00  0.00    +0.048 C 
ATOM      8  C   UNL     1      -1.568  -2.222   4.617  0.00  0.00    +0.072 C 
ATOM      9  S   UNL     1      -0.047  -2.061   5.528  0.00  0.00    -0.060 S 
ATOM     10  C   UNL     1       3.795   1.032   3.943  0.00  0.00    +0.066 C 
ENDROOT
BRANCH   1  17
ATOM     11  C   UNL     1      -1.228   1.346   0.284  0.00  0.00    +0.044 C 
ATOM     12  C   UNL     1      -0.474   0.055   0.097  0.00  0.00    -0.045 A 
ATOM     13  C   UNL     1      -0.507  -0.595  -1.123  0.00  0.00    +0.004 A 
ATOM     14  C   UNL     1       0.184  -1.779  -1.294  0.00  0.00    +0.000 A 
ATOM     15  C   UNL     1       0.909  -2.314  -0.245  0.00  0.00    +0.000 A 
ATOM     16  C   UNL     1       0.944  -1.664   0.974  0.00  0.00    +0.006 A 
ATOM     17  C   UNL     1       0.255  -0.477   1.144  0.00  0.00    -0.019 A 
ENDBRANCH   1  17
BRANCH   7  18
ATOM     18  C   UNL     1      -2.380  -1.200   2.534  0.00  0.00    +0.091 C 
ATOM     19  C   UNL     1      -3.591  -1.774   2.667  0.00  0.00    +0.239 C 
ATOM     20  O   UNL     1      -3.906  -2.434   3.808  0.00  0.00    -0.271 OA
BRANCH  19  21
ATOM     21  N   UNL     1      -4.515  -1.689   1.639  0.00  0.00    -0.311 N 
ATOM     22  H   UNL     1      -4.290  -1.217   0.823  0.00  0.00    +0.149 HD
BRANCH  21  23
ATOM     23  C   UNL     1      -5.832  -2.314   1.784  0.00  0.00    +0.120 C 
BRANCH  23  24
ATOM     24  C   UNL     1      -6.653  -2.075   0.515  0.00  0.00    +0.103 C 
BRANCH  24  25
ATOM     25  N   UNL     1      -7.973  -2.701   0.661  0.00  0.00    -0.297 NA
ATOM     26  C   UNL     1      -8.760  -2.034   1.709  0.00  0.00    +0.112 C 
ATOM     27  C   UNL     1     -10.102  -2.754   1.868  0.00  0.00    +0.175 C 
ATOM     28  O   UNL     1     -10.780  -2.771   0.610  0.00  0.00    -0.377 OA
ATOM     29  C   UNL     1     -10.043  -3.413  -0.434  0.00  0.00    +0.175 C 
ATOM     30  C   UNL     1      -8.701  -2.700  -0.617  0.00  0.00    +0.112 C 
ENDBRANCH  24  25
ENDBRANCH  23  24
ENDBRANCH  21  23
ENDBRANCH  19  21
ENDBRANCH   7  18
BRANCH   2  31
ATOM     31  C   UNL     1       2.181   1.747   1.699  0.00  0.00    +0.339 C 
ATOM     32  O   UNL     1       3.326   2.153   1.802  0.00  0.00    -0.245 OA
BRANCH  31  33
ATOM     33  O   UNL     1       1.401   2.175   0.682  0.00  0.00    -0.465 OA
ATOM     34  C   UNL     1       2.015   3.016  -0.297  0.00  0.00    +0.280 C 
ENDBRANCH  31  33
ENDBRANCH   2  31
TORSDOF 8
