REMARK  Name = ZINC02311104
REMARK  8 active torsions:
REMARK  status: ('A' for Active; 'I' for Inactive)
REMARK    1  A    between atoms: C_1  and  C_2
REMARK    2  A    between atoms: C_7  and  C_9
REMARK    3  A    between atoms: C_7  and  C_10
REMARK    4  A    between atoms: C_7  and  N_50
REMARK    5  A    between atoms: N_12  and  C_13
REMARK    6  A    between atoms: C_22  and  C_23
REMARK    7  A    between atoms: C_23  and  O_25
REMARK    8  A    between atoms: O_25  and  C_26
REMARK                            x       y       z     vdW  Elec       q    Type
REMARK                         _______ _______ _______ _____ _____    ______ ____
ROOT
ATOM      1  C   UNL     1      -1.517   1.310  -5.904  0.00  0.00    +0.073 A 
ATOM      2  C   UNL     1      -2.377   2.494  -5.958  0.00  0.00    +0.023 A 
ATOM      3  C   UNL     1      -2.886   3.360  -4.985  0.00  0.00    +0.027 A 
ATOM      4  C   UNL     1      -3.677   4.410  -5.356  0.00  0.00    +0.019 A 
ATOM      5  C   UNL     1      -3.975   4.628  -6.696  0.00  0.00    +0.017 A 
ATOM      6  C   UNL     1      -3.481   3.793  -7.671  0.00  0.00    +0.027 A 
ATOM      7  C   UNL     1      -2.672   2.715  -7.317  0.00  0.00    +0.049 A 
ATOM      8  N   UNL     1      -2.048   1.733  -8.051  0.00  0.00    -0.348 N 
ATOM      9  H   UNL     1      -2.090   1.648  -9.016  0.00  0.00    +0.166 HD
ATOM     10  C   UNL     1      -1.350   0.883  -7.206  0.00  0.00    +0.147 A 
ATOM     11 BR   UNL     1      -4.370   5.575  -4.038  0.00  0.00    -0.050 Br
ENDROOT
BRANCH   1  14
ATOM     12  C   UNL     1      -1.622   0.832  -3.583  0.00  0.00    +0.203 C 
ATOM     13  O   UNL     1      -2.708   1.368  -3.532  0.00  0.00    -0.277 OA
ATOM     14  N   UNL     1      -0.978   0.725  -4.763  0.00  0.00    -0.284 N 
ATOM     15  H   UNL     1      -0.139   0.241  -4.816  0.00  0.00    +0.155 HD
BRANCH  12  16
ATOM     16  C   UNL     1      -0.991   0.285  -2.329  0.00  0.00    +0.016 C 
ATOM     17  C   UNL     1      -1.134  -1.238  -2.309  0.00  0.00    -0.004 C 
BRANCH  16  24
ATOM     18  C   UNL     1      -3.562   1.619   2.599  0.00  0.00    +0.007 C 
ATOM     19  C   UNL     1      -2.865   0.854   1.472  0.00  0.00    -0.018 C 
ATOM     20  C   UNL     1      -3.706   0.945   0.195  0.00  0.00    -0.015 C 
ATOM     21  C   UNL     1      -2.975   0.230  -0.943  0.00  0.00    -0.078 C 
ATOM     22  C   UNL     1      -0.821   0.738   0.043  0.00  0.00    -0.078 C 
ATOM     23  C   UNL     1      -1.488   1.468   1.211  0.00  0.00    -0.015 C 
ATOM     24  N   UNL     1      -1.668   0.884  -1.160  0.00  0.00    +0.387 N 
ATOM     25  H   UNL     1      -1.821   1.883  -1.340  0.00  0.00    -0.081 HD
ENDBRANCH  16  24
ENDBRANCH  12  16
ENDBRANCH   1  14
BRANCH  10  26
ATOM     26  C   UNL     1      -0.589  -0.242  -7.613  0.00  0.00    +0.357 C 
ATOM     27  O   UNL     1       0.037  -0.883  -6.790  0.00  0.00    -0.243 OA
BRANCH  26  28
ATOM     28  O   UNL     1      -0.559  -0.601  -8.914  0.00  0.00    -0.463 OA
ATOM     29  C   UNL     1       0.228  -1.745  -9.253  0.00  0.00    +0.280 C 
ENDBRANCH  26  28
ENDBRANCH  10  26
TORSDOF 5
