REMARK  Name = ZINC12593342
REMARK  8 active torsions:
REMARK  status: ('A' for Active; 'I' for Inactive)
REMARK    1  A    between atoms: C_1  and  C_2
REMARK    2  A    between atoms: C_4  and  C_14
REMARK    3  A    between atoms: C_5  and  C_13
REMARK    4  A    between atoms: C_14  and  C_16
REMARK    5  A    between atoms: C_16  and  S_17
REMARK    6  A    between atoms: S_17  and  C_18
REMARK    7  A    between atoms: C_21  and  C_29
REMARK    8  A    between atoms: N_22  and  C_23
REMARK                            x       y       z     vdW  Elec       q    Type
REMARK                         _______ _______ _______ _____ _____    ______ ____
ROOT
ATOM      1  S   UNL     1      -1.631  -0.525   3.712  0.00  0.00    -0.078 S 
ENDROOT
BRANCH   1   2
ATOM      2  C   UNL     1      -1.641  -1.804   2.500  0.00  0.00    +0.193 A 
ATOM      3  N   UNL     1      -2.701  -2.417   2.022  0.00  0.00    -0.122 NA
ATOM      4  N   UNL     1      -2.351  -3.296   1.153  0.00  0.00    -0.125 NA
ATOM      5  C   UNL     1      -1.043  -3.296   1.018  0.00  0.00    +0.201 A 
ATOM      6  N   UNL     1      -0.548  -2.343   1.881  0.00  0.00    -0.297 N 
BRANCH   6   7
ATOM      7  C   UNL     1       0.856  -1.979   2.089  0.00  0.00    +0.091 C 
ATOM      8  C   UNL     1       1.056  -0.502   1.745  0.00  0.00    +0.025 C 
ATOM      9  C   UNL     1       2.522  -0.122   1.961  0.00  0.00    +0.002 C 
ATOM     10  C   UNL     1       2.900  -0.361   3.425  0.00  0.00    +0.000 C 
ATOM     11  C   UNL     1       2.699  -1.838   3.769  0.00  0.00    +0.002 C 
ATOM     12  C   UNL     1       1.233  -2.218   3.552  0.00  0.00    +0.025 C 
ENDBRANCH   6   7
BRANCH   5  13
ATOM     13  C   UNL     1      -0.256  -4.153   0.117  0.00  0.00    +0.172 A 
ATOM     14  C   UNL     1      -0.705  -5.274  -0.515  0.00  0.00    +0.053 A 
ATOM     15  C   UNL     1       0.375  -5.773  -1.269  0.00  0.00    +0.042 A 
ATOM     16  C   UNL     1       1.418  -4.944  -1.064  0.00  0.00    +0.196 A 
ATOM     17  O   UNL     1       1.032  -3.964  -0.231  0.00  0.00    -0.460 OA
ENDBRANCH   5  13
ENDBRANCH   1   2
BRANCH   1  18
ATOM     18  C   UNL     1      -3.408  -0.377   4.027  0.00  0.00    +0.157 C 
BRANCH  18  19
ATOM     19  C   UNL     1      -3.646   0.691   5.063  0.00  0.00    +0.175 C 
ATOM     20  O   UNL     1      -2.708   1.292   5.542  0.00  0.00    -0.291 OA
BRANCH  19  24
ATOM     21  C   UNL     1      -8.721   0.652   5.522  0.00  0.00    +0.064 C 
ATOM     22  C   UNL     1      -7.257   0.971   5.682  0.00  0.00    +0.024 A 
ATOM     23  C   UNL     1      -6.253   0.380   5.014  0.00  0.00    +0.034 A 
ATOM     24  C   UNL     1      -5.011   1.002   5.492  0.00  0.00    +0.039 A 
ATOM     25  C   UNL     1      -5.395   1.947   6.426  0.00  0.00    +0.034 A 
ATOM     26  N   UNL     1      -6.739   1.915   6.527  0.00  0.00    -0.287 N 
ATOM     27  C   UNL     1      -7.494   2.727   7.371  0.00  0.00    +0.234 A 
ATOM     28  N   UNL     1      -7.030   3.767   8.122  0.00  0.00    -0.314 N 
ATOM     29  H   UNL     1      -6.116   4.088   8.177  0.00  0.00    +0.170 HD
ATOM     30  C   UNL     1      -8.117   4.263   8.781  0.00  0.00    +0.223 A 
ATOM     31  N   UNL     1      -9.146   3.545   8.425  0.00  0.00    -0.136 NA
ATOM     32  N   UNL     1      -8.783   2.640   7.588  0.00  0.00    -0.111 NA
ATOM     33  C   UNL     1      -4.472   2.855   7.197  0.00  0.00    +0.065 C 
ENDBRANCH  19  24
ENDBRANCH  18  19
ENDBRANCH   1  18
TORSDOF 6
