REMARK  Name = ZINC00298901
REMARK  6 active torsions:
REMARK  status: ('A' for Active; 'I' for Inactive)
REMARK    1  A    between atoms: C_1  and  C_2
REMARK    2  A    between atoms: C_6  and  N_9
REMARK    3  A    between atoms: C_7  and  C_8
REMARK    4  A    between atoms: N_9  and  S_10
REMARK    5  A    between atoms: S_10  and  C_13
REMARK    6  A    between atoms: C_16  and  N_19
REMARK                            x       y       z     vdW  Elec       q    Type
REMARK                         _______ _______ _______ _____ _____    ______ ____
ROOT
ATOM      1  S   UNL     1      -1.610   2.331  -0.003  0.00  0.00    +0.072 S 
ATOM      2  O   UNL     1      -1.430   3.653  -0.493  0.00  0.00    -0.150 OA
ATOM      3  O   UNL     1      -2.563   1.435  -0.559  0.00  0.00    -0.150 OA
ENDROOT
BRANCH   1   4
ATOM      4  C   UNL     1      -0.043   1.534  -0.116  0.00  0.00    +0.109 A 
ATOM      5  C   UNL     1       1.116   2.287  -0.135  0.00  0.00    +0.031 A 
ATOM      6  C   UNL     1       2.345   1.662  -0.231  0.00  0.00    +0.034 A 
ATOM      7  C   UNL     1       2.416   0.284  -0.307  0.00  0.00    +0.126 A 
ATOM      8  C   UNL     1       1.257  -0.470  -0.287  0.00  0.00    +0.034 A 
ATOM      9  C   UNL     1       0.027   0.155  -0.193  0.00  0.00    +0.031 A 
BRANCH   7  10
ATOM     10  N   UNL     1       3.732  -0.386  -0.408  0.00  0.00    +0.056 N 
ATOM     11  O   UNL     1       3.794  -1.600  -0.475  0.00  0.00    -0.126 OA
ATOM     12  O   UNL     1       4.753   0.278  -0.425  0.00  0.00    -0.126 OA
ENDBRANCH   7  10
ENDBRANCH   1   4
BRANCH   1  13
ATOM     13  N   UNL     1      -1.974   2.469   1.607  0.00  0.00    -0.216 N 
ATOM     14  H   UNL     1      -2.770   2.043   1.962  0.00  0.00    +0.174 HD
BRANCH  13  20
ATOM     15  C   UNL     1       0.112   3.052   6.018  0.00  0.00    +0.044 C 
ATOM     16  C   UNL     1      -0.105   3.503   4.597  0.00  0.00    -0.046 A 
ATOM     17  C   UNL     1       0.528   4.640   4.129  0.00  0.00    +0.004 A 
ATOM     18  C   UNL     1       0.332   5.058   2.825  0.00  0.00    +0.002 A 
ATOM     19  C   UNL     1      -0.498   4.340   1.986  0.00  0.00    +0.025 A 
ATOM     20  C   UNL     1      -1.135   3.197   2.453  0.00  0.00    +0.051 A 
ATOM     21  C   UNL     1      -0.940   2.784   3.765  0.00  0.00    -0.025 A 
ATOM     22  C   UNL     1      -1.634   1.548   4.277  0.00  0.00    +0.046 C 
ENDBRANCH  13  20
ENDBRANCH   1  13
TORSDOF 4
