REMARK  Name = ZINC36273979
REMARK  4 active torsions:
REMARK  status: ('A' for Active; 'I' for Inactive)
REMARK    1  A    between atoms: C_3  and  N_24
REMARK    2  A    between atoms: C_6  and  C_7
REMARK    3  A    between atoms: C_8  and  C_17
REMARK    4  A    between atoms: C_17  and  N_18
REMARK                            x       y       z     vdW  Elec       q    Type
REMARK                         _______ _______ _______ _____ _____    ______ ____
ROOT
ATOM      1  C   UNL     1      -1.212  -0.908   0.179  0.00  0.00    +0.094 A 
ATOM      2  C   UNL     1      -1.527  -1.901  -0.699  0.00  0.00    +0.065 A 
ATOM      3  N   UNL     1      -2.868  -2.135  -0.576  0.00  0.00    -0.299 N 
ATOM      4  C   UNL     1      -3.711  -3.009  -1.202  0.00  0.00    +0.131 A 
ATOM      5  C   UNL     1      -5.025  -3.040  -0.890  0.00  0.00    +0.140 A 
ATOM      6  C   UNL     1      -5.542  -2.170   0.086  0.00  0.00    +0.043 A 
ATOM      7  C   UNL     1      -4.713  -1.295   0.716  0.00  0.00    +0.049 A 
ATOM      8  C   UNL     1      -3.344  -1.275   0.380  0.00  0.00    +0.139 A 
ATOM      9  N   UNL     1      -2.330  -0.547   0.827  0.00  0.00    -0.227 NA
ATOM     10  F   UNL     1      -5.846  -3.910  -1.518  0.00  0.00    -0.204 F 
ENDROOT
BRANCH   1  16
ATOM     11  C   UNL     1       0.297   1.049   0.516  0.00  0.00    +0.012 A 
ATOM     12  C   UNL     1       1.555   1.582   0.711  0.00  0.00    +0.033 A 
ATOM     13  C   UNL     1       2.658   0.751   0.779  0.00  0.00    +0.126 A 
ATOM     14  C   UNL     1       2.507  -0.619   0.653  0.00  0.00    +0.033 A 
ATOM     15  C   UNL     1       1.254  -1.162   0.459  0.00  0.00    +0.012 A 
ATOM     16  C   UNL     1       0.139  -0.329   0.389  0.00  0.00    +0.002 A 
BRANCH  13  17
ATOM     17  N   UNL     1       4.005   1.328   0.987  0.00  0.00    +0.056 N 
ATOM     18  O   UNL     1       4.139   2.525   1.097  0.00  0.00    -0.126 OA
ATOM     19  O   UNL     1       4.971   0.603   1.048  0.00  0.00    -0.126 OA
ENDBRANCH  13  17
ENDBRANCH   1  16
BRANCH   2  20
ATOM     20  C   UNL     1      -0.576  -2.608  -1.630  0.00  0.00    +0.140 C 
BRANCH  20  21
ATOM     21  N   UNL     1      -0.647  -1.992  -2.962  0.00  0.00    -0.300 NA
ATOM     22  C   UNL     1      -0.138  -0.614  -2.932  0.00  0.00    +0.066 C 
ATOM     23  C   UNL     1      -0.284   0.011  -4.322  0.00  0.00    -0.067 C 
ATOM     24  N   UNL     1       0.470  -0.787  -5.298  0.00  0.00    +0.381 N 
ATOM     25  C   UNL     1      -0.066  -2.154  -5.334  0.00  0.00    -0.067 C 
ATOM     26  C   UNL     1       0.082  -2.796  -3.953  0.00  0.00    +0.066 C 
ATOM     27  H   UNL     1       0.384  -0.368  -6.212  0.00  0.00    -0.086 HD
ATOM     28  H   UNL     1       1.442  -0.814  -5.031  0.00  0.00    -0.086 HD
ENDBRANCH  20  21
ENDBRANCH   2  20
TORSDOF 4
