REMARK  Name = ZINC62521881
REMARK  8 active torsions:
REMARK  status: ('A' for Active; 'I' for Inactive)
REMARK    1  A    between atoms: C_1  and  C_2
REMARK    2  A    between atoms: C_2  and  C_3
REMARK    3  A    between atoms: C_2  and  N_12
REMARK    4  A    between atoms: N_5  and  C_6
REMARK    5  A    between atoms: C_6  and  C_7
REMARK    6  A    between atoms: N_15  and  C_16
REMARK    7  A    between atoms: C_16  and  C_17
REMARK    8  A    between atoms: C_17  and  N_23
REMARK                            x       y       z     vdW  Elec       q    Type
REMARK                         _______ _______ _______ _____ _____    ______ ____
ROOT
ATOM      1  N   UNL     1      -1.494  -2.946   4.654  0.00  0.00    -0.288 N 
ATOM      2  C   UNL     1      -2.100  -2.054   3.846  0.00  0.00    +0.300 C 
ATOM      3  O   UNL     1      -1.514  -1.043   3.508  0.00  0.00    -0.253 OA
ATOM      4  N   UNL     1      -3.355  -2.283   3.411  0.00  0.00    -0.301 N 
ATOM      5  H   UNL     1      -1.961  -3.752   4.924  0.00  0.00    +0.151 HD
ATOM      6  H   UNL     1      -3.822  -3.089   3.681  0.00  0.00    +0.150 HD
ENDROOT
BRANCH   1   8
ATOM      7  C   UNL     1       0.871  -3.190   4.078  0.00  0.00    +0.038 C 
ATOM      8  C   UNL     1      -0.129  -2.698   5.127  0.00  0.00    +0.157 C 
BRANCH   8   9
ATOM      9  C   UNL     1       0.096  -3.436   6.421  0.00  0.00    +0.233 C 
ATOM     10  O   UNL     1      -0.795  -4.103   6.902  0.00  0.00    -0.274 OA
ATOM     11  N   UNL     1       1.288  -3.354   7.044  0.00  0.00    -0.307 N 
ATOM     12  H   UNL     1       2.001  -2.820   6.660  0.00  0.00    +0.149 HD
BRANCH  11  13
ATOM     13  C   UNL     1       1.508  -4.071   8.303  0.00  0.00    +0.178 C 
BRANCH  13  14
ATOM     14  C   UNL     1       2.911  -3.816   8.789  0.00  0.00    +0.122 A 
ATOM     15  C   UNL     1       3.292  -2.816   9.604  0.00  0.00    +0.046 A 
ATOM     16  C   UNL     1       4.685  -2.954   9.798  0.00  0.00    +0.041 A 
ATOM     17  C   UNL     1       5.073  -4.030   9.091  0.00  0.00    +0.195 A 
ATOM     18  O   UNL     1       3.993  -4.552   8.486  0.00  0.00    -0.466 OA
ENDBRANCH  13  14
ENDBRANCH  11  13
ENDBRANCH   8   9
ENDBRANCH   1   8
BRANCH   4  19
ATOM     19  C   UNL     1      -4.014  -1.313   2.533  0.00  0.00    +0.094 C 
BRANCH  19  20
ATOM     20  C   UNL     1      -5.367  -1.868   2.085  0.00  0.00    -0.050 C 
ATOM     21  C   UNL     1      -6.292  -1.998   3.297  0.00  0.00    -0.010 C 
ATOM     22  C   UNL     1      -6.491  -0.623   3.937  0.00  0.00    -0.001 C 
ATOM     23  C   UNL     1      -7.119   0.328   2.916  0.00  0.00    -0.000 C 
ATOM     24  C   UNL     1      -6.195   0.458   1.704  0.00  0.00    -0.001 C 
ATOM     25  C   UNL     1      -5.996  -0.917   1.064  0.00  0.00    -0.010 C 
BRANCH  20  26
ATOM     26  N   UNL     1      -5.176  -3.189   1.470  0.00  0.00    +0.384 N 
ATOM     27  C   UNL     1      -6.471  -3.705   1.010  0.00  0.00    -0.078 C 
ATOM     28  C   UNL     1      -6.290  -5.114   0.443  0.00  0.00    -0.019 C 
ATOM     29  C   UNL     1      -5.312  -5.064  -0.734  0.00  0.00    -0.004 C 
ATOM     30  C   UNL     1      -3.989  -4.455  -0.259  0.00  0.00    -0.019 C 
ATOM     31  C   UNL     1      -4.255  -3.069   0.334  0.00  0.00    -0.078 C 
ATOM     32  H   UNL     1      -4.787  -3.822   2.152  0.00  0.00    -0.081 HD
ENDBRANCH  20  26
ENDBRANCH  19  20
ENDBRANCH   4  19
TORSDOF 7
