REMARK  Name = ZINC10985244
REMARK  8 active torsions:
REMARK  status: ('A' for Active; 'I' for Inactive)
REMARK    1  A    between atoms: C_1  and  C_2
REMARK    2  A    between atoms: C_9  and  C_14
REMARK    3  A    between atoms: C_14  and  O_16
REMARK    4  A    between atoms: O_16  and  C_17
REMARK    5  A    between atoms: C_17  and  C_18
REMARK    6  A    between atoms: N_20  and  C_21
REMARK    7  A    between atoms: C_24  and  C_30
REMARK    8  A    between atoms: C_26  and  N_27
REMARK                            x       y       z     vdW  Elec       q    Type
REMARK                         _______ _______ _______ _____ _____    ______ ____
ROOT
ATOM      1  C   UNL     1      -2.628   4.098   0.048  0.00  0.00    +0.328 C 
ENDROOT
BRANCH   1   2
ATOM      2  C   UNL     1      -2.452   5.595   0.042  0.00  0.00    +0.255 C 
ATOM      3  O   UNL     1      -1.339   6.075   0.025  0.00  0.00    -0.272 OA
ATOM      4  N   UNL     1      -3.533   6.400   0.056  0.00  0.00    -0.281 N 
ATOM      5  H   UNL     1      -4.423   6.020  -0.012  0.00  0.00    +0.155 HD
BRANCH   4   6
ATOM      6  C   UNL     1      -3.372   7.786   0.167  0.00  0.00    +0.064 A 
ATOM      7  C   UNL     1      -2.235   8.308   0.771  0.00  0.00    +0.026 A 
ATOM      8  C   UNL     1      -2.078   9.676   0.878  0.00  0.00    +0.014 A 
ATOM      9  C   UNL     1      -3.052  10.525   0.386  0.00  0.00    +0.057 A 
ATOM     10  C   UNL     1      -4.185  10.009  -0.215  0.00  0.00    +0.047 A 
ATOM     11  C   UNL     1      -4.345   8.642  -0.331  0.00  0.00    +0.148 A 
BRANCH   9  12
ATOM     12  C   UNL     1      -2.878  12.018   0.505  0.00  0.00    +0.417 C 
ATOM     13  F   UNL     1      -1.665  12.296   1.143  0.00  0.00    -0.166 F 
ATOM     14  F   UNL     1      -2.875  12.590  -0.771  0.00  0.00    -0.166 F 
ATOM     15  F   UNL     1      -3.932  12.552   1.254  0.00  0.00    -0.166 F 
ENDBRANCH   9  12
BRANCH  11  16
ATOM     16  N   UNL     1      -5.555   8.090  -0.980  0.00  0.00    +0.058 N 
ATOM     17  O   UNL     1      -6.365   8.839  -1.496  0.00  0.00    -0.126 OA
ATOM     18  O   UNL     1      -5.741   6.886  -0.998  0.00  0.00    -0.126 OA
ENDBRANCH  11  16
ENDBRANCH   4   6
ENDBRANCH   1   2
BRANCH   1  19
ATOM     19  O   UNL     1      -1.325   3.458   0.031  0.00  0.00    -0.452 OA
BRANCH  19  20
ATOM     20  C   UNL     1      -1.305   2.111   0.034  0.00  0.00    +0.340 C 
ATOM     21  O   UNL     1      -2.348   1.488   0.051  0.00  0.00    -0.245 OA
BRANCH  20  29
ATOM     22  C   UNL     1       4.623  -3.396   0.593  0.00  0.00    +0.029 C 
ATOM     23  C   UNL     1       3.539  -2.349   0.857  0.00  0.00    +0.134 C 
ATOM     24  C   UNL     1       2.212  -2.865   0.372  0.00  0.00    +0.230 C 
ATOM     25  O   UNL     1       2.048  -4.065   0.320  0.00  0.00    -0.274 OA
ATOM     26  N   UNL     1       1.208  -2.077  -0.001  0.00  0.00    -0.284 N 
ATOM     27  C   UNL     1       1.208  -0.684   0.000  0.00  0.00    +0.048 A 
ATOM     28  C   UNL     1       0.000  -0.004   0.021  0.00  0.00    +0.039 A 
ATOM     29  C   UNL     1      -0.018   1.393   0.017  0.00  0.00    +0.061 A 
ATOM     30  C   UNL     1       1.181   2.111  -0.008  0.00  0.00    +0.016 A 
ATOM     31  C   UNL     1       2.382   1.436  -0.028  0.00  0.00    +0.017 A 
ATOM     32  C   UNL     1       2.400   0.048  -0.022  0.00  0.00    +0.030 A 
ATOM     33  S   UNL     1       3.938  -0.820  -0.042  0.00  0.00    -0.111 S 
ATOM     34  H   UNL     1       0.397  -2.514  -0.304  0.00  0.00    +0.155 HD
ENDBRANCH  20  29
ENDBRANCH  19  20
ENDBRANCH   1  19
TORSDOF 7
