REMARK  Name = ZINC44320944
REMARK  10 active torsions:
REMARK  status: ('A' for Active; 'I' for Inactive)
REMARK    1  A    between atoms: C_1  and  C_2
REMARK    2  A    between atoms: C_4  and  C_13
REMARK    3  A    between atoms: C_5  and  C_12
REMARK    4  A    between atoms: N_6  and  N_7
REMARK    5  A    between atoms: C_13  and  CA_14
REMARK    6  A    between atoms: CA_14  and  C_16
REMARK    7  A    between atoms: CA_14  and  N_19
REMARK    8  A    between atoms: C_20  and  O_22
REMARK    9  A    between atoms: O_22  and  C_23
REMARK   10  A    between atoms: C_23  and  C_24
REMARK                            x       y       z     vdW  Elec       q    Type
REMARK                         _______ _______ _______ _____ _____    ______ ____
ROOT
ATOM      1  N   UNL     1      -2.168  -2.863  -2.461  0.00  0.00    -0.267 N 
ATOM      2  C   UNL     1      -3.508  -2.818  -2.326  0.00  0.00    +0.401 C 
ATOM      3  O   UNL     1      -4.071  -3.605  -1.590  0.00  0.00    -0.226 OA
ATOM      4  H   UNL     1      -1.718  -2.236  -3.048  0.00  0.00    +0.153 HD
ENDROOT
BRANCH   1   5
ATOM      5  CA  UNL     1      -1.390  -3.860  -1.721  0.00  0.00    +0.193 C 
BRANCH   5   6
ATOM      6  C   UNL     1      -1.367  -5.154  -2.494  0.00  0.00    +0.376 C 
ATOM      7  O   UNL     1      -1.285  -6.216  -1.901  0.00  0.00    -0.244 OA
ATOM      8  OXT UNL     1      -1.429  -5.138  -3.711  0.00  0.00    -0.244 OA
ENDBRANCH   5   6
BRANCH   5   9
ATOM      9  C   UNL     1       0.041  -3.353  -1.532  0.00  0.00    +0.071 C 
BRANCH   9  13
ATOM     10  C   UNL     1      -0.018   1.503   0.010  0.00  0.00    +0.065 C 
ATOM     11  C   UNL     1       0.002  -0.004   0.002  0.00  0.00    +0.039 A 
ATOM     12  C   UNL     1       0.008  -0.789  -1.095  0.00  0.00    +0.028 A 
ATOM     13  C   UNL     1       0.028  -2.127  -0.656  0.00  0.00    -0.022 A 
ATOM     14  C   UNL     1       0.034  -2.110   0.693  0.00  0.00    +0.042 A 
ATOM     15  N   UNL     1       0.024  -0.809   1.102  0.00  0.00    -0.254 N 
ATOM     16  C   UNL     1       0.053  -3.319   1.592  0.00  0.00    +0.066 C 
BRANCH  15  17
ATOM     17  N   UNL     1       0.031  -0.372   2.433  0.00  0.00    -0.223 N 
ATOM     18  C   UNL     1       1.026  -0.534   3.339  0.00  0.00    +0.247 A 
ATOM     19  N   UNL     1       0.630   0.018   4.453  0.00  0.00    -0.136 NA
ATOM     20  N   UNL     1      -0.546   0.513   4.297  0.00  0.00    -0.136 NA
ATOM     21  C   UNL     1      -0.953   0.303   3.075  0.00  0.00    +0.247 A 
ENDBRANCH  15  17
ENDBRANCH   9  13
ENDBRANCH   5   9
ENDBRANCH   1   5
BRANCH   2  22
ATOM     22  O   UNL     1      -4.223  -1.902  -3.006  0.00  0.00    -0.449 OA
BRANCH  22  23
ATOM     23  C   UNL     1      -5.639  -1.912  -2.815  0.00  0.00    +0.246 C 
BRANCH  23  24
ATOM     24  C   UNL     1      -6.275  -0.809  -3.662  0.00  0.00    +0.088 C 
ATOM     25  C   UNL     1      -6.149  -1.142  -5.129  0.00  0.00    -0.029 A 
ATOM     26  C   UNL     1      -5.053  -1.341  -5.942  0.00  0.00    +0.005 A 
ATOM     27  C   UNL     1      -5.230  -1.641  -7.281  0.00  0.00    +0.000 A 
ATOM     28  C   UNL     1      -6.505  -1.743  -7.806  0.00  0.00    +0.001 A 
ATOM     29  C   UNL     1      -7.607  -1.546  -7.000  0.00  0.00    +0.009 A 
ATOM     30  C   UNL     1      -7.437  -1.242  -5.648  0.00  0.00    -0.014 A 
ATOM     31  C   UNL     1      -8.425  -0.985  -4.572  0.00  0.00    -0.014 A 
ATOM     32  C   UNL     1      -7.755  -0.725  -3.380  0.00  0.00    -0.029 A 
ATOM     33  C   UNL     1      -8.464  -0.454  -2.228  0.00  0.00    +0.005 A 
ATOM     34  C   UNL     1      -9.847  -0.441  -2.253  0.00  0.00    +0.000 A 
ATOM     35  C   UNL     1     -10.522  -0.700  -3.433  0.00  0.00    +0.001 A 
ATOM     36  C   UNL     1      -9.821  -0.971  -4.590  0.00  0.00    +0.009 A 
ENDBRANCH  23  24
ENDBRANCH  22  23
ENDBRANCH   2  22
TORSDOF 8
