REMARK  Name = ZINC13549949
REMARK  7 active torsions:
REMARK  status: ('A' for Active; 'I' for Inactive)
REMARK    1  A    between atoms: C_1  and  C_2
REMARK    2  A    between atoms: N_4  and  C_24
REMARK    3  A    between atoms: C_8  and  C_9
REMARK    4  A    between atoms: C_8  and  N_13
REMARK    5  A    between atoms: N_13  and  N_14
REMARK    6  A    between atoms: C_15  and  C_17
REMARK    7  A    between atoms: C_22  and  O_23
REMARK                            x       y       z     vdW  Elec       q    Type
REMARK                         _______ _______ _______ _____ _____    ______ ____
ROOT
ATOM      1  C   UNL     1      -0.106   1.549   0.052  0.00  0.00    +0.068 C 
ATOM      2  C   UNL     1       0.289   0.096  -0.010  0.00  0.00    +0.071 C 
ATOM      3  N   UNL     1       0.573  -0.576  -1.083  0.00  0.00    -0.176 NA
ATOM      4  N   UNL     1       0.899  -1.898  -0.782  0.00  0.00    -0.156 N 
ATOM      5  C   UNL     1       0.825  -2.102   0.549  0.00  0.00    +0.274 C 
ATOM      6  O   UNL     1       1.047  -3.143   1.145  0.00  0.00    -0.268 OA
ATOM      7  C   UNL     1       0.429  -0.816   1.135  0.00  0.00    +0.088 C 
ATOM      8  C   UNL     1       0.229  -0.525   2.474  0.00  0.00    +0.139 C 
ENDROOT
BRANCH   4   9
ATOM      9  C   UNL     1       1.252  -2.872  -1.724  0.00  0.00    +0.060 A 
ATOM     10  C   UNL     1       1.552  -4.164  -1.312  0.00  0.00    +0.025 A 
ATOM     11  C   UNL     1       1.899  -5.122  -2.243  0.00  0.00    +0.002 A 
ATOM     12  C   UNL     1       1.949  -4.796  -3.587  0.00  0.00    +0.000 A 
ATOM     13  C   UNL     1       1.651  -3.511  -4.001  0.00  0.00    +0.002 A 
ATOM     14  C   UNL     1       1.296  -2.550  -3.075  0.00  0.00    +0.025 A 
ENDBRANCH   4   9
BRANCH   8  15
ATOM     15  C   UNL     1       0.176  -1.640   3.487  0.00  0.00    +0.432 C 
ATOM     16  F   UNL     1       1.460  -1.873   3.992  0.00  0.00    -0.165 F 
ATOM     17  F   UNL     1      -0.678  -1.278   4.534  0.00  0.00    -0.165 F 
ATOM     18  F   UNL     1      -0.303  -2.803   2.876  0.00  0.00    -0.165 F 
ENDBRANCH   8  15
BRANCH   8  19
ATOM     19  N   UNL     1       0.081   0.755   2.872  0.00  0.00    -0.260 N 
ATOM     20  H   UNL     1       0.024   1.464   2.212  0.00  0.00    +0.170 HD
BRANCH  19  21
ATOM     21  N   UNL     1       0.009   1.060   4.237  0.00  0.00    -0.232 N 
ATOM     22  C   UNL     1      -0.262   2.320   4.632  0.00  0.00    +0.264 C 
ATOM     23  O   UNL     1      -0.536   3.170   3.807  0.00  0.00    -0.269 OA
ATOM     24  H   UNL     1       0.154   0.365   4.898  0.00  0.00    +0.173 HD
BRANCH  22  25
ATOM     25  C   UNL     1      -0.227   2.667   6.066  0.00  0.00    +0.079 A 
ATOM     26  C   UNL     1       0.197   1.725   7.006  0.00  0.00    +0.017 A 
ATOM     27  C   UNL     1       0.228   2.056   8.344  0.00  0.00    +0.001 A 
ATOM     28  C   UNL     1      -0.160   3.319   8.761  0.00  0.00    +0.004 A 
ATOM     29  C   UNL     1      -0.581   4.259   7.842  0.00  0.00    +0.046 A 
ATOM     30  C   UNL     1      -0.613   3.946   6.491  0.00  0.00    +0.129 A 
BRANCH  30  31
ATOM     31  O   UNL     1      -1.021   4.870   5.586  0.00  0.00    -0.506 OA
ATOM     32  H   UNL     1      -1.972   4.857   5.412  0.00  0.00    +0.292 HD
ENDBRANCH  30  31
ENDBRANCH  22  25
ENDBRANCH  19  21
ENDBRANCH   8  19
TORSDOF 6
