REMARK  Name = ZINC37987843
REMARK  5 active torsions:
REMARK  status: ('A' for Active; 'I' for Inactive)
REMARK    1  A    between atoms: C_1  and  C_2
REMARK    2  A    between atoms: C_2  and  C_3
REMARK    3  A    between atoms: C_9  and  N_11
REMARK    4  A    between atoms: C_12  and  C_14
REMARK    5  A    between atoms: C_19  and  N_20
REMARK                            x       y       z     vdW  Elec       q    Type
REMARK                         _______ _______ _______ _____ _____    ______ ____
ROOT
ATOM      1  N   UNL     1      -0.155  -2.770   0.830  0.00  0.00    -0.308 N 
ATOM      2  C   UNL     1       0.138  -4.013   1.260  0.00  0.00    +0.247 C 
ATOM      3  O   UNL     1      -0.029  -4.966   0.525  0.00  0.00    -0.270 OA
ATOM      4  H   UNL     1      -0.021  -2.009   1.416  0.00  0.00    +0.149 HD
ENDROOT
BRANCH   2   5
ATOM      5  C   UNL     1       0.665  -4.217   2.626  0.00  0.00    +0.068 A 
ATOM      6  C   UNL     1       1.802  -3.528   3.050  0.00  0.00    +0.035 A 
ATOM      7  C   UNL     1       2.288  -3.723   4.327  0.00  0.00    +0.042 A 
ATOM      8  C   UNL     1       1.650  -4.601   5.187  0.00  0.00    +0.022 A 
ATOM      9  C   UNL     1       0.522  -5.287   4.773  0.00  0.00    +0.035 A 
ATOM     10  C   UNL     1       0.023  -5.096   3.501  0.00  0.00    +0.138 A 
ATOM     11 CL   UNL     1       3.703  -2.867   4.856  0.00  0.00    -0.084 Cl
BRANCH  10  12
ATOM     12  N   UNL     1      -1.187  -5.826   3.062  0.00  0.00    +0.057 N 
ATOM     13  O   UNL     1      -1.671  -6.677   3.772  0.00  0.00    -0.126 OA
ATOM     14  O   UNL     1      -1.692  -5.572   1.993  0.00  0.00    -0.126 OA
ENDBRANCH  10  12
ENDBRANCH   2   5
BRANCH   1  20
ATOM     15  C   UNL     1      -0.349  -1.148  -0.990  0.00  0.00    +0.009 C 
ATOM     16  C   UNL     1      -0.894  -0.936  -2.404  0.00  0.00    +0.005 C 
ATOM     17  C   UNL     1      -2.411  -1.135  -2.401  0.00  0.00    +0.000 C 
ATOM     18  C   UNL     1      -2.738  -2.556  -1.936  0.00  0.00    +0.002 C 
ATOM     19  C   UNL     1      -2.194  -2.767  -0.522  0.00  0.00    +0.022 C 
ATOM     20  C   UNL     1      -0.677  -2.568  -0.524  0.00  0.00    +0.076 C 
BRANCH  15  22
ATOM     21  C   UNL     1       1.490   0.506  -1.338  0.00  0.00    +0.004 C 
ATOM     22  C   UNL     1       1.167  -0.949  -0.993  0.00  0.00    +0.002 C 
ENDBRANCH  15  22
ENDBRANCH   1  20
TORSDOF 4
