REMARK  Name = ZINC20424647
REMARK  10 active torsions:
REMARK  status: ('A' for Active; 'I' for Inactive)
REMARK    1  A    between atoms: C_1  and  O_2
REMARK    2  A    between atoms: O_2  and  C_3
REMARK    3  A    between atoms: C_6  and  C_9
REMARK    4  A    between atoms: C_9  and  O_10
REMARK    5  A    between atoms: O_10  and  C_11
REMARK    6  A    between atoms: C_14  and  C_16
REMARK    7  A    between atoms: N_17  and  N_18
REMARK    8  A    between atoms: C_21  and  S_24
REMARK    9  A    between atoms: S_24  and  C_25
REMARK   10  A    between atoms: C_25  and  C_26
REMARK                            x       y       z     vdW  Elec       q    Type
REMARK                         _______ _______ _______ _____ _____    ______ ____
ROOT
ATOM      1  C   UNL     1       4.680   1.941  -0.032  0.00  0.00    +0.176 C 
ATOM      2  N   UNL     1       3.437   2.326  -0.018  0.00  0.00    -0.184 NA
ENDROOT
BRANCH   2   3
ATOM      3  N   UNL     1       2.409   1.374  -0.014  0.00  0.00    -0.205 N 
ATOM      4  C   UNL     1       1.084   1.785   0.001  0.00  0.00    +0.232 A 
ATOM      5  N   UNL     1      -0.011   0.966   0.007  0.00  0.00    -0.186 NA
ATOM      6  C   UNL     1      -1.127   1.754   0.016  0.00  0.00    +0.210 A 
ATOM      7  N   UNL     1      -0.739   3.007   0.025  0.00  0.00    -0.144 NA
ATOM      8  N   UNL     1       0.662   3.026   0.012  0.00  0.00    -0.245 N 
ATOM      9  H   UNL     1       2.652   0.302  -0.022  0.00  0.00    +0.177 HD
ATOM     10  H   UNL     1       1.386   3.854   0.009  0.00  0.00    +0.192 HD
BRANCH   6  11
ATOM     11  S   UNL     1      -2.795   1.187   0.020  0.00  0.00    -0.080 S 
BRANCH  11  12
ATOM     12  C   UNL     1      -3.777   2.712   0.033  0.00  0.00    +0.112 C 
BRANCH  12  13
ATOM     13  C   UNL     1      -5.244   2.365   0.037  0.00  0.00    -0.034 A 
ATOM     14  C   UNL     1      -5.941   2.213  -1.152  0.00  0.00    +0.024 A 
ATOM     15  C   UNL     1      -7.284   1.891  -1.109  0.00  0.00    +0.111 A 
ATOM     16  N   UNL     1      -7.904   1.737   0.044  0.00  0.00    -0.263 NA
ATOM     17  C   UNL     1      -7.274   1.877   1.194  0.00  0.00    +0.111 A 
ATOM     18  C   UNL     1      -5.930   2.195   1.230  0.00  0.00    +0.024 A 
ENDBRANCH  12  13
ENDBRANCH  11  12
ENDBRANCH   6  11
ENDBRANCH   2   3
BRANCH   1  22
ATOM     19  C   UNL     1       6.799   4.870  -0.038  0.00  0.00    +0.287 A 
ATOM     20  C   UNL     1       7.756   3.910  -0.052  0.00  0.00    +0.091 A 
ATOM     21  C   UNL     1       7.094   2.668  -0.051  0.00  0.00    +0.055 A 
ATOM     22  C   UNL     1       5.755   2.936  -0.037  0.00  0.00    +0.151 A 
ATOM     23  O   UNL     1       5.594   4.276  -0.034  0.00  0.00    -0.424 OA
BRANCH  19  24
ATOM     24  O   UNL     1       7.022   6.208  -0.034  0.00  0.00    -0.459 OA
BRANCH  24  25
ATOM     25  C   UNL     1       5.872   7.057  -0.019  0.00  0.00    +0.267 C 
BRANCH  25  29
ATOM     26  C   UNL     1       7.119  11.144  -0.011  0.00  0.00    +0.120 A 
ATOM     27  C   UNL     1       6.905  10.486  -1.213  0.00  0.00    +0.046 A 
ATOM     28  C   UNL     1       6.502   9.164  -1.213  0.00  0.00    +0.010 A 
ATOM     29  C   UNL     1       6.312   8.498  -0.016  0.00  0.00    -0.010 A 
ATOM     30  C   UNL     1       6.519   9.154   1.183  0.00  0.00    +0.010 A 
ATOM     31  C   UNL     1       6.928  10.474   1.188  0.00  0.00    +0.046 A 
BRANCH  26  33
ATOM     32  C   UNL     1       7.718  13.059   1.265  0.00  0.00    +0.277 C 
ATOM     33  O   UNL     1       7.516  12.444  -0.009  0.00  0.00    -0.495 OA
ENDBRANCH  26  33
ENDBRANCH  25  29
ENDBRANCH  24  25
ENDBRANCH  19  24
ENDBRANCH   1  22
TORSDOF 9
