REMARK  Name = ZINC08716080
REMARK  8 active torsions:
REMARK  status: ('A' for Active; 'I' for Inactive)
REMARK    1  A    between atoms: C_1  and  C_2
REMARK    2  A    between atoms: C_9  and  C_14
REMARK    3  A    between atoms: C_14  and  O_16
REMARK    4  A    between atoms: O_16  and  C_17
REMARK    5  A    between atoms: C_17  and  C_19
REMARK    6  A    between atoms: C_17  and  C_20
REMARK    7  A    between atoms: N_22  and  C_23
REMARK    8  A    between atoms: C_25  and  N_30
REMARK                            x       y       z     vdW  Elec       q    Type
REMARK                         _______ _______ _______ _____ _____    ______ ____
ROOT
ATOM      1  O   UNL     1      -5.911  -2.332  -0.296  0.00  0.00    -0.449 OA
ENDROOT
BRANCH   1   2
ATOM      2  C   UNL     1      -6.790  -3.078  -0.994  0.00  0.00    +0.340 C 
ATOM      3  O   UNL     1      -7.764  -2.555  -1.500  0.00  0.00    -0.245 OA
BRANCH   2  11
ATOM      4  C   UNL     1      -8.258  -9.623  -0.339  0.00  0.00    +0.029 C 
ATOM      5  C   UNL     1      -7.605  -9.622  -1.723  0.00  0.00    +0.134 C 
ATOM      6  C   UNL     1      -8.386  -8.730  -2.648  0.00  0.00    +0.230 C 
ATOM      7  O   UNL     1      -9.235  -9.236  -3.351  0.00  0.00    -0.274 OA
ATOM      8  N   UNL     1      -8.197  -7.416  -2.739  0.00  0.00    -0.284 N 
ATOM      9  C   UNL     1      -7.281  -6.663  -2.009  0.00  0.00    +0.048 A 
ATOM     10  C   UNL     1      -7.486  -5.301  -1.861  0.00  0.00    +0.039 A 
ATOM     11  C   UNL     1      -6.571  -4.527  -1.143  0.00  0.00    +0.061 A 
ATOM     12  C   UNL     1      -5.450  -5.128  -0.559  0.00  0.00    +0.016 A 
ATOM     13  C   UNL     1      -5.250  -6.483  -0.699  0.00  0.00    +0.017 A 
ATOM     14  C   UNL     1      -6.157  -7.250  -1.418  0.00  0.00    +0.030 A 
ATOM     15  S   UNL     1      -5.905  -8.989  -1.595  0.00  0.00    -0.111 S 
ATOM     16  H   UNL     1      -8.751  -6.937  -3.375  0.00  0.00    +0.155 HD
ENDBRANCH   2  11
ENDBRANCH   1   2
BRANCH   1  17
ATOM     17  C   UNL     1      -6.191  -0.911  -0.190  0.00  0.00    +0.259 C 
ATOM     18  C   UNL     1      -7.044  -0.650   1.053  0.00  0.00    +0.062 C 
BRANCH  17  19
ATOM     19  C   UNL     1      -4.894  -0.151  -0.078  0.00  0.00    +0.258 C 
ATOM     20  O   UNL     1      -3.838  -0.748  -0.087  0.00  0.00    -0.271 OA
ATOM     21  N   UNL     1      -4.908   1.192   0.031  0.00  0.00    -0.281 N 
ATOM     22  H   UNL     1      -5.752   1.665   0.103  0.00  0.00    +0.155 HD
BRANCH  21  23
ATOM     23  C   UNL     1      -3.703   1.906   0.041  0.00  0.00    +0.054 A 
ATOM     24  C   UNL     1      -2.575   1.359   0.638  0.00  0.00    +0.057 A 
ATOM     25  C   UNL     1      -1.389   2.065   0.646  0.00  0.00    +0.128 A 
ATOM     26  C   UNL     1      -1.324   3.318   0.065  0.00  0.00    +0.034 A 
ATOM     27  C   UNL     1      -2.443   3.864  -0.536  0.00  0.00    +0.024 A 
ATOM     28  C   UNL     1      -3.634   3.163  -0.547  0.00  0.00    +0.062 A 
ATOM     29 CL   UNL     1      -5.041   3.851  -1.296  0.00  0.00    -0.082 Cl
BRANCH  25  30
ATOM     30  N   UNL     1      -0.186   1.483   1.282  0.00  0.00    +0.056 N 
ATOM     31  O   UNL     1      -0.243   0.381   1.799  0.00  0.00    -0.126 OA
ATOM     32  O   UNL     1       0.863   2.103   1.285  0.00  0.00    -0.126 OA
ENDBRANCH  25  30
ENDBRANCH  21  23
ENDBRANCH  17  19
ENDBRANCH   1  17
TORSDOF 6
