REMARK  Name = ZINC21899389
REMARK  12 active torsions:
REMARK  status: ('A' for Active; 'I' for Inactive)
REMARK    1  A    between atoms: C_1  and  C_2
REMARK    2  A    between atoms: C_7  and  O_8
REMARK    3  A    between atoms: O_8  and  C_9
REMARK    4  A    between atoms: C_9  and  C_10
REMARK    5  A    between atoms: C_10  and  C_11
REMARK    6  A    between atoms: C_11  and  C_12
REMARK    7  A    between atoms: N_14  and  N_15
REMARK    8  A    between atoms: C_16  and  C_18
REMARK    9  A    between atoms: C_18  and  N_19
REMARK   10  A    between atoms: C_24  and  C_31
REMARK   11  A    between atoms: C_27  and  C_29
REMARK   12  A    between atoms: C_27  and  C_30
REMARK                            x       y       z     vdW  Elec       q    Type
REMARK                         _______ _______ _______ _____ _____    ______ ____
ROOT
ATOM      1  N   UNL     1      -4.596  -0.491   3.371  0.00  0.00    -0.233 N 
ATOM      2  C   UNL     1      -3.422  -0.209   2.771  0.00  0.00    +0.247 C 
ATOM      3  O   UNL     1      -2.927   0.891   2.894  0.00  0.00    -0.273 OA
ATOM      4  H   UNL     1      -5.045  -1.489   3.259  0.00  0.00    +0.173 HD
ENDROOT
BRANCH   1   7
ATOM      5  C   UNL     1      -6.416   0.204   4.738  0.00  0.00    +0.229 C 
ATOM      6  O   UNL     1      -6.911  -0.896   4.615  0.00  0.00    -0.274 OA
ATOM      7  N   UNL     1      -5.243   0.486   4.138  0.00  0.00    -0.234 N 
ATOM      8  H   UNL     1      -4.794   1.484   4.250  0.00  0.00    +0.173 HD
BRANCH   5   9
ATOM      9  C   UNL     1      -7.113   1.255   5.563  0.00  0.00    +0.100 C 
BRANCH   9  10
ATOM     10  C   UNL     1      -8.413   0.681   6.128  0.00  0.00    +0.050 C 
BRANCH  10  11
ATOM     11  C   UNL     1      -9.120   1.748   6.966  0.00  0.00    +0.229 C 
BRANCH  11  12
ATOM     12  O   UNL     1     -10.335   1.212   7.494  0.00  0.00    -0.492 OA
BRANCH  12  19
ATOM     13  C   UNL     1     -12.746   0.175   8.537  0.00  0.00    +0.047 C 
ATOM     14  C   UNL     1     -12.284   1.584   8.807  0.00  0.00    -0.007 A 
ATOM     15  C   UNL     1     -13.046   2.423   9.597  0.00  0.00    +0.027 A 
ATOM     16  C   UNL     1     -12.625   3.718   9.840  0.00  0.00    +0.041 A 
ATOM     17  C   UNL     1     -11.437   4.174   9.297  0.00  0.00    +0.023 A 
ATOM     18  C   UNL     1     -10.668   3.337   8.512  0.00  0.00    +0.047 A 
ATOM     19  C   UNL     1     -11.089   2.038   8.267  0.00  0.00    +0.123 A 
ATOM     20 CL   UNL     1     -13.589   4.772  10.827  0.00  0.00    -0.084 Cl
ENDBRANCH  12  19
ENDBRANCH  11  12
ENDBRANCH  10  11
ENDBRANCH   9  10
ENDBRANCH   5   9
ENDBRANCH   1   7
BRANCH   2  21
ATOM     21  C   UNL     1      -2.726  -1.261   1.946  0.00  0.00    +0.215 C 
BRANCH  21  22
ATOM     22  N   UNL     1      -1.481  -0.711   1.404  0.00  0.00    -0.215 N 
ATOM     23  C   UNL     1      -1.384  -0.078   0.217  0.00  0.00    +0.247 C 
ATOM     24  O   UNL     1      -2.277   0.137  -0.575  0.00  0.00    -0.273 OA
ATOM     25  C   UNL     1       0.071   0.308   0.082  0.00  0.00    +0.113 C 
ATOM     26  C   UNL     1       0.213   1.824  -0.008  0.00  0.00    +0.038 C 
ATOM     27  C   UNL     1       1.696   2.193  -0.109  0.00  0.00    -0.011 C 
ATOM     28  C   UNL     1       2.302   1.532  -1.348  0.00  0.00    +0.009 C 
ATOM     29  C   UNL     1       2.171   0.011  -1.233  0.00  0.00    -0.032 C 
ATOM     30  C   UNL     1       0.690  -0.366  -1.137  0.00  0.00    +0.041 C 
ATOM     31  C   UNL     1       2.902  -0.471   0.021  0.00  0.00    +0.011 C 
ATOM     32  C   UNL     1       2.786  -0.649  -2.469  0.00  0.00    +0.011 C 
ATOM     33  C   UNL     1       1.837   3.712  -0.221  0.00  0.00    +0.007 C 
ATOM     34  N   UNL     1       0.689  -0.193   1.316  0.00  0.00    -0.285 N 
ATOM     35  C   UNL     1      -0.297  -0.774   2.027  0.00  0.00    +0.310 C 
ATOM     36  O   UNL     1      -0.131  -1.298   3.111  0.00  0.00    -0.252 OA
ATOM     37  H   UNL     1       1.765  -0.049   1.490  0.00  0.00    +0.151 HD
ENDBRANCH  21  22
ENDBRANCH   2  21
TORSDOF 8
