REMARK  Name = ZINC40267754
REMARK  9 active torsions:
REMARK  status: ('A' for Active; 'I' for Inactive)
REMARK    1  A    between atoms: C_1  and  C_2
REMARK    2  A    between atoms: C_13  and  C_16
REMARK    3  A    between atoms: C_18  and  O_33
REMARK    4  A    between atoms: C_20  and  C_22
REMARK    5  A    between atoms: C_27  and  O_28
REMARK    6  A    between atoms: O_28  and  C_29
REMARK    7  A    between atoms: C_29  and  C_30
REMARK    8  A    between atoms: C_30  and  C_31
REMARK    9  A    between atoms: C_30  and  C_32
REMARK                            x       y       z     vdW  Elec       q    Type
REMARK                         _______ _______ _______ _____ _____    ______ ____
ROOT
ATOM      1  C   UNL     1      -0.018   1.503   0.010  0.00  0.00    +0.068 C 
ATOM      2  C   UNL     1       0.002  -0.004   0.002  0.00  0.00    +0.066 A 
ATOM      3  C   UNL     1       0.008  -0.806  -1.124  0.00  0.00    +0.028 A 
ATOM      4  C   UNL     1       0.032  -2.129  -0.706  0.00  0.00    +0.165 A 
ATOM      5  N   UNL     1       0.034  -2.119   0.648  0.00  0.00    -0.194 N 
ATOM      6  N   UNL     1       0.023  -0.778   1.064  0.00  0.00    -0.168 NA
ATOM      7  C   UNL     1       0.048  -3.241   1.481  0.00  0.00    +0.177 A 
ATOM      8  C   UNL     1       0.043  -3.069   2.878  0.00  0.00    +0.054 A 
ATOM      9  C   UNL     1       0.057  -4.152   3.699  0.00  0.00    +0.054 A 
ATOM     10  C   UNL     1       0.076  -5.441   3.133  0.00  0.00    +0.178 A 
ATOM     11  N   UNL     1       0.093  -6.664   3.638  0.00  0.00    -0.128 NA
ATOM     12  N   UNL     1       0.107  -7.520   2.677  0.00  0.00    -0.132 NA
ATOM     13  C   UNL     1       0.101  -6.903   1.521  0.00  0.00    +0.152 A 
ATOM     14  N   UNL     1       0.081  -5.575   1.766  0.00  0.00    -0.195 N 
ATOM     15  N   UNL     1       0.061  -4.441   0.952  0.00  0.00    -0.144 NA
ATOM     16  C   UNL     1       0.114  -7.557   0.164  0.00  0.00    +0.090 C 
ATOM     17  N   UNL     1       0.057  -3.160  -1.598  0.00  0.00    -0.197 NA
ATOM     18  C   UNL     1       0.344  -2.913  -2.841  0.00  0.00    +0.190 C 
ATOM     19  C   UNL     1       0.717  -1.552  -3.354  0.00  0.00    +0.108 C 
ATOM     20  C   UNL     1      -0.011  -0.441  -2.587  0.00  0.00    +0.067 C 
ENDROOT
BRANCH  20  21
ATOM     21  C   UNL     1       0.697   0.872  -2.796  0.00  0.00    +0.002 A 
ATOM     22  C   UNL     1       2.028   1.003  -2.447  0.00  0.00    +0.008 A 
ATOM     23  C   UNL     1       2.679   2.208  -2.638  0.00  0.00    +0.001 A 
ATOM     24  C   UNL     1       2.000   3.285  -3.178  0.00  0.00    +0.004 A 
ATOM     25  C   UNL     1       0.670   3.159  -3.529  0.00  0.00    +0.046 A 
ATOM     26  C   UNL     1       0.016   1.949  -3.343  0.00  0.00    +0.124 A 
BRANCH  26  27
ATOM     27  O   UNL     1      -1.291   1.822  -3.692  0.00  0.00    -0.491 OA
BRANCH  27  28
ATOM     28  C   UNL     1      -1.929   2.972  -4.250  0.00  0.00    +0.232 C 
BRANCH  28  29
ATOM     29  C   UNL     1      -3.386   2.639  -4.578  0.00  0.00    +0.020 C 
ATOM     30  C   UNL     1      -4.145   2.343  -3.283  0.00  0.00    +0.010 C 
ATOM     31  C   UNL     1      -4.034   3.829  -5.289  0.00  0.00    +0.010 C 
ENDBRANCH  28  29
ENDBRANCH  27  28
ENDBRANCH  26  27
ENDBRANCH  20  21
BRANCH  18  32
ATOM     32  O   UNL     1       0.306  -3.936  -3.720  0.00  0.00    -0.495 OA
ATOM     33  H   UNL     1       0.061  -4.784  -3.325  0.00  0.00    +0.293 HD
ENDBRANCH  18  32
TORSDOF 5
