REMARK  Name = ZINC43219055
REMARK  7 active torsions:
REMARK  status: ('A' for Active; 'I' for Inactive)
REMARK    1  A    between atoms: C_1  and  C_2
REMARK    2  A    between atoms: C_2  and  C_3
REMARK    3  A    between atoms: C_2  and  C_4
REMARK    4  A    between atoms: C_2  and  N_5
REMARK    5  A    between atoms: C_10  and  C_27
REMARK    6  A    between atoms: C_13  and  C_18
REMARK    7  A    between atoms: C_13  and  C_24
REMARK                            x       y       z     vdW  Elec       q    Type
REMARK                         _______ _______ _______ _____ _____    ______ ____
ROOT
ATOM      1  N   UNL     1       1.099   0.196  -1.070  0.00  0.00    -0.236 N 
ATOM      2  C   UNL     1       0.285  -0.563  -1.874  0.00  0.00    +0.225 C 
ATOM      3  O   UNL     1      -0.926  -0.605  -1.872  0.00  0.00    -0.275 OA
ATOM      4  C   UNL     1       1.189  -1.298  -2.723  0.00  0.00    +0.080 C 
ATOM      5  C   UNL     1       1.212  -2.016  -4.009  0.00  0.00    +0.010 C 
ATOM      6  N   UNL     1       2.682  -2.256  -4.211  0.00  0.00    +0.400 N 
ATOM      7  C   UNL     1       3.425  -1.236  -3.412  0.00  0.00    +0.074 C 
ATOM      8  C   UNL     1       2.350  -0.247  -2.937  0.00  0.00    +0.090 C 
ATOM      9  C   UNL     1       2.390   0.237  -1.514  0.00  0.00    +0.226 C 
ATOM     10  O   UNL     1       3.368   0.588  -0.889  0.00  0.00    -0.275 OA
ATOM     11  H   UNL     1       2.924  -3.182  -3.892  0.00  0.00    -0.083 HD
ATOM     12  H   UNL     1       2.913  -2.158  -5.188  0.00  0.00    -0.083 HD
ENDROOT
BRANCH   5  13
ATOM     13  C   UNL     1       0.462  -3.320  -3.911  0.00  0.00    +0.093 A 
ATOM     14  C   UNL     1      -0.790  -3.519  -4.344  0.00  0.00    +0.051 A 
ATOM     15  C   UNL     1      -1.108  -4.921  -4.046  0.00  0.00    +0.020 A 
ATOM     16  C   UNL     1      -2.226  -5.730  -4.243  0.00  0.00    +0.011 A 
ATOM     17  C   UNL     1      -2.197  -7.036  -3.837  0.00  0.00    +0.001 A 
ATOM     18  C   UNL     1      -1.064  -7.559  -3.232  0.00  0.00    +0.004 A 
ATOM     19  C   UNL     1       0.051  -6.774  -3.029  0.00  0.00    +0.047 A 
ATOM     20  C   UNL     1       0.043  -5.445  -3.434  0.00  0.00    +0.135 A 
ATOM     21  O   UNL     1       0.955  -4.453  -3.381  0.00  0.00    -0.461 OA
ENDBRANCH   5  13
BRANCH   7  22
ATOM     22  C   UNL     1       4.118  -1.891  -2.245  0.00  0.00    -0.047 A 
ATOM     23  C   UNL     1       5.199  -1.272  -1.647  0.00  0.00    +0.003 A 
ATOM     24  C   UNL     1       5.835  -1.873  -0.576  0.00  0.00    +0.000 A 
ATOM     25  C   UNL     1       5.389  -3.093  -0.104  0.00  0.00    +0.000 A 
ATOM     26  C   UNL     1       4.307  -3.712  -0.702  0.00  0.00    +0.000 A 
ATOM     27  C   UNL     1       3.669  -3.109  -1.769  0.00  0.00    +0.003 A 
ENDBRANCH   7  22
BRANCH   1  29
ATOM     28  C   UNL     1       0.866   2.396  -0.026  0.00  0.00    +0.031 C 
ATOM     29  C   UNL     1       0.631   0.892   0.132  0.00  0.00    +0.036 C 
ATOM     30  C   UNL     1       1.403   0.381   1.350  0.00  0.00    +0.031 C 
ATOM     31  C   UNL     1      -0.863   0.627   0.326  0.00  0.00    +0.031 C 
ENDBRANCH   1  29
BRANCH   7  32
ATOM     32  C   UNL     1       4.427  -0.521  -4.281  0.00  0.00    +0.350 C 
ATOM     33  O   UNL     1       4.551  -0.834  -5.453  0.00  0.00    -0.248 OA
ATOM     34  O   UNL     1       5.115   0.370  -3.812  0.00  0.00    -0.248 OA
ENDBRANCH   7  32
TORSDOF 4
