REMARK  Name = ZINC08939429
REMARK  13 active torsions:
REMARK  status: ('A' for Active; 'I' for Inactive)
REMARK    1  A    between atoms: C_1  and  C_2
REMARK    2  A    between atoms: C_2  and  O_3
REMARK    3  A    between atoms: O_3  and  C_4
REMARK    4  A    between atoms: C_4  and  C_6
REMARK    5  A    between atoms: C_7  and  C_34
REMARK    6  A    between atoms: C_8  and  C_29
REMARK    7  A    between atoms: C_10  and  N_11
REMARK    8  A    between atoms: C_12  and  C_14
REMARK    9  A    between atoms: C_14  and  N_15
REMARK   10  A    between atoms: C_23  and  C_25
REMARK   11  A    between atoms: C_29  and  O_31
REMARK   12  A    between atoms: O_31  and  C_32
REMARK   13  A    between atoms: C_32  and  C_33
REMARK                            x       y       z     vdW  Elec       q    Type
REMARK                         _______ _______ _______ _____ _____    ______ ____
ROOT
ATOM      1  N   UNL     1      -0.017   1.377   0.010  0.00  0.00    -0.278 N 
ATOM      2  C   UNL     1       1.141   2.066   0.002  0.00  0.00    +0.236 C 
ATOM      3  O   UNL     1       2.200   1.474  -0.011  0.00  0.00    -0.274 OA
ATOM      4  H   UNL     1      -0.863   1.850   0.016  0.00  0.00    +0.155 HD
ENDROOT
BRANCH   1   9
ATOM      5  C   UNL     1      -1.080  -0.891   0.008  0.00  0.00    +0.091 A 
ATOM      6  C   UNL     1      -0.802  -2.249  -0.002  0.00  0.00    -0.014 A 
ATOM      7  C   UNL     1       0.514  -2.628  -0.017  0.00  0.00    +0.102 A 
ATOM      8  S   UNL     1       1.372  -1.065  -0.024  0.00  0.00    -0.066 S 
ATOM      9  C   UNL     1       0.002  -0.004   0.002  0.00  0.00    +0.087 A 
ATOM     10  C   UNL     1      -1.909  -3.272   0.002  0.00  0.00    +0.046 C 
BRANCH   5  11
ATOM     11  C   UNL     1      -2.463  -0.400   0.023  0.00  0.00    +0.342 C 
ATOM     12  O   UNL     1      -3.046  -0.191  -1.024  0.00  0.00    -0.245 OA
BRANCH  11  13
ATOM     13  O   UNL     1      -3.088  -0.181   1.198  0.00  0.00    -0.461 OA
BRANCH  13  15
ATOM     14  C   UNL     1      -4.993   0.492   2.557  0.00  0.00    +0.048 C 
ATOM     15  C   UNL     1      -4.455   0.305   1.137  0.00  0.00    +0.229 C 
ENDBRANCH  13  15
ENDBRANCH  11  13
ENDBRANCH   5  11
BRANCH   7  16
ATOM     16  C   UNL     1       1.075  -3.978  -0.030  0.00  0.00    +0.346 C 
ATOM     17  O   UNL     1       0.335  -4.944  -0.029  0.00  0.00    -0.244 OA
BRANCH  16  18
ATOM     18  O   UNL     1       2.413  -4.153  -0.044  0.00  0.00    -0.461 OA
BRANCH  18  19
ATOM     19  C   UNL     1       2.891  -5.499  -0.056  0.00  0.00    +0.229 C 
ATOM     20  C   UNL     1       4.421  -5.497  -0.071  0.00  0.00    +0.048 C 
ENDBRANCH  18  19
ENDBRANCH  16  18
ENDBRANCH   7  16
ENDBRANCH   1   9
BRANCH   2  21
ATOM     21  C   UNL     1       1.121   3.573   0.011  0.00  0.00    +0.214 C 
BRANCH  21  22
ATOM     22  N   UNL     1       2.495   4.080   0.000  0.00  0.00    -0.215 N 
ATOM     23  C   UNL     1       3.215   4.342   1.111  0.00  0.00    +0.247 C 
ATOM     24  O   UNL     1       2.863   4.207   2.263  0.00  0.00    -0.273 OA
ATOM     25  C   UNL     1       4.555   4.836   0.616  0.00  0.00    +0.115 C 
ATOM     26  C   UNL     1       5.673   3.908   1.077  0.00  0.00    +0.035 C 
ATOM     27  C   UNL     1       5.764   3.933   2.605  0.00  0.00    +0.003 C 
ATOM     28  C   UNL     1       6.040   5.363   3.074  0.00  0.00    +0.000 C 
ATOM     29  C   UNL     1       4.898   6.277   2.626  0.00  0.00    +0.006 C 
ATOM     30  C   UNL     1       4.803   6.261   1.098  0.00  0.00    +0.018 C 
ATOM     31  C   UNL     1       3.649   7.159   0.649  0.00  0.00    +0.010 C 
ATOM     32  N   UNL     1       4.429   4.803  -0.847  0.00  0.00    -0.285 N 
ATOM     33  C   UNL     1       3.190   4.347  -1.112  0.00  0.00    +0.310 C 
ATOM     34  O   UNL     1       2.752   4.195  -2.236  0.00  0.00    -0.252 OA
ATOM     35  H   UNL     1       5.105   5.059  -1.494  0.00  0.00    +0.151 HD
ENDBRANCH  21  22
ENDBRANCH   2  21
TORSDOF 9
