REMARK  Name = ZINC64098170
REMARK  8 active torsions:
REMARK  status: ('A' for Active; 'I' for Inactive)
REMARK    1  A    between atoms: C_1  and  C_2
REMARK    2  A    between atoms: C_2  and  C_3
REMARK    3  A    between atoms: C_2  and  C_4
REMARK    4  A    between atoms: C_4  and  C_6
REMARK    5  A    between atoms: C_4  and  N_23
REMARK    6  A    between atoms: C_6  and  N_7
REMARK    7  A    between atoms: C_8  and  C_10
REMARK    8  A    between atoms: C_10  and  C_11
REMARK                            x       y       z     vdW  Elec       q    Type
REMARK                         _______ _______ _______ _____ _____    ______ ____
ROOT
ATOM      1  N   UNL     1      -3.178  -0.000  -1.636  0.00  0.00    -0.317 N 
ATOM      2  C   UNL     1      -3.600   0.602  -2.766  0.00  0.00    +0.214 C 
ATOM      3  O   UNL     1      -2.793   0.997  -3.580  0.00  0.00    -0.276 OA
ATOM      4  H   UNL     1      -3.823  -0.317  -0.985  0.00  0.00    +0.149 HD
ENDROOT
BRANCH   1   5
ATOM      5  C   UNL     1      -1.744  -0.177  -1.393  0.00  0.00    +0.089 C 
BRANCH   5   6
ATOM      6  C   UNL     1      -1.530  -0.721   0.021  0.00  0.00    -0.048 C 
BRANCH   6   7
ATOM      7  N   UNL     1      -1.928   0.296   1.003  0.00  0.00    +0.386 N 
ATOM      8  C   UNL     1      -3.300   0.030   1.461  0.00  0.00    -0.073 C 
ATOM      9  C   UNL     1      -3.582   0.897   2.688  0.00  0.00    +0.017 C 
ATOM     10  C   UNL     1      -3.225   2.332   2.392  0.00  0.00    -0.048 A 
ATOM     11  C   UNL     1      -3.716   3.324   3.225  0.00  0.00    +0.004 A 
ATOM     12  C   UNL     1      -3.408   4.649   2.987  0.00  0.00    +0.000 A 
ATOM     13  C   UNL     1      -2.606   4.986   1.913  0.00  0.00    +0.000 A 
ATOM     14  C   UNL     1      -2.118   3.998   1.082  0.00  0.00    +0.002 A 
ATOM     15  C   UNL     1      -2.428   2.667   1.318  0.00  0.00    -0.061 A 
ATOM     16  C   UNL     1      -1.881   1.623   0.381  0.00  0.00    -0.042 C 
ATOM     17  H   UNL     1      -1.297   0.270   1.790  0.00  0.00    -0.081 HD
ENDBRANCH   6   7
BRANCH   6  19
ATOM     18  C   UNL     1       0.784   0.210   0.156  0.00  0.00    +0.005 C 
ATOM     19  C   UNL     1      -0.053  -1.069   0.216  0.00  0.00    -0.029 C 
ATOM     20  C   UNL     1       0.138  -1.740   1.578  0.00  0.00    +0.005 C 
ENDBRANCH   6  19
ENDBRANCH   5   6
ENDBRANCH   1   5
BRANCH   2  21
ATOM     21  C   UNL     1      -5.075   0.783  -3.017  0.00  0.00    +0.112 C 
BRANCH  21  22
ATOM     22  C   UNL     1      -5.291   1.292  -4.443  0.00  0.00    +0.107 C 
ATOM     23  C   UNL     1      -4.624   0.315  -5.392  0.00  0.00    -0.004 C 
ATOM     24  C   UNL     1      -5.408  -0.268  -6.342  0.00  0.00    -0.007 A 
ATOM     25  C   UNL     1      -4.846  -1.222  -7.298  0.00  0.00    +0.009 A 
ATOM     26  C   UNL     1      -5.665  -1.777  -8.228  0.00  0.00    +0.001 A 
ATOM     27  C   UNL     1      -7.021  -1.456  -8.286  0.00  0.00    +0.002 A 
ATOM     28  C   UNL     1      -7.604  -0.578  -7.428  0.00  0.00    +0.024 A 
ATOM     29  C   UNL     1      -6.844   0.053  -6.426  0.00  0.00    +0.040 A 
ATOM     30  N   UNL     1      -7.426   0.912  -5.590  0.00  0.00    -0.284 N 
ATOM     31  C   UNL     1      -6.771   1.539  -4.629  0.00  0.00    +0.225 C 
ATOM     32  O   UNL     1      -7.357   2.313  -3.895  0.00  0.00    -0.275 OA
ATOM     33  H   UNL     1      -8.375   1.084  -5.692  0.00  0.00    +0.155 HD
ENDBRANCH  21  22
ENDBRANCH   2  21
TORSDOF 6
