REMARK  Name = ZINC09105151
REMARK  11 active torsions:
REMARK  status: ('A' for Active; 'I' for Inactive)
REMARK    1  A    between atoms: C_1  and  C_2
REMARK    2  A    between atoms: C_2  and  C_3
REMARK    3  A    between atoms: C_2  and  C_4
REMARK    4  A    between atoms: C_7  and  S_10
REMARK    5  A    between atoms: S_10  and  C_13
REMARK    6  A    between atoms: C_13  and  C_15
REMARK    7  A    between atoms: C_13  and  C_31
REMARK    8  A    between atoms: C_15  and  N_16
REMARK    9  A    between atoms: C_17  and  C_19
REMARK   10  A    between atoms: N_21  and  N_22
REMARK   11  A    between atoms: C_23  and  C_25
REMARK                            x       y       z     vdW  Elec       q    Type
REMARK                         _______ _______ _______ _____ _____    ______ ____
ROOT
ATOM      1  C   UNL     1      -3.413  -6.433   0.000  0.00  0.00    +0.136 C 
ENDROOT
BRANCH   1   2
ATOM      2  N   UNL     1      -3.432  -4.968   0.008  0.00  0.00    -0.305 N 
ATOM      3  C   UNL     1      -2.275  -4.279   0.001  0.00  0.00    +0.301 C 
ATOM      4  O   UNL     1      -1.216  -4.871  -0.013  0.00  0.00    -0.265 OA
ATOM      5  H   UNL     1      -4.279  -4.495   0.019  0.00  0.00    +0.149 HD
BRANCH   3   6
ATOM      6  C   UNL     1      -2.295  -2.784   0.009  0.00  0.00    +0.315 C 
ATOM      7  O   UNL     1      -3.354  -2.192   0.022  0.00  0.00    -0.264 OA
ATOM      8  N   UNL     1      -1.137  -2.095   0.002  0.00  0.00    -0.226 N 
ATOM      9  H   UNL     1      -0.290  -2.568  -0.009  0.00  0.00    +0.173 HD
BRANCH   8  10
ATOM     10  N   UNL     1      -1.156  -0.694   0.009  0.00  0.00    -0.230 N 
ATOM     11  C   UNL     1       0.002  -0.004   0.002  0.00  0.00    +0.260 C 
ATOM     12  O   UNL     1       1.063  -0.597  -0.011  0.00  0.00    -0.269 OA
ATOM     13  H   UNL     1      -2.002  -0.220   0.020  0.00  0.00    +0.173 HD
BRANCH  11  14
ATOM     14  C   UNL     1      -0.018   1.474   0.010  0.00  0.00    +0.038 A 
ATOM     15  C   UNL     1      -1.234   2.159   0.020  0.00  0.00    +0.013 A 
ATOM     16  C   UNL     1      -1.246   3.538   0.033  0.00  0.00    +0.001 A 
ATOM     17  C   UNL     1      -0.056   4.243   0.026  0.00  0.00    +0.000 A 
ATOM     18  C   UNL     1       1.154   3.571   0.010  0.00  0.00    +0.001 A 
ATOM     19  C   UNL     1       1.179   2.192   0.003  0.00  0.00    +0.013 A 
ENDBRANCH  11  14
ENDBRANCH   8  10
ENDBRANCH   3   6
ENDBRANCH   1   2
BRANCH   1  20
ATOM     20  C   UNL     1      -4.848  -6.963   0.011  0.00  0.00    +0.189 C 
BRANCH  20  21
ATOM     21  C   UNL     1      -4.827  -8.470   0.003  0.00  0.00    +0.016 A 
ATOM     22  C   UNL     1      -5.356  -9.325  -0.906  0.00  0.00    +0.013 A 
ATOM     23  C   UNL     1      -5.211 -10.686  -0.709  0.00  0.00    +0.008 A 
ATOM     24  C   UNL     1      -4.554 -11.124   0.393  0.00  0.00    +0.045 A 
ATOM     25  S   UNL     1      -4.108  -9.591   1.191  0.00  0.00    -0.100 S 
ENDBRANCH  20  21
BRANCH  20  26
ATOM     26  S   UNL     1      -5.697  -6.378   1.503  0.00  0.00    +0.006 S 
ATOM     27  O   UNL     1      -5.058  -6.893   2.664  0.00  0.00    -0.169 OA
ATOM     28  O   UNL     1      -5.986  -4.991   1.391  0.00  0.00    -0.169 OA
BRANCH  26  32
ATOM     29  C   UNL     1      -9.741  -8.410   1.414  0.00  0.00    -0.045 A 
ATOM     30  C   UNL     1      -8.674  -9.022   2.044  0.00  0.00    +0.006 A 
ATOM     31  C   UNL     1      -7.439  -8.401   2.072  0.00  0.00    +0.027 A 
ATOM     32  C   UNL     1      -7.271  -7.169   1.468  0.00  0.00    +0.089 A 
ATOM     33  C   UNL     1      -8.339  -6.555   0.842  0.00  0.00    +0.027 A 
ATOM     34  C   UNL     1      -9.573  -7.177   0.811  0.00  0.00    +0.006 A 
BRANCH  29  36
ATOM     35  C   UNL     1     -12.122  -8.196   2.072  0.00  0.00    +0.012 C 
ATOM     36  C   UNL     1     -11.087  -9.087   1.383  0.00  0.00    +0.013 C 
ATOM     37  C   UNL     1     -11.505  -9.326  -0.069  0.00  0.00    +0.012 C 
ENDBRANCH  29  36
ENDBRANCH  26  32
ENDBRANCH  20  26
ENDBRANCH   1  20
TORSDOF 9
