REMARK  Name = ZINC21079202
REMARK  12 active torsions:
REMARK  status: ('A' for Active; 'I' for Inactive)
REMARK    1  A    between atoms: C_1  and  C_2
REMARK    2  A    between atoms: C_2  and  N_3
REMARK    3  A    between atoms: N_3  and  C_4
REMARK    4  A    between atoms: N_3  and  S_6
REMARK    5  A    between atoms: C_4  and  C_5
REMARK    6  A    between atoms: S_6  and  C_9
REMARK    7  A    between atoms: C_12  and  N_15
REMARK    8  A    between atoms: C_16  and  C_18
REMARK    9  A    between atoms: C_18  and  S_19
REMARK   10  A    between atoms: S_19  and  C_20
REMARK   11  A    between atoms: N_25  and  N_26
REMARK   12  A    between atoms: C_27  and  C_28
REMARK                            x       y       z     vdW  Elec       q    Type
REMARK                         _______ _______ _______ _____ _____    ______ ____
ROOT
ATOM      1  N   UNL     1       5.641  -3.435  -0.070  0.00  0.00    -0.285 N 
ATOM      2  C   UNL     1       6.280  -2.402  -0.656  0.00  0.00    +0.227 C 
ATOM      3  O   UNL     1       7.349  -2.580  -1.200  0.00  0.00    -0.275 OA
ATOM      4  H   UNL     1       4.710  -3.260   0.488  0.00  0.00    +0.155 HD
ENDROOT
BRANCH   1   8
ATOM      5  C   UNL     1       7.196  -7.288  -0.375  0.00  0.00    +0.106 A 
ATOM      6  C   UNL     1       8.050  -6.205  -0.282  0.00  0.00    +0.030 A 
ATOM      7  C   UNL     1       7.538  -4.926  -0.181  0.00  0.00    +0.025 A 
ATOM      8  C   UNL     1       6.163  -4.729  -0.172  0.00  0.00    +0.034 A 
ATOM      9  C   UNL     1       5.308  -5.819  -0.260  0.00  0.00    +0.025 A 
ATOM     10  C   UNL     1       5.826  -7.095  -0.367  0.00  0.00    +0.030 A 
BRANCH   5  11
ATOM     11  S   UNL     1       7.853  -8.918  -0.504  0.00  0.00    +0.061 S 
ATOM     12  O   UNL     1       6.852  -9.711  -1.126  0.00  0.00    -0.153 OA
ATOM     13  O   UNL     1       9.163  -8.786  -1.038  0.00  0.00    -0.153 OA
BRANCH  11  14
ATOM     14  N   UNL     1       8.027  -9.499   1.037  0.00  0.00    -0.177 NA
BRANCH  14  16
ATOM     15  C   UNL     1       7.128 -11.731   1.475  0.00  0.00    +0.022 C 
ATOM     16  C   UNL     1       6.927 -10.227   1.674  0.00  0.00    +0.106 C 
ENDBRANCH  14  16
BRANCH  14  17
ATOM     17  C   UNL     1       9.281  -9.285   1.764  0.00  0.00    +0.106 C 
ATOM     18  C   UNL     1       9.156  -8.036   2.640  0.00  0.00    +0.022 C 
ENDBRANCH  14  17
ENDBRANCH  11  14
ENDBRANCH   5  11
ENDBRANCH   1   8
BRANCH   2  19
ATOM     19  C   UNL     1       5.665  -1.027  -0.635  0.00  0.00    +0.173 C 
BRANCH  19  20
ATOM     20  S   UNL     1       6.756   0.137  -1.499  0.00  0.00    -0.075 S 
BRANCH  20  21
ATOM     21  C   UNL     1       5.909   1.678  -1.389  0.00  0.00    +0.211 A 
ATOM     22  N   UNL     1       6.341   2.869  -1.898  0.00  0.00    -0.186 NA
ATOM     23  C   UNL     1       5.403   3.820  -1.603  0.00  0.00    +0.232 A 
ATOM     24  N   UNL     1       4.433   3.239  -0.940  0.00  0.00    -0.245 N 
ATOM     25  N   UNL     1       4.753   1.882  -0.804  0.00  0.00    -0.144 NA
ATOM     26  N   UNL     1       5.470   5.163  -1.942  0.00  0.00    -0.205 N 
ATOM     27  H   UNL     1       6.337   5.548  -2.498  0.00  0.00    +0.177 HD
ATOM     28  H   UNL     1       3.568   3.829  -0.602  0.00  0.00    +0.192 HD
BRANCH  26  29
ATOM     29  N   UNL     1       4.432   6.030  -1.574  0.00  0.00    -0.187 NA
ATOM     30  C   UNL     1       4.494   7.290  -1.891  0.00  0.00    +0.145 C 
BRANCH  30  31
ATOM     31  C   UNL     1       3.408   8.198  -1.506  0.00  0.00    +0.032 A 
ATOM     32  C   UNL     1       3.281   9.556  -1.743  0.00  0.00    +0.017 A 
ATOM     33  C   UNL     1       2.156  10.197  -1.277  0.00  0.00    +0.008 A 
ATOM     34  C   UNL     1       1.214   9.485  -0.606  0.00  0.00    +0.046 A 
ATOM     35  S   UNL     1       1.902   7.838  -0.618  0.00  0.00    -0.096 S 
ENDBRANCH  30  31
ENDBRANCH  26  29
ENDBRANCH  20  21
ENDBRANCH  19  20
ENDBRANCH   2  19
TORSDOF 10
