REMARK  Name = ZINC09963675
REMARK  12 active torsions:
REMARK  status: ('A' for Active; 'I' for Inactive)
REMARK    1  A    between atoms: C_1  and  S_2
REMARK    2  A    between atoms: S_2  and  C_3
REMARK    3  A    between atoms: C_6  and  S_12
REMARK    4  A    between atoms: C_8  and  N_9
REMARK    5  A    between atoms: S_12  and  N_15
REMARK    6  A    between atoms: N_15  and  C_16
REMARK    7  A    between atoms: C_16  and  C_17
REMARK    8  A    between atoms: C_17  and  O_19
REMARK    9  A    between atoms: O_19  and  C_20
REMARK   10  A    between atoms: C_20  and  C_21
REMARK   11  A    between atoms: N_23  and  C_24
REMARK   12  A    between atoms: C_24  and  C_30
REMARK                            x       y       z     vdW  Elec       q    Type
REMARK                         _______ _______ _______ _____ _____    ______ ____
ROOT
ATOM      1  C   UNL     1       0.999  -2.723   6.402  0.00  0.00    +0.226 C 
ENDROOT
BRANCH   1   2
ATOM      2  N   UNL     1       2.006  -1.661   6.461  0.00  0.00    -0.179 NA
ATOM      3  H   UNL     1       2.018  -1.044   7.210  0.00  0.00    +0.149 HD
BRANCH   2   4
ATOM      4  S   UNL     1       3.126  -1.513   5.250  0.00  0.00    +0.059 S 
ATOM      5  O   UNL     1       3.671  -2.808   5.040  0.00  0.00    -0.153 OA
ATOM      6  O   UNL     1       3.934  -0.391   5.579  0.00  0.00    -0.153 OA
BRANCH   4  10
ATOM      7  C   UNL     1       0.877  -0.427   1.472  0.00  0.00    +0.038 A 
ATOM      8  C   UNL     1       1.350   0.574   2.313  0.00  0.00    +0.019 A 
ATOM      9  C   UNL     1       2.034   0.239   3.464  0.00  0.00    +0.030 A 
ATOM     10  C   UNL     1       2.251  -1.090   3.781  0.00  0.00    +0.107 A 
ATOM     11  C   UNL     1       1.782  -2.088   2.946  0.00  0.00    +0.062 A 
ATOM     12  C   UNL     1       1.090  -1.761   1.796  0.00  0.00    +0.141 A 
BRANCH  12  13
ATOM     13  N   UNL     1       0.584  -2.830   0.907  0.00  0.00    +0.058 N 
ATOM     14  O   UNL     1       0.770  -3.990   1.190  0.00  0.00    -0.126 OA
ATOM     15  O   UNL     1      -0.017  -2.542  -0.102  0.00  0.00    -0.126 OA
ENDBRANCH  12  13
BRANCH   7  17
ATOM     16  C   UNL     1      -0.022   1.810   0.012  0.00  0.00    +0.090 C 
ATOM     17  S   UNL     1       0.002  -0.004   0.002  0.00  0.00    -0.126 S 
ENDBRANCH   7  17
ENDBRANCH   4  10
ENDBRANCH   2   4
ENDBRANCH   1   2
BRANCH   1  18
ATOM     18  C   UNL     1       0.353  -2.879   7.755  0.00  0.00    +0.323 C 
ATOM     19  O   UNL     1       0.700  -2.176   8.674  0.00  0.00    -0.249 OA
BRANCH  18  20
ATOM     20  O   UNL     1      -0.606  -3.800   7.938  0.00  0.00    -0.454 OA
BRANCH  20  21
ATOM     21  C   UNL     1      -1.174  -3.894   9.246  0.00  0.00    +0.327 C 
BRANCH  21  22
ATOM     22  C   UNL     1      -2.225  -4.973   9.261  0.00  0.00    +0.252 C 
ATOM     23  O   UNL     1      -2.465  -5.600   8.251  0.00  0.00    -0.272 OA
ATOM     24  N   UNL     1      -2.900  -5.241  10.396  0.00  0.00    -0.295 N 
ATOM     25  H   UNL     1      -2.708  -4.740  11.204  0.00  0.00    +0.150 HD
BRANCH  24  26
ATOM     26  C   UNL     1      -3.922  -6.291  10.411  0.00  0.00    +0.121 C 
ATOM     27  C   UNL     1      -5.020  -5.947   9.402  0.00  0.00    +0.041 C 
ATOM     28  C   UNL     1      -6.087  -7.043   9.417  0.00  0.00    +0.003 C 
ATOM     29  C   UNL     1      -6.695  -7.143  10.817  0.00  0.00    +0.000 C 
ATOM     30  C   UNL     1      -5.598  -7.487  11.826  0.00  0.00    +0.003 C 
ATOM     31  C   UNL     1      -4.530  -6.391  11.811  0.00  0.00    +0.041 C 
BRANCH  26  32
ATOM     32  C   UNL     1      -3.308  -7.579  10.049  0.00  0.00    +0.088 C 
ATOM     33  N   UNL     1      -2.835  -8.573   9.770  0.00  0.00    -0.194 NA
ENDBRANCH  26  32
ENDBRANCH  24  26
ENDBRANCH  21  22
ENDBRANCH  20  21
ENDBRANCH  18  20
ENDBRANCH   1  18
TORSDOF 11
