REMARK  Name = ZINC09354921
REMARK  9 active torsions:
REMARK  status: ('A' for Active; 'I' for Inactive)
REMARK    1  A    between atoms: C_1  and  N_2
REMARK    2  A    between atoms: N_7  and  N_8
REMARK    3  A    between atoms: C_9  and  C_10
REMARK    4  A    between atoms: C_13  and  N_16
REMARK    5  A    between atoms: N_16  and  C_17
REMARK    6  A    between atoms: N_16  and  C_18
REMARK    7  A    between atoms: N_19  and  C_32
REMARK    8  A    between atoms: N_22  and  C_25
REMARK    9  A    between atoms: C_25  and  C_26
REMARK                            x       y       z     vdW  Elec       q    Type
REMARK                         _______ _______ _______ _____ _____    ______ ____
ROOT
ATOM      1  C   UNL     1      -7.553  -0.415   0.028  0.00  0.00    +0.152 C 
ATOM      2  N   UNL     1      -7.265   1.021   0.057  0.00  0.00    -0.308 N 
ATOM      3  C   UNL     1      -8.195   2.051   0.089  0.00  0.00    +0.153 A 
ATOM      4  C   UNL     1      -7.467   3.236   0.101  0.00  0.00    +0.170 A 
ATOM      5  N   UNL     1      -6.173   2.914   0.083  0.00  0.00    -0.195 NA
ATOM      6  C   UNL     1      -6.036   1.603   0.060  0.00  0.00    +0.218 A 
ATOM      7  N   UNL     1      -4.837   0.929   0.036  0.00  0.00    -0.206 N 
ATOM      8  N   UNL     1      -8.152   4.441   0.128  0.00  0.00    -0.279 N 
ATOM      9  C   UNL     1      -9.498   4.450   0.142  0.00  0.00    +0.334 A 
ATOM     10  O   UNL     1     -10.083   5.516   0.166  0.00  0.00    -0.246 OA
ATOM     11  N   UNL     1     -10.211   3.311   0.131  0.00  0.00    -0.255 N 
ATOM     12  C   UNL     1      -9.600   2.108   0.105  0.00  0.00    +0.283 A 
ATOM     13  O   UNL     1     -10.258   1.083   0.096  0.00  0.00    -0.265 OA
ATOM     14  C   UNL     1      -7.411   5.704   0.141  0.00  0.00    +0.155 C 
ATOM     15  H   UNL     1      -4.826  -0.041   0.020  0.00  0.00    +0.177 HD
ENDROOT
BRANCH   7  16
ATOM     16  N   UNL     1      -3.631   1.643   0.036  0.00  0.00    -0.188 NA
ATOM     17  C   UNL     1      -2.500   1.007   0.014  0.00  0.00    +0.138 C 
BRANCH  17  18
ATOM     18  C   UNL     1      -1.232   1.759   0.014  0.00  0.00    -0.005 A 
ATOM     19  C   UNL     1      -0.013   1.076  -0.010  0.00  0.00    +0.011 A 
ATOM     20  C   UNL     1       1.170   1.782  -0.016  0.00  0.00    +0.024 A 
ATOM     21  C   UNL     1       1.153   3.172   0.006  0.00  0.00    +0.029 A 
ATOM     22  C   UNL     1      -0.059   3.855   0.036  0.00  0.00    +0.024 A 
ATOM     23  C   UNL     1      -1.246   3.156   0.043  0.00  0.00    +0.011 A 
BRANCH  21  24
ATOM     24  N   UNL     1       2.353   3.884  -0.001  0.00  0.00    -0.336 N 
ATOM     25  C   UNL     1       3.628   3.169   0.094  0.00  0.00    +0.129 C 
ATOM     26  C   UNL     1       2.337   5.345  -0.104  0.00  0.00    +0.129 C 
ENDBRANCH  21  24
ENDBRANCH  17  18
ENDBRANCH   7  16
BRANCH  11  27
ATOM     27  C   UNL     1     -11.675   3.376   0.147  0.00  0.00    +0.165 C 
BRANCH  27  28
ATOM     28  C   UNL     1     -12.191   3.421  -1.268  0.00  0.00    -0.028 A 
ATOM     29  C   UNL     1     -12.380   4.638  -1.896  0.00  0.00    +0.005 A 
ATOM     30  C   UNL     1     -12.849   4.680  -3.195  0.00  0.00    +0.000 A 
ATOM     31  C   UNL     1     -13.139   3.505  -3.864  0.00  0.00    +0.000 A 
ATOM     32  C   UNL     1     -12.956   2.289  -3.234  0.00  0.00    +0.000 A 
ATOM     33  C   UNL     1     -12.481   2.247  -1.936  0.00  0.00    +0.005 A 
ENDBRANCH  27  28
ENDBRANCH  11  27
TORSDOF 5
