REMARK  Name = ZINC15234949
REMARK  10 active torsions:
REMARK  status: ('A' for Active; 'I' for Inactive)
REMARK    1  A    between atoms: C_1  and  C_2
REMARK    2  A    between atoms: C_2  and  C_3
REMARK    3  A    between atoms: C_3  and  C_25
REMARK    4  A    between atoms: N_6  and  C_10
REMARK    5  A    between atoms: C_10  and  C_11
REMARK    6  A    between atoms: C_11  and  C_13
REMARK    7  A    between atoms: C_11  and  O_24
REMARK    8  A    between atoms: C_13  and  O_14
REMARK    9  A    between atoms: O_14  and  C_15
REMARK   10  A    between atoms: C_19  and  N_21
REMARK                            x       y       z     vdW  Elec       q    Type
REMARK                         _______ _______ _______ _____ _____    ______ ____
ROOT
ATOM      1  C   UNL     1      -2.168  11.671  -0.418  0.00  0.00    +0.138 C 
ATOM      2  C   UNL     1      -2.382  10.251  -0.903  0.00  0.00    +0.251 C 
ATOM      3  O   UNL     1      -2.537   9.883  -2.049  0.00  0.00    -0.272 OA
ATOM      4  N   UNL     1      -2.364   9.481   0.203  0.00  0.00    -0.221 N 
ATOM      5  C   UNL     1      -2.175  10.210   1.308  0.00  0.00    +0.310 C 
ATOM      6  O   UNL     1      -2.126   9.740   2.428  0.00  0.00    -0.252 OA
ATOM      7  N   UNL     1      -2.042  11.522   1.042  0.00  0.00    -0.281 N 
ATOM      8  H   UNL     1      -1.897  12.233   1.686  0.00  0.00    +0.152 HD
ENDROOT
BRANCH   1   9
ATOM      9  C   UNL     1      -3.353  12.534  -0.767  0.00  0.00    -0.015 A 
ATOM     10  C   UNL     1      -3.374  13.226  -1.964  0.00  0.00    +0.009 A 
ATOM     11  C   UNL     1      -4.463  14.014  -2.287  0.00  0.00    +0.039 A 
ATOM     12  C   UNL     1      -5.526  14.120  -1.407  0.00  0.00    +0.123 A 
ATOM     13  C   UNL     1      -5.501  13.431  -0.206  0.00  0.00    +0.039 A 
ATOM     14  C   UNL     1      -4.414  12.639   0.113  0.00  0.00    +0.009 A 
ATOM     15  F   UNL     1      -6.588  14.895  -1.719  0.00  0.00    -0.205 F 
ENDBRANCH   1   9
BRANCH   1  17
ATOM     16  C   UNL     1       0.308  11.389  -0.600  0.00  0.00    +0.007 C 
ATOM     17  C   UNL     1      -0.884  12.255  -1.012  0.00  0.00    +0.037 C 
ENDBRANCH   1  17
BRANCH   4  18
ATOM     18  C   UNL     1      -2.536   8.026   0.196  0.00  0.00    +0.152 C 
BRANCH  18  19
ATOM     19  C   UNL     1      -1.171   7.351   0.054  0.00  0.00    +0.170 C 
BRANCH  19  20
ATOM     20  O   UNL     1      -0.561   7.765  -1.171  0.00  0.00    -0.387 OA
ATOM     21  H   UNL     1      -1.073   7.542  -1.960  0.00  0.00    +0.210 HD
ENDBRANCH  19  20
BRANCH  19  22
ATOM     22  C   UNL     1      -1.350   5.832   0.047  0.00  0.00    +0.261 C 
BRANCH  22  23
ATOM     23  O   UNL     1      -0.069   5.201   0.031  0.00  0.00    -0.489 OA
BRANCH  23  24
ATOM     24  C   UNL     1      -0.050   3.842   0.023  0.00  0.00    +0.123 A 
ATOM     25  C   UNL     1      -1.242   3.131   0.031  0.00  0.00    +0.046 A 
ATOM     26  C   UNL     1      -1.220   1.750   0.017  0.00  0.00    +0.006 A 
ATOM     27  C   UNL     1      -0.013   1.076   0.008  0.00  0.00    +0.033 A 
ATOM     28  C   UNL     1       1.176   1.782   0.000  0.00  0.00    +0.130 A 
ATOM     29  C   UNL     1       1.160   3.164   0.008  0.00  0.00    +0.078 A 
BRANCH  28  30
ATOM     30  N   UNL     1       2.466   1.058  -0.015  0.00  0.00    +0.057 N 
ATOM     31  O   UNL     1       2.481  -0.160  -0.022  0.00  0.00    -0.126 OA
ATOM     32  O   UNL     1       3.514   1.679  -0.022  0.00  0.00    -0.126 OA
ENDBRANCH  28  30
ENDBRANCH  23  24
ENDBRANCH  22  23
ENDBRANCH  19  22
ENDBRANCH  18  19
ENDBRANCH   4  18
TORSDOF 9
