REMARK  Name = ZINC09725327
REMARK  6 active torsions:
REMARK  status: ('A' for Active; 'I' for Inactive)
REMARK    1  A    between atoms: C_2  and  C_3
REMARK    2  A    between atoms: C_3  and  N_4
REMARK    3  A    between atoms: C_8  and  S_23
REMARK    4  A    between atoms: N_13  and  C_14
REMARK    5  A    between atoms: C_14  and  C_16
REMARK    6  A    between atoms: S_23  and  N_26
REMARK                            x       y       z     vdW  Elec       q    Type
REMARK                         _______ _______ _______ _____ _____    ______ ____
ROOT
ATOM      1  N   UNL     1      -1.113   2.242   0.019  0.00  0.00    -0.317 N 
ATOM      2  C   UNL     1      -0.017   1.400   0.010  0.00  0.00    +0.058 A 
ATOM      3  C   UNL     1       0.002  -0.004   0.002  0.00  0.00    +0.029 A 
ATOM      4  C   UNL     1       1.193  -0.691  -0.013  0.00  0.00    +0.030 A 
ATOM      5  C   UNL     1       2.406  -0.024  -0.021  0.00  0.00    +0.106 A 
ATOM      6  C   UNL     1       2.417   1.360  -0.014  0.00  0.00    +0.045 A 
ATOM      7  C   UNL     1       1.227   2.048   0.001  0.00  0.00    +0.041 A 
ATOM      8  S   UNL     1       0.789   3.768   0.014  0.00  0.00    -0.052 S 
ATOM      9  C   UNL     1      -0.936   3.591   0.029  0.00  0.00    +0.167 A 
ATOM     10  N   UNL     1      -1.862   4.544   0.043  0.00  0.00    -0.152 NA
ENDROOT
BRANCH   5  11
ATOM     11  S   UNL     1       3.920  -0.926  -0.040  0.00  0.00    +0.056 S 
ATOM     12  O   UNL     1       4.911  -0.068   0.506  0.00  0.00    -0.153 OA
ATOM     13  O   UNL     1       3.635  -2.207   0.507  0.00  0.00    -0.153 OA
BRANCH  11  14
ATOM     14  N   UNL     1       4.325  -1.169  -1.627  0.00  0.00    -0.204 NA
ATOM     15  H   UNL     1       3.752  -0.828  -2.332  0.00  0.00    +0.144 HD
ATOM     16  H   UNL     1       5.135  -1.653  -1.852  0.00  0.00    +0.144 HD
ENDBRANCH  11  14
ENDBRANCH   5  11
BRANCH  10  17
ATOM     17  C   UNL     1      -1.497   5.830   0.046  0.00  0.00    +0.271 C 
ATOM     18  O   UNL     1      -0.316   6.129   0.037  0.00  0.00    -0.268 OA
BRANCH  17  19
ATOM     19  C   UNL     1      -2.529   6.892   0.062  0.00  0.00    +0.053 A 
ATOM     20  C   UNL     1      -3.883   6.553   0.072  0.00  0.00    +0.014 A 
ATOM     21  C   UNL     1      -4.839   7.547   0.086  0.00  0.00    +0.001 A 
ATOM     22  C   UNL     1      -4.460   8.878   0.090  0.00  0.00    +0.001 A 
ATOM     23  C   UNL     1      -3.120   9.221   0.080  0.00  0.00    +0.016 A 
ATOM     24  C   UNL     1      -2.152   8.236   0.071  0.00  0.00    +0.030 A 
ATOM     25 BR   UNL     1      -0.321   8.706   0.066  0.00  0.00    -0.050 Br
ENDBRANCH  17  19
ENDBRANCH  10  17
BRANCH   1  26
ATOM     26  C   UNL     1      -2.466   1.682   0.023  0.00  0.00    +0.151 C 
BRANCH  26  28
ATOM     27  C   UNL     1      -4.479   3.059   0.145  0.00  0.00    +0.005 C 
ATOM     28  C   UNL     1      -3.398   2.624   0.742  0.00  0.00    -0.013 C 
ENDBRANCH  26  28
ENDBRANCH   1  26
TORSDOF 6
