REMARK  Name = ZINC33369362
REMARK  4 active torsions:
REMARK  status: ('A' for Active; 'I' for Inactive)
REMARK    1  A    between atoms: C_3  and  N_24
REMARK    2  A    between atoms: C_6  and  C_7
REMARK    3  A    between atoms: C_8  and  C_17
REMARK    4  A    between atoms: C_17  and  N_18
REMARK                            x       y       z     vdW  Elec       q    Type
REMARK                         _______ _______ _______ _____ _____    ______ ____
ROOT
ATOM      1  C   UNL     1       2.889  -2.095  -0.070  0.00  0.00    +0.094 A 
ATOM      2  C   UNL     1       3.414  -0.872   0.222  0.00  0.00    +0.065 A 
ATOM      3  N   UNL     1       2.387   0.029   0.168  0.00  0.00    -0.300 N 
ATOM      4  C   UNL     1       2.336   1.378   0.370  0.00  0.00    +0.113 A 
ATOM      5  C   UNL     1       1.169   2.047   0.253  0.00  0.00    +0.058 A 
ATOM      6  C   UNL     1      -0.012   1.360  -0.080  0.00  0.00    +0.025 A 
ATOM      7  C   UNL     1       0.026   0.016  -0.284  0.00  0.00    +0.048 A 
ATOM      8  C   UNL     1       1.252  -0.669  -0.158  0.00  0.00    +0.139 A 
ATOM      9  N   UNL     1       1.575  -1.946  -0.297  0.00  0.00    -0.227 NA
ATOM     10 CL   UNL     1       1.125   3.763   0.514  0.00  0.00    -0.082 Cl
ENDROOT
BRANCH   1  16
ATOM     11  C   UNL     1       4.884  -3.425  -0.757  0.00  0.00    +0.012 A 
ATOM     12  C   UNL     1       5.582  -4.615  -0.803  0.00  0.00    +0.033 A 
ATOM     13  C   UNL     1       5.046  -5.756  -0.234  0.00  0.00    +0.126 A 
ATOM     14  C   UNL     1       3.812  -5.711   0.389  0.00  0.00    +0.033 A 
ATOM     15  C   UNL     1       3.107  -4.525   0.445  0.00  0.00    +0.012 A 
ATOM     16  C   UNL     1       3.642  -3.373  -0.127  0.00  0.00    +0.002 A 
BRANCH  13  17
ATOM     17  N   UNL     1       5.797  -7.031  -0.292  0.00  0.00    +0.056 N 
ATOM     18  O   UNL     1       5.327  -8.037   0.208  0.00  0.00    -0.126 OA
ATOM     19  O   UNL     1       6.884  -7.073  -0.839  0.00  0.00    -0.126 OA
ENDBRANCH  13  17
ENDBRANCH   1  16
BRANCH   2  20
ATOM     20  C   UNL     1       4.855  -0.569   0.544  0.00  0.00    +0.140 C 
BRANCH  20  21
ATOM     21  N   UNL     1       5.031  -0.523   2.002  0.00  0.00    -0.300 NA
ATOM     22  C   UNL     1       4.374  -1.667   2.649  0.00  0.00    +0.066 C 
ATOM     23  C   UNL     1       4.512  -1.540   4.168  0.00  0.00    -0.067 C 
ATOM     24  N   UNL     1       5.936  -1.484   4.524  0.00  0.00    +0.381 N 
ATOM     25  C   UNL     1       6.593  -0.340   3.878  0.00  0.00    -0.067 C 
ATOM     26  C   UNL     1       6.455  -0.467   2.359  0.00  0.00    +0.066 C 
ATOM     27  H   UNL     1       6.037  -1.380   5.615  0.00  0.00    -0.086 HD
ATOM     28  H   UNL     1       6.433  -2.409   4.197  0.00  0.00    -0.086 HD
ENDBRANCH  20  21
ENDBRANCH   2  20
TORSDOF 4
