REMARK  Name = ZINC13053106
REMARK  12 active torsions:
REMARK  status: ('A' for Active; 'I' for Inactive)
REMARK    1  A    between atoms: C_1  and  C_2
REMARK    2  A    between atoms: C_2  and  C_3
REMARK    3  A    between atoms: C_2  and  C_4
REMARK    4  A    between atoms: C_4  and  C_5
REMARK    5  A    between atoms: C_4  and  C_6
REMARK    6  A    between atoms: C_4  and  N_8
REMARK    7  A    between atoms: C_9  and  C_11
REMARK    8  A    between atoms: C_11  and  S_12
REMARK    9  A    between atoms: S_12  and  C_13
REMARK   10  A    between atoms: C_17  and  C_31
REMARK   11  A    between atoms: N_23  and  C_24
REMARK   12  A    between atoms: C_24  and  C_25
REMARK                            x       y       z     vdW  Elec       q    Type
REMARK                         _______ _______ _______ _____ _____    ______ ____
ROOT
ATOM      1  C   UNL     1       4.017   1.961  -0.026  0.00  0.00    +0.173 A 
ATOM      2  N   UNL     1       3.749   3.244  -0.016  0.00  0.00    -0.223 NA
ATOM      3  C   UNL     1       4.734   4.173  -0.021  0.00  0.00    +0.080 A 
ATOM      4  C   UNL     1       4.446   5.540  -0.010  0.00  0.00    +0.043 A 
ATOM      5  C   UNL     1       5.489   6.458  -0.015  0.00  0.00    +0.065 A 
ATOM      6  C   UNL     1       6.820   6.020  -0.029  0.00  0.00    +0.016 A 
ATOM      7  C   UNL     1       7.113   4.687  -0.040  0.00  0.00    +0.016 A 
ATOM      8  C   UNL     1       6.082   3.748  -0.036  0.00  0.00    +0.065 A 
ATOM      9  C   UNL     1       6.353   2.302  -0.046  0.00  0.00    +0.262 A 
ATOM     10  O   UNL     1       7.492   1.874  -0.059  0.00  0.00    -0.267 OA
ATOM     11  N   UNL     1       5.289   1.465  -0.035  0.00  0.00    -0.285 N 
ENDROOT
BRANCH   5  12
ATOM     12  C   UNL     1       5.193   7.907  -0.004  0.00  0.00    +0.387 C 
ATOM     13  O   UNL     1       4.041   8.291   0.009  0.00  0.00    -0.241 OA
ATOM     14  O   UNL     1       6.201   8.801  -0.008  0.00  0.00    -0.241 OA
ENDBRANCH   5  12
BRANCH   1  15
ATOM     15  S   UNL     1       2.672   0.823  -0.019  0.00  0.00    -0.078 S 
BRANCH  15  16
ATOM     16  C   UNL     1       1.280   1.980   0.001  0.00  0.00    +0.173 C 
BRANCH  16  18
ATOM     17  N   UNL     1      -1.191   1.867   0.018  0.00  0.00    -0.297 N 
ATOM     18  C   UNL     1      -0.014   1.209   0.009  0.00  0.00    +0.224 C 
ATOM     19  O   UNL     1       0.002  -0.004   0.002  0.00  0.00    -0.275 OA
ATOM     20  H   UNL     1      -1.204   2.837   0.023  0.00  0.00    +0.150 HD
BRANCH  17  21
ATOM     21  C   UNL     1      -2.449   1.117   0.020  0.00  0.00    +0.121 C 
ATOM     22  C   UNL     1      -2.524   0.243  -1.234  0.00  0.00    +0.048 C 
BRANCH  21  24
ATOM     23  C   UNL     1      -3.634   2.897  -1.272  0.00  0.00    +0.010 C 
ATOM     24  C   UNL     1      -3.626   2.095   0.031  0.00  0.00    +0.020 C 
ATOM     25  C   UNL     1      -4.936   1.316   0.158  0.00  0.00    +0.010 C 
ENDBRANCH  21  24
BRANCH  21  26
ATOM     26  C   UNL     1      -2.510   0.263   1.217  0.00  0.00    +0.088 C 
ATOM     27  N   UNL     1      -2.557  -0.396   2.142  0.00  0.00    -0.194 NA
ENDBRANCH  21  26
ENDBRANCH  17  21
ENDBRANCH  16  18
ENDBRANCH  15  16
ENDBRANCH   1  15
BRANCH  11  28
ATOM     28  C   UNL     1       5.505   0.016  -0.039  0.00  0.00    +0.159 C 
BRANCH  28  29
ATOM     29  C   UNL     1       5.570  -0.486  -1.482  0.00  0.00    +0.138 C 
ATOM     30  C   UNL     1       5.726  -2.027  -1.509  0.00  0.00    +0.035 C 
ATOM     31  C   UNL     1       5.135  -2.360  -2.906  0.00  0.00    +0.031 C 
ATOM     32  C   UNL     1       4.021  -1.300  -3.051  0.00  0.00    +0.160 C 
ATOM     33  O   UNL     1       4.330  -0.223  -2.158  0.00  0.00    -0.375 OA
ENDBRANCH  28  29
ENDBRANCH  11  28
TORSDOF 9
