REMARK  Name = ZINC02097293
REMARK  10 active torsions:
REMARK  status: ('A' for Active; 'I' for Inactive)
REMARK    1  A    between atoms: C_1  and  C_2
REMARK    2  A    between atoms: C_2  and  C_4
REMARK    3  A    between atoms: C_2  and  S_14
REMARK    4  A    between atoms: N_6  and  N_7
REMARK    5  A    between atoms: C_8  and  C_9
REMARK    6  A    between atoms: S_14  and  C_15
REMARK    7  A    between atoms: C_18  and  C_26
REMARK    8  A    between atoms: N_19  and  C_20
REMARK    9  A    between atoms: C_26  and  N_27
REMARK   10  A    between atoms: N_27  and  C_28
REMARK                            x       y       z     vdW  Elec       q    Type
REMARK                         _______ _______ _______ _____ _____    ______ ____
ROOT
ATOM      1  C   UNL     1       2.533  -0.042   1.241  0.00  0.00    +0.197 A 
ATOM      2  N   UNL     1       2.986   0.657   0.226  0.00  0.00    -0.122 NA
ATOM      3  N   UNL     1       4.239   0.894   0.381  0.00  0.00    -0.132 NA
ATOM      4  C   UNL     1       4.661   0.366   1.496  0.00  0.00    +0.156 A 
ATOM      5  N   UNL     1       3.588  -0.245   2.088  0.00  0.00    -0.273 N 
ENDROOT
BRANCH   5   6
ATOM      6  C   UNL     1       3.574  -0.938   3.308  0.00  0.00    +0.050 A 
ATOM      7  C   UNL     1       3.814  -0.260   4.495  0.00  0.00    +0.026 A 
ATOM      8  C   UNL     1       3.799  -0.944   5.695  0.00  0.00    +0.002 A 
ATOM      9  C   UNL     1       3.546  -2.303   5.714  0.00  0.00    +0.000 A 
ATOM     10  C   UNL     1       3.306  -2.981   4.533  0.00  0.00    +0.002 A 
ATOM     11  C   UNL     1       3.314  -2.301   3.331  0.00  0.00    +0.026 A 
ENDBRANCH   5   6
BRANCH   1  12
ATOM     12  S   UNL     1       0.879  -0.605   1.472  0.00  0.00    -0.073 S 
BRANCH  12  14
ATOM     13  C   UNL     1      -0.019   1.526   0.010  0.00  0.00    +0.029 C 
ATOM     14  C   UNL     1       0.002  -0.004   0.002  0.00  0.00    +0.139 C 
BRANCH  14  15
ATOM     15  C   UNL     1      -1.412  -0.526   0.013  0.00  0.00    +0.245 C 
ATOM     16  O   UNL     1      -1.939  -0.827   1.063  0.00  0.00    -0.273 OA
ATOM     17  N   UNL     1      -2.090  -0.657  -1.144  0.00  0.00    -0.206 N 
ATOM     18  H   UNL     1      -1.669  -0.416  -1.984  0.00  0.00    +0.177 HD
BRANCH  17  19
ATOM     19  N   UNL     1      -3.405  -1.142  -1.134  0.00  0.00    -0.185 NA
ATOM     20  C   UNL     1      -4.059  -1.269  -2.251  0.00  0.00    +0.176 C 
BRANCH  20  21
ATOM     21  C   UNL     1      -5.435  -1.777  -2.241  0.00  0.00    +0.147 A 
ATOM     22  C   UNL     1      -6.229  -1.963  -3.335  0.00  0.00    +0.051 A 
ATOM     23  C   UNL     1      -7.457  -2.461  -2.863  0.00  0.00    +0.042 A 
ATOM     24  C   UNL     1      -7.358  -2.554  -1.521  0.00  0.00    +0.196 A 
ATOM     25  O   UNL     1      -6.134  -2.146  -1.149  0.00  0.00    -0.462 OA
ENDBRANCH  20  21
ENDBRANCH  17  19
ENDBRANCH  14  15
ENDBRANCH  12  14
ENDBRANCH   1  12
BRANCH   4  26
ATOM     26  C   UNL     1       6.066   0.423   2.035  0.00  0.00    +0.178 C 
BRANCH  26  27
ATOM     27  N   UNL     1       6.218   1.611   2.880  0.00  0.00    -0.336 N 
ATOM     28  H   UNL     1       5.467   2.211   3.011  0.00  0.00    +0.147 HD
BRANCH  27  29
ATOM     29  C   UNL     1       7.439   1.878   3.494  0.00  0.00    +0.035 A 
ATOM     30  C   UNL     1       8.512   1.032   3.306  0.00  0.00    +0.023 A 
ATOM     31  C   UNL     1       9.736   1.290   3.914  0.00  0.00    +0.002 A 
ATOM     32  C   UNL     1       9.910   2.382   4.710  0.00  0.00    +0.008 A 
ATOM     33  C   UNL     1       8.842   3.269   4.926  0.00  0.00    -0.016 A 
ATOM     34  C   UNL     1       7.592   3.021   4.308  0.00  0.00    +0.003 A 
ATOM     35  C   UNL     1       6.528   3.911   4.522  0.00  0.00    +0.010 A 
ATOM     36  C   UNL     1       6.712   5.003   5.314  0.00  0.00    +0.001 A 
ATOM     37  C   UNL     1       7.942   5.252   5.918  0.00  0.00    +0.001 A 
ATOM     38  C   UNL     1       8.993   4.404   5.743  0.00  0.00    +0.008 A 
ENDBRANCH  27  29
ENDBRANCH  26  27
ENDBRANCH   4  26
TORSDOF 9
