REMARK  Name = ZINC04030399
REMARK  6 active torsions:
REMARK  status: ('A' for Active; 'I' for Inactive)
REMARK    1  A    between atoms: C_1  and  C_2
REMARK    2  A    between atoms: C_3  and  C_27
REMARK    3  A    between atoms: C_4  and  C_21
REMARK    4  A    between atoms: C_10  and  S_12
REMARK    5  A    between atoms: S_12  and  C_13
REMARK    6  A    between atoms: C_13  and  C_14
REMARK                            x       y       z     vdW  Elec       q    Type
REMARK                         _______ _______ _______ _____ _____    ______ ____
ROOT
ATOM      1  C   UNL     1       0.436   1.368  -0.013  0.00  0.00    +0.064 C 
ATOM      2  C   UNL     1       0.254  -0.128   0.016  0.00  0.00    +0.026 C 
ATOM      3  C   UNL     1      -1.013  -0.642   0.002  0.00  0.00    +0.059 C 
ATOM      4  C   UNL     1      -1.148  -2.154   0.032  0.00  0.00    +0.166 C 
ATOM      5  N   UNL     1       0.107  -2.914   0.072  0.00  0.00    -0.187 N 
ATOM      6  C   UNL     1       1.300  -2.229   0.081  0.00  0.00    +0.217 C 
ATOM      7  N   UNL     1       1.326  -0.903   0.048  0.00  0.00    -0.330 N 
ATOM      8  N   UNL     1       2.284  -3.137   0.119  0.00  0.00    -0.190 NA
ATOM      9  C   UNL     1       1.781  -4.359   0.135  0.00  0.00    +0.197 C 
ATOM     10  N   UNL     1       0.415  -4.276   0.107  0.00  0.00    -0.118 NA
ATOM     11  H   UNL     1       2.194  -0.471   0.052  0.00  0.00    +0.168 HD
ENDROOT
BRANCH   4  12
ATOM     12  C   UNL     1      -1.959  -2.530   1.246  0.00  0.00    -0.018 A 
ATOM     13  C   UNL     1      -1.434  -2.387   2.521  0.00  0.00    +0.025 A 
ATOM     14  C   UNL     1      -2.207  -2.741   3.611  0.00  0.00    +0.111 A 
ATOM     15  N   UNL     1      -3.429  -3.211   3.447  0.00  0.00    -0.263 NA
ATOM     16  C   UNL     1      -3.959  -3.360   2.249  0.00  0.00    +0.111 A 
ATOM     17  C   UNL     1      -3.248  -3.021   1.114  0.00  0.00    +0.025 A 
ENDBRANCH   4  12
BRANCH   3  18
ATOM     18  C   UNL     1      -2.142   0.194  -0.037  0.00  0.00    +0.241 C 
ATOM     19  O   UNL     1      -2.010   1.402   0.056  0.00  0.00    -0.271 OA
ATOM     20  N   UNL     1      -3.372  -0.341  -0.177  0.00  0.00    -0.325 N 
ATOM     21  H   UNL     1      -3.484  -1.304  -0.181  0.00  0.00    +0.145 HD
ATOM     22  H   UNL     1      -4.144   0.238  -0.273  0.00  0.00    +0.145 HD
ENDBRANCH   3  18
BRANCH   9  23
ATOM     23  S   UNL     1       2.717  -5.851   0.185  0.00  0.00    -0.082 S 
BRANCH  23  24
ATOM     24  C   UNL     1       4.441  -5.287   0.207  0.00  0.00    +0.115 C 
BRANCH  24  25
ATOM     25  C   UNL     1       5.359  -6.482   0.250  0.00  0.00    -0.002 A 
ATOM     26  C   UNL     1       5.752  -7.008   1.466  0.00  0.00    +0.007 A 
ATOM     27  C   UNL     1       6.594  -8.103   1.506  0.00  0.00    +0.000 A 
ATOM     28  C   UNL     1       7.045  -8.674   0.329  0.00  0.00    +0.003 A 
ATOM     29  C   UNL     1       6.652  -8.150  -0.887  0.00  0.00    +0.038 A 
ATOM     30  C   UNL     1       5.804  -7.056  -0.929  0.00  0.00    +0.127 A 
ATOM     31  F   UNL     1       5.417  -6.545  -2.118  0.00  0.00    -0.205 F 
ENDBRANCH  24  25
ENDBRANCH  23  24
ENDBRANCH   9  23
TORSDOF 5
