REMARK  Name = ZINC39693376
REMARK  14 active torsions:
REMARK  status: ('A' for Active; 'I' for Inactive)
REMARK    1  A    between atoms: C_1  and  C_2
REMARK    2  A    between atoms: C_2  and  C_3
REMARK    3  A    between atoms: C_2  and  C_4
REMARK    4  A    between atoms: C_2  and  O_5
REMARK    5  A    between atoms: O_5  and  C_6
REMARK    6  A    between atoms: N_8  and  C_9
REMARK    7  A    between atoms: C_9  and  C_10
REMARK    8  A    between atoms: C_10  and  N_11
REMARK    9  A    between atoms: C_12  and  C_14
REMARK   10  A    between atoms: C_25  and  C_27
REMARK   11  A    between atoms: C_29  and  O_35
REMARK   12  A    between atoms: C_31  and  O_33
REMARK   13  A    between atoms: O_33  and  C_34
REMARK   14  A    between atoms: O_35  and  C_36
REMARK                            x       y       z     vdW  Elec       q    Type
REMARK                         _______ _______ _______ _____ _____    ______ ____
ROOT
ATOM      1  C   UNL     1       7.592   0.095  -5.721  0.00  0.00    +0.100 C 
ATOM      2  C   UNL     1       7.971   1.592  -5.774  0.00  0.00    +0.121 C 
ATOM      3  N   UNL     1       9.095   1.659  -6.738  0.00  0.00    -0.296 N 
ATOM      4  C   UNL     1       8.721   0.702  -7.807  0.00  0.00    +0.115 C 
ATOM      5  C   UNL     1       8.085  -0.485  -7.057  0.00  0.00    -0.004 C 
ATOM      6  C   UNL     1       9.127  -1.572  -6.809  0.00  0.00    -0.010 C 
ATOM      7  C   UNL     1       9.560  -2.172  -8.149  0.00  0.00    -0.082 C 
ATOM      8  N   UNL     1       8.391  -2.735  -8.836  0.00  0.00    +0.379 N 
ATOM      9  C   UNL     1       7.435  -1.667  -9.153  0.00  0.00    -0.082 C 
ATOM     10  C   UNL     1       6.912  -1.045  -7.856  0.00  0.00    -0.010 C 
ATOM     11  C   UNL     1      10.205   2.419  -6.660  0.00  0.00    +0.247 C 
ATOM     12  O   UNL     1      10.432   3.063  -5.655  0.00  0.00    -0.270 OA
ATOM     13  H   UNL     1       8.688  -3.183  -9.690  0.00  0.00    -0.086 HD
ATOM     14  H   UNL     1       7.947  -3.416  -8.238  0.00  0.00    -0.086 HD
ENDROOT
BRANCH  11  15
ATOM     15  C   UNL     1      11.147   2.470  -7.799  0.00  0.00    +0.044 A 
ATOM     16  C   UNL     1      10.719   2.113  -9.078  0.00  0.00    +0.059 A 
ATOM     17  C   UNL     1      11.604   2.162 -10.142  0.00  0.00    +0.124 A 
ATOM     18  C   UNL     1      12.916   2.565  -9.937  0.00  0.00    +0.091 A 
ATOM     19  C   UNL     1      13.346   2.920  -8.667  0.00  0.00    +0.124 A 
ATOM     20  C   UNL     1      12.466   2.880  -7.599  0.00  0.00    +0.059 A 
BRANCH  19  21
ATOM     21  O   UNL     1      14.632   3.314  -8.472  0.00  0.00    -0.495 OA
ATOM     22  C   UNL     1      15.485   3.338  -9.618  0.00  0.00    +0.277 C 
ENDBRANCH  19  21
BRANCH  17  23
ATOM     23  O   UNL     1      11.188   1.814 -11.388  0.00  0.00    -0.495 OA
ATOM     24  C   UNL     1      12.154   1.888 -12.439  0.00  0.00    +0.277 C 
ENDBRANCH  17  23
ENDBRANCH  11  15
BRANCH   1  26
ATOM     25  N   UNL     1       5.584  -1.131  -4.957  0.00  0.00    -0.314 N 
ATOM     26  C   UNL     1       6.098  -0.064  -5.599  0.00  0.00    +0.218 C 
ATOM     27  O   UNL     1       5.359   0.769  -6.080  0.00  0.00    -0.275 OA
ATOM     28  H   UNL     1       6.175  -1.797  -4.572  0.00  0.00    +0.149 HD
BRANCH  25  29
ATOM     29  C   UNL     1       4.132  -1.285  -4.839  0.00  0.00    +0.123 C 
BRANCH  29  30
ATOM     30  C   UNL     1       3.816  -2.570  -4.070  0.00  0.00    +0.126 C 
BRANCH  30  33
ATOM     31  C   UNL     1       1.849  -3.791  -3.310  0.00  0.00    +0.401 C 
ATOM     32  O   UNL     1       2.590  -4.625  -2.828  0.00  0.00    -0.226 OA
ATOM     33  N   UNL     1       2.364  -2.724  -3.952  0.00  0.00    -0.280 N 
ATOM     34  H   UNL     1       1.773  -2.058  -4.337  0.00  0.00    +0.152 HD
BRANCH  31  35
ATOM     35  O   UNL     1       0.515  -3.933  -3.201  0.00  0.00    -0.445 OA
BRANCH  35  37
ATOM     36  C   UNL     1       0.569  -5.074  -1.072  0.00  0.00    +0.055 C 
ATOM     37  C   UNL     1       0.039  -5.088  -2.507  0.00  0.00    +0.107 C 
ATOM     38  C   UNL     1       0.530  -6.349  -3.220  0.00  0.00    +0.055 C 
ATOM     39  C   UNL     1      -1.490  -5.076  -2.486  0.00  0.00    +0.055 C 
ENDBRANCH  35  37
ENDBRANCH  31  35
ENDBRANCH  30  33
ENDBRANCH  29  30
ENDBRANCH  25  29
ENDBRANCH   1  26
TORSDOF 9
