REMARK  Name = ZINC08325783
REMARK  6 active torsions:
REMARK  status: ('A' for Active; 'I' for Inactive)
REMARK    1  A    between atoms: C_1  and  N_2
REMARK    2  A    between atoms: C_6  and  C_7
REMARK    3  A    between atoms: C_12  and  C_13
REMARK    4  A    between atoms: C_12  and  N_50
REMARK    5  A    between atoms: N_15  and  C_16
REMARK    6  A    between atoms: C_17  and  C_24
REMARK                            x       y       z     vdW  Elec       q    Type
REMARK                         _______ _______ _______ _____ _____    ______ ____
ROOT
ATOM      1  C   UNL     1      -2.933   4.739  -1.031  0.00  0.00    +0.201 C 
ATOM      2  O   UNL     1      -2.134   5.441  -0.448  0.00  0.00    -0.278 OA
ATOM      3  N   UNL     1      -4.106   5.256  -1.448  0.00  0.00    -0.281 N 
ATOM      4  H   UNL     1      -4.745   4.694  -1.914  0.00  0.00    +0.155 HD
ENDROOT
BRANCH   3   5
ATOM      5  C   UNL     1      -4.400   6.590  -1.209  0.00  0.00    +0.084 A 
ATOM      6  C   UNL     1      -5.537   7.296  -1.560  0.00  0.00    +0.068 A 
ATOM      7  C   UNL     1      -5.600   8.708  -1.184  0.00  0.00    -0.023 A 
ATOM      8  C   UNL     1      -4.520   9.174  -0.532  0.00  0.00    -0.004 A 
ATOM      9  S   UNL     1      -3.430   7.777  -0.406  0.00  0.00    -0.077 S 
ATOM     10  C   UNL     1      -4.658  10.631  -0.181  0.00  0.00    +0.043 C 
ATOM     11  C   UNL     1      -6.168  10.924  -0.322  0.00  0.00    +0.010 C 
ATOM     12  C   UNL     1      -6.602   9.853  -1.343  0.00  0.00    +0.037 C 
BRANCH   6  13
ATOM     13  C   UNL     1      -6.640   6.652  -2.280  0.00  0.00    +0.244 C 
ATOM     14  O   UNL     1      -7.544   6.123  -1.661  0.00  0.00    -0.270 OA
ATOM     15  N   UNL     1      -6.652   6.645  -3.628  0.00  0.00    -0.325 N 
ATOM     16  H   UNL     1      -5.931   7.066  -4.122  0.00  0.00    +0.145 HD
ATOM     17  H   UNL     1      -7.382   6.219  -4.104  0.00  0.00    +0.145 HD
ENDBRANCH   6  13
ENDBRANCH   3   5
BRANCH   1  18
ATOM     18  C   UNL     1      -2.614   3.289  -1.291  0.00  0.00    +0.020 C 
BRANCH  18  23
ATOM     19  C   UNL     1      -0.837   1.636  -1.182  0.00  0.00    -0.020 C 
ATOM     20  C   UNL     1      -0.013   1.086   0.008  0.00  0.00    -0.011 C 
ATOM     21  C   UNL     1      -0.815   1.624   1.222  0.00  0.00    -0.020 C 
ATOM     22  C   UNL     1      -1.304   3.004   0.731  0.00  0.00    -0.077 C 
ATOM     23  N   UNL     1      -1.269   2.977  -0.741  0.00  0.00    +0.391 N 
ATOM     24  H   UNL     1      -0.598   3.678  -1.077  0.00  0.00    -0.080 HD
BRANCH  19  30
ATOM     25  C   UNL     1       0.784  -0.647  -2.513  0.00  0.00    +0.148 C 
ATOM     26  N   UNL     1       0.736   0.738  -2.987  0.00  0.00    -0.355 N 
ATOM     27  C   UNL     1       1.393   1.228  -4.077  0.00  0.00    +0.085 A 
ATOM     28  C   UNL     1       1.102   2.540  -4.190  0.00  0.00    +0.019 A 
ATOM     29  C   UNL     1       0.230   2.871  -3.134  0.00  0.00    +0.021 A 
ATOM     30  C   UNL     1       0.028   1.751  -2.411  0.00  0.00    +0.005 A 
ENDBRANCH  19  30
ENDBRANCH  18  23
ENDBRANCH   1  18
TORSDOF 5
