REMARK  Name = ZINC33553008
REMARK  8 active torsions:
REMARK  status: ('A' for Active; 'I' for Inactive)
REMARK    1  A    between atoms: C_1  and  C_2
REMARK    2  A    between atoms: C_4  and  C_28
REMARK    3  A    between atoms: C_5  and  N_11
REMARK    4  A    between atoms: C_6  and  N_8
REMARK    5  A    between atoms: C_12  and  C_14
REMARK    6  A    between atoms: C_14  and  S_15
REMARK    7  A    between atoms: S_15  and  C_16
REMARK    8  A    between atoms: C_19  and  C_21
REMARK                            x       y       z     vdW  Elec       q    Type
REMARK                         _______ _______ _______ _____ _____    ______ ____
ROOT
ATOM      1  N   UNL     1      -0.288  -4.143  -0.239  0.00  0.00    -0.283 N 
ATOM      2  C   UNL     1      -0.247  -4.888   0.883  0.00  0.00    +0.228 C 
ATOM      3  O   UNL     1      -0.002  -4.365   1.950  0.00  0.00    -0.275 OA
ATOM      4  H   UNL     1      -0.404  -4.572  -1.101  0.00  0.00    +0.155 HD
ENDROOT
BRANCH   1   9
ATOM      5  C   UNL     1       0.214   1.499   0.081  0.00  0.00    +0.044 C 
ATOM      6  C   UNL     1       0.081   0.000  -0.004  0.00  0.00    -0.048 A 
ATOM      7  C   UNL     1       1.072  -0.812   0.516  0.00  0.00    +0.008 A 
ATOM      8  C   UNL     1       0.953  -2.185   0.440  0.00  0.00    -0.027 A 
ATOM      9  C   UNL     1      -0.164  -2.752  -0.160  0.00  0.00    +0.067 A 
ATOM     10  C   UNL     1      -1.158  -1.934  -0.681  0.00  0.00    +0.148 A 
ATOM     11  C   UNL     1      -1.035  -0.561  -0.597  0.00  0.00    +0.038 A 
ATOM     12  C   UNL     1       2.034  -3.069   1.007  0.00  0.00    +0.046 C 
BRANCH  10  13
ATOM     13  N   UNL     1      -2.351  -2.533  -1.321  0.00  0.00    +0.058 N 
ATOM     14  O   UNL     1      -3.170  -1.824  -1.858  0.00  0.00    -0.126 OA
ATOM     15  O   UNL     1      -2.506  -3.732  -1.306  0.00  0.00    -0.126 OA
ENDBRANCH  10  13
ENDBRANCH   1   9
BRANCH   2  16
ATOM     16  C   UNL     1      -0.505  -6.371   0.813  0.00  0.00    +0.175 C 
BRANCH  16  17
ATOM     17  S   UNL     1      -0.380  -7.086   2.476  0.00  0.00    -0.056 S 
BRANCH  17  18
ATOM     18  C   UNL     1      -0.703  -8.801   2.228  0.00  0.00    +0.278 A 
ATOM     19  N   UNL     1      -0.964  -9.384   1.081  0.00  0.00    -0.101 NA
ATOM     20  N   UNL     1      -1.147 -10.643   1.273  0.00  0.00    -0.106 NA
ATOM     21  C   UNL     1      -1.012 -10.914   2.549  0.00  0.00    +0.249 A 
ATOM     22  O   UNL     1      -0.722  -9.754   3.179  0.00  0.00    -0.411 OA
BRANCH  21  23
ATOM     23  C   UNL     1      -1.145 -12.243   3.180  0.00  0.00    +0.039 A 
ATOM     24  C   UNL     1      -0.979 -12.383   4.559  0.00  0.00    +0.016 A 
ATOM     25  C   UNL     1      -1.105 -13.626   5.143  0.00  0.00    +0.039 A 
ATOM     26  C   UNL     1      -1.395 -14.735   4.363  0.00  0.00    +0.123 A 
ATOM     27  C   UNL     1      -1.561 -14.601   2.994  0.00  0.00    +0.039 A 
ATOM     28  C   UNL     1      -1.444 -13.362   2.400  0.00  0.00    +0.016 A 
ATOM     29  F   UNL     1      -1.517 -15.950   4.940  0.00  0.00    -0.205 F 
ENDBRANCH  21  23
ENDBRANCH  17  18
ENDBRANCH  16  17
ENDBRANCH   2  16
TORSDOF 6
