REMARK  Name = ZINC10422002
REMARK  10 active torsions:
REMARK  status: ('A' for Active; 'I' for Inactive)
REMARK    1  A    between atoms: C_1  and  C_2
REMARK    2  A    between atoms: C_2  and  O_3
REMARK    3  A    between atoms: O_3  and  C_4
REMARK    4  A    between atoms: C_4  and  C_6
REMARK    5  A    between atoms: C_7  and  C_19
REMARK    6  A    between atoms: C_12  and  C_14
REMARK    7  A    between atoms: C_19  and  S_20
REMARK    8  A    between atoms: S_20  and  C_21
REMARK    9  A    between atoms: N_25  and  C_26
REMARK   10  A    between atoms: C_26  and  C_27
REMARK                            x       y       z     vdW  Elec       q    Type
REMARK                         _______ _______ _______ _____ _____    ______ ____
ROOT
ATOM      1  C   UNL     1      -1.306   2.943  -0.086  0.00  0.00    +0.079 C 
ATOM      2  C   UNL     1      -1.225   1.596  -0.015  0.00  0.00    +0.034 C 
ATOM      3  N   UNL     1      -0.018   0.968   0.093  0.00  0.00    -0.272 N 
ATOM      4  C   UNL     1       1.155   1.613   0.125  0.00  0.00    +0.304 C 
ATOM      5  O   UNL     1       2.180   0.965   0.218  0.00  0.00    -0.252 OA
ATOM      6  N   UNL     1       1.237   2.956   0.059  0.00  0.00    -0.288 N 
ATOM      7  C   UNL     1      -0.011   3.729  -0.054  0.00  0.00    +0.150 C 
ATOM      8  H   UNL     1      -0.009  -0.001   0.144  0.00  0.00    +0.156 HD
ATOM      9  H   UNL     1       2.097   3.403   0.084  0.00  0.00    +0.151 HD
ENDROOT
BRANCH   7  10
ATOM     10  C   UNL     1       0.064   4.552  -1.315  0.00  0.00    +0.015 A 
ATOM     11  C   UNL     1      -0.343   5.827  -1.527  0.00  0.00    +0.013 A 
ATOM     12  C   UNL     1      -0.172   6.385  -2.781  0.00  0.00    +0.008 A 
ATOM     13  C   UNL     1       0.397   5.640  -3.760  0.00  0.00    +0.045 A 
ATOM     14  S   UNL     1       0.717   4.101  -2.914  0.00  0.00    -0.099 S 
ENDBRANCH   7  10
BRANCH   1  15
ATOM     15  C   UNL     1      -2.556   3.595  -0.192  0.00  0.00    +0.339 C 
ATOM     16  O   UNL     1      -3.057   4.115   0.788  0.00  0.00    -0.245 OA
BRANCH  15  17
ATOM     17  O   UNL     1      -3.194   3.643  -1.381  0.00  0.00    -0.462 OA
BRANCH  17  19
ATOM     18  C   UNL     1      -5.020   4.269  -2.835  0.00  0.00    +0.048 C 
ATOM     19  C   UNL     1      -4.453   4.318  -1.415  0.00  0.00    +0.229 C 
ENDBRANCH  17  19
ENDBRANCH  15  17
ENDBRANCH   1  15
BRANCH   2  20
ATOM     20  C   UNL     1      -2.488   0.775  -0.049  0.00  0.00    +0.128 C 
BRANCH  20  21
ATOM     21  S   UNL     1      -2.663   0.004  -1.677  0.00  0.00    -0.079 S 
BRANCH  21  22
ATOM     22  C   UNL     1      -4.176  -0.868  -1.441  0.00  0.00    +0.210 A 
ATOM     23  N   UNL     1      -4.900  -0.894  -0.344  0.00  0.00    -0.102 NA
ATOM     24  N   UNL     1      -5.945  -1.622  -0.511  0.00  0.00    -0.022 NA
ATOM     25  N   UNL     1      -5.961  -2.115  -1.702  0.00  0.00    -0.043 NA
ATOM     26  N   UNL     1      -4.809  -1.642  -2.354  0.00  0.00    -0.218 N 
BRANCH  26  27
ATOM     27  C   UNL     1      -4.385  -1.925  -3.728  0.00  0.00    +0.179 C 
BRANCH  27  28
ATOM     28  C   UNL     1      -3.501  -3.174  -3.741  0.00  0.00    +0.140 C 
ATOM     29  C   UNL     1      -3.085  -3.522  -5.192  0.00  0.00    +0.035 C 
ATOM     30  C   UNL     1      -1.773  -4.314  -4.941  0.00  0.00    +0.031 C 
ATOM     31  C   UNL     1      -1.190  -3.598  -3.703  0.00  0.00    +0.160 C 
ATOM     32  O   UNL     1      -2.268  -2.919  -3.049  0.00  0.00    -0.375 OA
ENDBRANCH  27  28
ENDBRANCH  26  27
ENDBRANCH  21  22
ENDBRANCH  20  21
ENDBRANCH   2  20
TORSDOF 9
