REMARK  Name = ZINC36220163
REMARK  7 active torsions:
REMARK  status: ('A' for Active; 'I' for Inactive)
REMARK    1  A    between atoms: C_1  and  C_2
REMARK    2  A    between atoms: C_11  and  N_33
REMARK    3  A    between atoms: C_13  and  S_15
REMARK    4  A    between atoms: S_15  and  C_16
REMARK    5  A    between atoms: C_16  and  C_17
REMARK    6  A    between atoms: N_19  and  N_20
REMARK    7  A    between atoms: C_26  and  C_29
REMARK                            x       y       z     vdW  Elec       q    Type
REMARK                         _______ _______ _______ _____ _____    ______ ____
ROOT
ATOM      1  C   UNL     1      -1.936  -9.056   1.763  0.00  0.00    +0.174 C 
ENDROOT
BRANCH   1   2
ATOM      2  C   UNL     1      -2.102 -10.479   2.229  0.00  0.00    +0.240 C 
ATOM      3  O   UNL     1      -1.329 -10.947   3.039  0.00  0.00    -0.273 OA
ATOM      4  N   UNL     1      -3.109 -11.234   1.745  0.00  0.00    -0.223 N 
ATOM      5  H   UNL     1      -3.727 -10.860   1.098  0.00  0.00    +0.174 HD
BRANCH   4   6
ATOM      6  N   UNL     1      -3.263 -12.557   2.178  0.00  0.00    -0.137 N 
ATOM      7  C   UNL     1      -2.936 -13.639   1.442  0.00  0.00    +0.263 C 
ATOM      8  O   UNL     1      -2.470 -13.651   0.323  0.00  0.00    -0.271 OA
ATOM      9  C   UNL     1      -3.272 -14.832   2.306  0.00  0.00    +0.114 C 
ATOM     10  C   UNL     1      -2.017 -15.649   2.596  0.00  0.00    +0.035 C 
ATOM     11  C   UNL     1      -2.373 -16.835   3.496  0.00  0.00    +0.006 C 
ATOM     12  C   UNL     1      -3.420 -17.706   2.800  0.00  0.00    -0.014 C 
ATOM     13  C   UNL     1      -4.681 -16.880   2.537  0.00  0.00    +0.006 C 
ATOM     14  C   UNL     1      -4.334 -15.695   1.633  0.00  0.00    +0.035 C 
ATOM     15  C   UNL     1      -3.769 -18.898   3.694  0.00  0.00    +0.007 C 
ATOM     16  N   UNL     1      -3.797 -14.241   3.543  0.00  0.00    -0.284 N 
ATOM     17  C   UNL     1      -3.749 -12.905   3.376  0.00  0.00    +0.326 C 
ATOM     18  O   UNL     1      -4.109 -12.105   4.218  0.00  0.00    -0.251 OA
ATOM     19  H   UNL     1      -4.114 -14.717   4.326  0.00  0.00    +0.151 HD
ENDBRANCH   4   6
ENDBRANCH   1   2
BRANCH   1  20
ATOM     20  S   UNL     1      -0.503  -8.313   2.590  0.00  0.00    -0.077 S 
BRANCH  20  32
ATOM     21  C   UNL     1       0.559   1.283  -0.694  0.00  0.00    +0.008 C 
ATOM     22  C   UNL     1       0.440  -0.235  -0.549  0.00  0.00    -0.009 C 
ATOM     23  C   UNL     1      -1.037  -0.626  -0.433  0.00  0.00    +0.008 C 
ATOM     24  C   UNL     1      -1.180  -2.144  -0.537  0.00  0.00    +0.037 C 
ATOM     25  C   UNL     1      -0.249  -2.800   0.478  0.00  0.00    -0.025 A 
ATOM     26  C   UNL     1       0.784  -2.109   1.010  0.00  0.00    -0.004 A 
ATOM     27  S   UNL     1       1.583  -3.241   2.119  0.00  0.00    -0.073 S 
ATOM     28  C   UNL     1       0.535  -4.638   1.872  0.00  0.00    +0.115 A 
ATOM     29  C   UNL     1      -0.412  -4.175   0.924  0.00  0.00    +0.051 A 
ATOM     30  C   UNL     1      -1.418  -5.097   0.513  0.00  0.00    +0.129 A 
ATOM     31  N   UNL     1      -1.361  -6.306   1.065  0.00  0.00    -0.207 NA
ATOM     32  C   UNL     1      -0.444  -6.673   1.948  0.00  0.00    +0.191 A 
ATOM     33  N   UNL     1       0.523  -5.857   2.374  0.00  0.00    -0.214 NA
ATOM     34  C   UNL     1       1.173  -0.691   0.721  0.00  0.00    +0.046 C 
BRANCH  30  35
ATOM     35  N   UNL     1      -2.394  -4.756  -0.406  0.00  0.00    -0.343 N 
ATOM     36  H   UNL     1      -2.277  -3.975  -0.970  0.00  0.00    +0.144 HD
ATOM     37  H   UNL     1      -3.195  -5.297  -0.486  0.00  0.00    +0.144 HD
ENDBRANCH  30  35
ENDBRANCH  20  32
ENDBRANCH   1  20
TORSDOF 5
