REMARK  Name = ZINC39691213
REMARK  8 active torsions:
REMARK  status: ('A' for Active; 'I' for Inactive)
REMARK    1  A    between atoms: C_1  and  C_2
REMARK    2  A    between atoms: C_7  and  C_8
REMARK    3  A    between atoms: C_8  and  C_9
REMARK    4  A    between atoms: C_9  and  N_10
REMARK    5  A    between atoms: C_11  and  C_13
REMARK    6  A    between atoms: C_24  and  C_26
REMARK    7  A    between atoms: C_31  and  S_32
REMARK    8  A    between atoms: S_32  and  C_33
REMARK                            x       y       z     vdW  Elec       q    Type
REMARK                         _______ _______ _______ _____ _____    ______ ____
ROOT
ATOM      1  C   UNL     1      -2.566   2.265   6.025  0.00  0.00    +0.100 C 
ATOM      2  C   UNL     1      -1.716   3.551   5.917  0.00  0.00    +0.121 C 
ATOM      3  N   UNL     1      -2.691   4.617   5.589  0.00  0.00    -0.296 N 
ATOM      4  C   UNL     1      -3.882   4.293   6.410  0.00  0.00    +0.115 C 
ATOM      5  C   UNL     1      -3.986   2.756   6.353  0.00  0.00    -0.004 C 
ATOM      6  C   UNL     1      -4.438   2.206   7.702  0.00  0.00    -0.010 C 
ATOM      7  C   UNL     1      -5.874   2.660   7.979  0.00  0.00    -0.082 C 
ATOM      8  N   UNL     1      -6.756   2.176   6.910  0.00  0.00    +0.379 N 
ATOM      9  C   UNL     1      -6.372   2.784   5.630  0.00  0.00    -0.082 C 
ATOM     10  C   UNL     1      -4.957   2.334   5.254  0.00  0.00    -0.010 C 
ATOM     11  C   UNL     1      -2.531   5.649   4.737  0.00  0.00    +0.249 C 
ATOM     12  O   UNL     1      -1.525   5.728   4.059  0.00  0.00    -0.270 OA
ATOM     13  H   UNL     1      -6.680   1.173   6.841  0.00  0.00    -0.086 HD
ATOM     14  H   UNL     1      -7.710   2.424   7.126  0.00  0.00    -0.086 HD
ENDROOT
BRANCH  11  15
ATOM     15  C   UNL     1      -3.576   6.683   4.628  0.00  0.00    +0.069 A 
ATOM     16  C   UNL     1      -4.311   7.076   5.752  0.00  0.00    +0.017 A 
ATOM     17  C   UNL     1      -5.280   8.051   5.596  0.00  0.00    +0.020 A 
ATOM     18  C   UNL     1      -5.495   8.606   4.347  0.00  0.00    +0.112 A 
ATOM     19  N   UNL     1      -4.793   8.223   3.299  0.00  0.00    -0.248 NA
ATOM     20  C   UNL     1      -3.849   7.297   3.393  0.00  0.00    +0.114 A 
BRANCH  20  21
ATOM     21  S   UNL     1      -2.936   6.828   1.960  0.00  0.00    -0.069 S 
BRANCH  21  22
ATOM     22  C   UNL     1      -3.703   7.727   0.653  0.00  0.00    +0.014 A 
ATOM     23  C   UNL     1      -3.181   8.948   0.247  0.00  0.00    +0.015 A 
ATOM     24  C   UNL     1      -3.785   9.649  -0.778  0.00  0.00    +0.001 A 
ATOM     25  C   UNL     1      -4.908   9.137  -1.401  0.00  0.00    +0.000 A 
ATOM     26  C   UNL     1      -5.431   7.921  -0.999  0.00  0.00    +0.001 A 
ATOM     27  C   UNL     1      -4.829   7.212   0.022  0.00  0.00    +0.015 A 
ENDBRANCH  21  22
ENDBRANCH  20  21
ENDBRANCH  11  15
BRANCH   1  29
ATOM     28  N   UNL     1      -2.669   0.176   4.705  0.00  0.00    -0.315 N 
ATOM     29  C   UNL     1      -2.558   1.519   4.716  0.00  0.00    +0.218 C 
ATOM     30  O   UNL     1      -2.451   2.127   3.672  0.00  0.00    -0.275 OA
ATOM     31  H   UNL     1      -2.755  -0.311   5.539  0.00  0.00    +0.149 HD
BRANCH  28  32
ATOM     32  C   UNL     1      -2.661  -0.549   3.432  0.00  0.00    +0.109 C 
BRANCH  32  33
ATOM     33  C   UNL     1      -2.801  -2.049   3.698  0.00  0.00    +0.054 C 
BRANCH  33  40
ATOM     34  C   UNL     1      -0.291  -2.783   2.469  0.00  0.00    +0.044 C 
ATOM     35  C   UNL     1      -1.592  -3.146   1.801  0.00  0.00    -0.047 A 
ATOM     36  C   UNL     1      -1.584  -3.835   0.603  0.00  0.00    +0.003 A 
ATOM     37  C   UNL     1      -2.777  -4.169  -0.011  0.00  0.00    +0.000 A 
ATOM     38  C   UNL     1      -3.978  -3.813   0.575  0.00  0.00    +0.000 A 
ATOM     39  C   UNL     1      -3.986  -3.125   1.774  0.00  0.00    +0.004 A 
ATOM     40  C   UNL     1      -2.793  -2.795   2.389  0.00  0.00    -0.043 A 
ENDBRANCH  33  40
ENDBRANCH  32  33
ENDBRANCH  28  32
ENDBRANCH   1  29
TORSDOF 7
