REMARK  Name = ZINC64732737
REMARK  15 active torsions:
REMARK  status: ('A' for Active; 'I' for Inactive)
REMARK    1  A    between atoms: C_1  and  C_2
REMARK    2  A    between atoms: C_2  and  O_3
REMARK    3  A    between atoms: O_3  and  C_4
REMARK    4  A    between atoms: C_4  and  C_6
REMARK    5  A    between atoms: C_8  and  C_36
REMARK    6  A    between atoms: C_9  and  C_13
REMARK    7  A    between atoms: C_10  and  C_12
REMARK    8  A    between atoms: C_13  and  C_14
REMARK    9  A    between atoms: C_14  and  C_15
REMARK   10  A    between atoms: C_20  and  C_23
REMARK   11  A    between atoms: N_25  and  C_26
REMARK   12  A    between atoms: C_26  and  C_27
REMARK   13  A    between atoms: C_27  and  C_28
REMARK   14  A    between atoms: C_28  and  C_30
REMARK   15  A    between atoms: C_28  and  N_31
REMARK                            x       y       z     vdW  Elec       q    Type
REMARK                         _______ _______ _______ _____ _____    ______ ____
ROOT
ATOM      1  C   UNL     1       6.709  -5.148  -0.954  0.00  0.00    +0.216 C 
ATOM      2  O   UNL     1       7.514  -5.165  -1.861  0.00  0.00    -0.276 OA
ATOM      3  N   UNL     1       7.084  -5.519   0.287  0.00  0.00    -0.301 N 
ATOM      4  C   UNL     1       6.119  -5.509   1.395  0.00  0.00    +0.108 C 
ATOM      5  C   UNL     1       6.119  -6.888   2.060  0.00  0.00    +0.032 C 
ATOM      6  C   UNL     1       7.547  -7.251   2.474  0.00  0.00    +0.078 C 
ATOM      7  C   UNL     1       8.439  -7.314   1.232  0.00  0.00    +0.032 C 
ATOM      8  C   UNL     1       8.464  -5.945   0.555  0.00  0.00    +0.108 C 
ENDROOT
BRANCH   6   9
ATOM      9  C   UNL     1       7.545  -8.593   3.160  0.00  0.00    +0.216 C 
ATOM     10  O   UNL     1       6.505  -9.199   3.304  0.00  0.00    -0.276 OA
ATOM     11  N   UNL     1       8.700  -9.119   3.614  0.00  0.00    -0.315 N 
ATOM     12  H   UNL     1       9.532  -8.634   3.498  0.00  0.00    +0.149 HD
BRANCH  11  13
ATOM     13  C   UNL     1       8.699 -10.424   4.280  0.00  0.00    +0.102 C 
BRANCH  13  14
ATOM     14  C   UNL     1      10.127 -10.786   4.694  0.00  0.00    +0.003 C 
BRANCH  14  15
ATOM     15  C   UNL     1      10.146 -12.203   5.273  0.00  0.00    -0.070 C 
ATOM     16  C   UNL     1       9.332 -12.235   6.568  0.00  0.00    -0.013 C 
BRANCH  15  17
ATOM     17  N   UNL     1      11.532 -12.598   5.554  0.00  0.00    +0.381 N 
ATOM     18  C   UNL     1      11.569 -13.975   6.109  0.00  0.00    -0.079 C 
ATOM     19  C   UNL     1      13.020 -14.435   5.820  0.00  0.00    -0.020 C 
ATOM     20  C   UNL     1      13.309 -13.815   4.433  0.00  0.00    -0.020 C 
ATOM     21  C   UNL     1      12.313 -12.647   4.300  0.00  0.00    -0.079 C 
ATOM     22  H   UNL     1      11.954 -11.949   6.202  0.00  0.00    -0.081 HD
ENDBRANCH  15  17
ENDBRANCH  14  15
ENDBRANCH  13  14
ENDBRANCH  11  13
ENDBRANCH   6   9
BRANCH   1  23
ATOM     23  C   UNL     1       5.290  -4.713  -1.214  0.00  0.00    +0.100 C 
BRANCH  23  24
ATOM     24  C   UNL     1       5.131  -4.349  -2.691  0.00  0.00    +0.046 C 
BRANCH  24  27
ATOM     25  C   UNL     1       1.802  -2.718  -3.259  0.00  0.00    +0.240 C 
ATOM     26  C   UNL     1       3.282  -2.653  -2.952  0.00  0.00    -0.033 C 
ATOM     27  C   UNL     1       3.712  -3.913  -2.951  0.00  0.00    -0.025 C 
ATOM     28  C   UNL     1       2.592  -4.811  -3.242  0.00  0.00    +0.037 C 
ATOM     29  N   UNL     1       1.498  -4.146  -3.421  0.00  0.00    -0.269 NA
ATOM     30  C   UNL     1       2.701  -6.311  -3.324  0.00  0.00    +0.065 C 
ATOM     31  C   UNL     1       4.102  -1.414  -2.699  0.00  0.00    +0.042 C 
BRANCH  25  32
ATOM     32  C   UNL     1       1.006  -2.142  -2.117  0.00  0.00    +0.336 C 
ATOM     33  O   UNL     1       0.502  -2.876  -1.300  0.00  0.00    -0.248 OA
BRANCH  32  34
ATOM     34  O   UNL     1       0.856  -0.812  -2.007  0.00  0.00    -0.463 OA
BRANCH  34  36
ATOM     35  C   UNL     1       0.029   1.193  -0.942  0.00  0.00    +0.048 C 
ATOM     36  C   UNL     1       0.089  -0.335  -0.900  0.00  0.00    +0.229 C 
ENDBRANCH  34  36
ENDBRANCH  32  34
ENDBRANCH  25  32
ENDBRANCH  24  27
ENDBRANCH  23  24
ENDBRANCH   1  23
TORSDOF 11
