REMARK  Name = ZINC04299414
REMARK  4 active torsions:
REMARK  status: ('A' for Active; 'I' for Inactive)
REMARK    1  A    between atoms: C_3  and  N_23
REMARK    2  A    between atoms: N_10  and  C_13
REMARK    3  A    between atoms: C_13  and  N_15
REMARK    4  A    between atoms: N_15  and  C_16
REMARK                            x       y       z     vdW  Elec       q    Type
REMARK                         _______ _______ _______ _____ _____    ______ ____
ROOT
ATOM      1  C   UNL     1       1.726   1.263  -0.804  0.00  0.00    +0.020 A 
ATOM      2  C   UNL     1       1.836   1.873   0.439  0.00  0.00    +0.037 A 
ATOM      3  C   UNL     1       1.295   3.135   0.605  0.00  0.00    +0.164 A 
ATOM      4  C   UNL     1       0.663   3.748  -0.473  0.00  0.00    +0.130 A 
ATOM      5  C   UNL     1       1.091   1.931  -1.831  0.00  0.00    +0.084 A 
ATOM      6  N   UNL     1       0.115   5.016  -0.320  0.00  0.00    -0.313 N 
ATOM      7  C   UNL     1      -1.344   4.952  -0.263  0.00  0.00    +0.108 C 
ATOM      8  C   UNL     1      -1.849   6.008   0.696  0.00  0.00    +0.038 C 
ATOM      9  C   UNL     1      -2.162   7.301  -0.076  0.00  0.00    +0.108 C 
ATOM     10  N   UNL     1      -1.145   7.565  -1.113  0.00  0.00    -0.311 N 
ATOM     11  C   UNL     1       0.272   7.372  -0.881  0.00  0.00    +0.125 C 
ATOM     12  C   UNL     1       0.668   5.923  -1.253  0.00  0.00    +0.125 C 
ATOM     13  N   UNL     1       0.543   3.169  -1.702  0.00  0.00    -0.348 N 
ATOM     14  H   UNL     1       0.068   3.639  -2.482  0.00  0.00    +0.167 HD
ENDROOT
BRANCH   3  15
ATOM     15  N   UNL     1       1.388   3.825   1.911  0.00  0.00    +0.060 N 
ATOM     16  O   UNL     1       1.849   3.242   2.876  0.00  0.00    -0.126 OA
ATOM     17  O   UNL     1       1.004   4.975   2.021  0.00  0.00    -0.126 OA
ENDBRANCH   3  15
BRANCH  10  18
ATOM     18  C   UNL     1      -1.550   8.004  -2.321  0.00  0.00    +0.137 C 
ATOM     19  S   UNL     1      -3.217   8.243  -2.631  0.00  0.00    -0.018 S 
BRANCH  18  20
ATOM     20  N   UNL     1      -0.643   8.254  -3.286  0.00  0.00    -0.297 N 
ATOM     21  H   UNL     1       0.295   8.059  -3.132  0.00  0.00    +0.154 HD
BRANCH  20  22
ATOM     22  C   UNL     1      -1.054   8.793  -4.511  0.00  0.00    +0.033 A 
ATOM     23  C   UNL     1      -2.167   8.276  -5.160  0.00  0.00    +0.025 A 
ATOM     24  C   UNL     1      -2.575   8.814  -6.365  0.00  0.00    +0.022 A 
ATOM     25  C   UNL     1      -1.867   9.860  -6.931  0.00  0.00    +0.041 A 
ATOM     26  C   UNL     1      -0.754  10.374  -6.289  0.00  0.00    +0.022 A 
ATOM     27  C   UNL     1      -0.346   9.843  -5.081  0.00  0.00    +0.025 A 
ATOM     28 CL   UNL     1      -2.377  10.530  -8.449  0.00  0.00    -0.084 Cl
ENDBRANCH  20  22
ENDBRANCH  18  20
ENDBRANCH  10  18
TORSDOF 4
