REMARK  Name = ZINC36629505
REMARK  11 active torsions:
REMARK  status: ('A' for Active; 'I' for Inactive)
REMARK    1  A    between atoms: C_1  and  C_2
REMARK    2  A    between atoms: C_2  and  C_3
REMARK    3  A    between atoms: C_2  and  N_4
REMARK    4  A    between atoms: C_10  and  N_15
REMARK    5  A    between atoms: C_11  and  C_12
REMARK    6  A    between atoms: C_16  and  C_18
REMARK    7  A    between atoms: C_20  and  O_29
REMARK    8  A    between atoms: C_21  and  O_27
REMARK    9  A    between atoms: C_23  and  N_24
REMARK   10  A    between atoms: O_27  and  C_28
REMARK   11  A    between atoms: O_29  and  C_30
REMARK                            x       y       z     vdW  Elec       q    Type
REMARK                         _______ _______ _______ _____ _____    ______ ____
ROOT
ATOM      1  N   UNL     1      -1.091  -0.548   0.206  0.00  0.00    +0.384 N 
ATOM      2  C   UNL     1      -1.112  -1.994   0.463  0.00  0.00    -0.073 C 
ATOM      3  C   UNL     1      -2.447  -2.399   1.098  0.00  0.00    +0.018 C 
ATOM      4  C   UNL     1      -3.565  -1.849   0.223  0.00  0.00    -0.027 A 
ATOM      5  C   UNL     1      -3.307  -0.875  -0.679  0.00  0.00    -0.021 A 
ATOM      6  S   UNL     1      -4.863  -0.558  -1.453  0.00  0.00    -0.079 S 
ATOM      7  C   UNL     1      -5.824  -1.660  -0.625  0.00  0.00    +0.085 A 
ATOM      8  C   UNL     1      -4.949  -2.281   0.254  0.00  0.00    +0.068 A 
ATOM      9  C   UNL     1      -1.978  -0.234  -0.929  0.00  0.00    -0.035 C 
ATOM     10  H   UNL     1      -1.409  -0.057   1.028  0.00  0.00    -0.081 HD
ENDROOT
BRANCH   8  11
ATOM     11  C   UNL     1      -5.403  -3.328   1.174  0.00  0.00    +0.244 C 
ATOM     12  O   UNL     1      -5.803  -3.031   2.284  0.00  0.00    -0.270 OA
ATOM     13  N   UNL     1      -5.377  -4.620   0.790  0.00  0.00    -0.325 N 
ATOM     14  H   UNL     1      -5.058  -4.857  -0.095  0.00  0.00    +0.145 HD
ATOM     15  H   UNL     1      -5.678  -5.313   1.399  0.00  0.00    +0.145 HD
ENDBRANCH   8  11
BRANCH   7  16
ATOM     16  N   UNL     1      -7.180  -1.895  -0.784  0.00  0.00    -0.275 N 
ATOM     17  C   UNL     1      -7.883  -1.192  -1.695  0.00  0.00    +0.251 C 
ATOM     18  O   UNL     1      -7.328  -0.353  -2.377  0.00  0.00    -0.270 OA
ATOM     19  H   UNL     1      -7.624  -2.564  -0.240  0.00  0.00    +0.156 HD
BRANCH  17  20
ATOM     20  C   UNL     1      -9.328  -1.442  -1.864  0.00  0.00    +0.071 A 
ATOM     21  C   UNL     1      -9.790  -2.737  -2.121  0.00  0.00    +0.064 A 
ATOM     22  C   UNL     1     -11.142  -2.965  -2.279  0.00  0.00    +0.162 A 
ATOM     23  C   UNL     1     -12.044  -1.906  -2.182  0.00  0.00    +0.164 A 
ATOM     24  C   UNL     1     -11.586  -0.621  -1.927  0.00  0.00    +0.082 A 
ATOM     25  C   UNL     1     -10.237  -0.387  -1.763  0.00  0.00    +0.142 A 
BRANCH  25  26
ATOM     26  N   UNL     1      -9.752   0.984  -1.485  0.00  0.00    +0.057 N 
ATOM     27  O   UNL     1     -10.525   1.914  -1.505  0.00  0.00    -0.126 OA
ATOM     28  O   UNL     1      -8.584   1.173  -1.238  0.00  0.00    -0.126 OA
ENDBRANCH  25  26
BRANCH  23  29
ATOM     29  O   UNL     1     -13.374  -2.132  -2.337  0.00  0.00    -0.491 OA
ATOM     30  C   UNL     1     -14.242  -1.002  -2.225  0.00  0.00    +0.277 C 
ENDBRANCH  23  29
BRANCH  22  31
ATOM     31  O   UNL     1     -11.595  -4.223  -2.529  0.00  0.00    -0.491 OA
ATOM     32  C   UNL     1     -10.615  -5.260  -2.615  0.00  0.00    +0.277 C 
ENDBRANCH  22  31
ENDBRANCH  17  20
ENDBRANCH   7  16
BRANCH   1  34
ATOM     33  C   UNL     1       0.284   1.353  -0.494  0.00  0.00    -0.014 C 
ATOM     34  C   UNL     1       0.280  -0.129  -0.114  0.00  0.00    -0.074 C 
ATOM     35  C   UNL     1       1.178  -0.345   1.106  0.00  0.00    -0.014 C 
ENDBRANCH   1  34
TORSDOF 7
