REMARK  Name = ZINC01083309
REMARK  8 active torsions:
REMARK  status: ('A' for Active; 'I' for Inactive)
REMARK    1  A    between atoms: C_4  and  C_7
REMARK    2  A    between atoms: C_7  and  C_8
REMARK    3  A    between atoms: C_7  and  C_14
REMARK    4  A    between atoms: C_7  and  O_33
REMARK    5  A    between atoms: N_16  and  N_17
REMARK    6  A    between atoms: C_18  and  C_19
REMARK    7  A    between atoms: C_22  and  C_24
REMARK    8  A    between atoms: C_27  and  N_30
REMARK                            x       y       z     vdW  Elec       q    Type
REMARK                         _______ _______ _______ _____ _____    ______ ____
ROOT
ATOM      1  C   UNL     1      -0.911  -0.783   0.460  0.00  0.00    +0.273 C 
ATOM      2  O   UNL     1      -1.850  -0.104   0.804  0.00  0.00    -0.270 OA
ATOM      3  N   UNL     1       0.336  -0.272   0.486  0.00  0.00    -0.204 N 
ATOM      4  H   UNL     1       1.089  -0.817   0.210  0.00  0.00    +0.177 HD
ENDROOT
BRANCH   3   5
ATOM      5  N   UNL     1       0.527   0.942   0.879  0.00  0.00    -0.185 NA
ATOM      6  C   UNL     1       1.756   1.444   0.905  0.00  0.00    +0.176 C 
BRANCH   6   7
ATOM      7  C   UNL     1       1.962   2.751   1.328  0.00  0.00    +0.148 A 
ATOM      8  C   UNL     1       3.256   3.444   1.418  0.00  0.00    +0.051 A 
ATOM      9  C   UNL     1       2.989   4.695   1.871  0.00  0.00    +0.050 A 
ATOM     10  C   UNL     1       1.589   4.787   2.070  0.00  0.00    +0.136 A 
ATOM     11  O   UNL     1       1.012   3.619   1.739  0.00  0.00    -0.454 OA
BRANCH  10  12
ATOM     12  C   UNL     1       0.903   5.933   2.544  0.00  0.00    +0.017 A 
ATOM     13  C   UNL     1       1.617   7.103   2.867  0.00  0.00    +0.014 A 
ATOM     14  C   UNL     1       0.945   8.204   3.318  0.00  0.00    +0.033 A 
ATOM     15  C   UNL     1      -0.434   8.167   3.470  0.00  0.00    +0.126 A 
ATOM     16  C   UNL     1      -1.146   7.018   3.161  0.00  0.00    +0.033 A 
ATOM     17  C   UNL     1      -0.496   5.907   2.702  0.00  0.00    +0.014 A 
BRANCH  15  18
ATOM     18  N   UNL     1      -1.150   9.364   3.966  0.00  0.00    +0.056 N 
ATOM     19  O   UNL     1      -2.459   9.335   4.112  0.00  0.00    -0.126 OA
ATOM     20  O   UNL     1      -0.479  10.458   4.261  0.00  0.00    -0.126 OA
ENDBRANCH  15  18
ENDBRANCH  10  12
ENDBRANCH   6   7
ENDBRANCH   3   5
BRANCH   1  21
ATOM     21  C   UNL     1      -1.135  -2.201   0.001  0.00  0.00    +0.194 C 
BRANCH  21  25
ATOM     22  C   UNL     1      -0.553  -4.869   3.286  0.00  0.00    +0.000 A 
ATOM     23  C   UNL     1      -0.086  -5.207   2.029  0.00  0.00    +0.000 A 
ATOM     24  C   UNL     1      -0.275  -4.344   0.966  0.00  0.00    +0.007 A 
ATOM     25  C   UNL     1      -0.930  -3.142   1.160  0.00  0.00    -0.003 A 
ATOM     26  C   UNL     1      -1.391  -2.801   2.417  0.00  0.00    +0.007 A 
ATOM     27  C   UNL     1      -1.207  -3.667   3.479  0.00  0.00    +0.000 A 
ENDBRANCH  21  25
BRANCH  21  28
ATOM     28  C   UNL     1      -2.542  -2.344  -0.519  0.00  0.00    -0.003 A 
ATOM     29  C   UNL     1      -3.616  -2.188   0.338  0.00  0.00    +0.007 A 
ATOM     30  C   UNL     1      -4.906  -2.314  -0.140  0.00  0.00    +0.000 A 
ATOM     31  C   UNL     1      -5.124  -2.607  -1.474  0.00  0.00    +0.000 A 
ATOM     32  C   UNL     1      -4.051  -2.769  -2.330  0.00  0.00    +0.000 A 
ATOM     33  C   UNL     1      -2.760  -2.637  -1.853  0.00  0.00    +0.007 A 
ENDBRANCH  21  28
BRANCH  21  34
ATOM     34  O   UNL     1      -0.208  -2.517  -1.040  0.00  0.00    -0.371 OA
ATOM     35  H   UNL     1      -0.283  -1.949  -1.819  0.00  0.00    +0.212 HD
ENDBRANCH  21  34
ENDBRANCH   1  21
TORSDOF 8
