REMARK  Name = ZINC33736641
REMARK  9 active torsions:
REMARK  status: ('A' for Active; 'I' for Inactive)
REMARK    1  A    between atoms: C_1  and  C_2
REMARK    2  A    between atoms: C_2  and  N_3
REMARK    3  A    between atoms: C_4  and  C_24
REMARK    4  A    between atoms: C_7  and  S_8
REMARK    5  A    between atoms: S_8  and  C_9
REMARK    6  A    between atoms: C_9  and  C_11
REMARK    7  A    between atoms: C_9  and  C_12
REMARK    8  A    between atoms: N_14  and  C_15
REMARK    9  A    between atoms: C_20  and  N_21
REMARK                            x       y       z     vdW  Elec       q    Type
REMARK                         _______ _______ _______ _____ _____    ______ ____
ROOT
ATOM      1  C   UNL     1       2.698   9.608  -0.060  0.00  0.00    +0.137 C 
ATOM      2  C   UNL     1       1.632   9.899  -1.118  0.00  0.00    +0.029 C 
ENDROOT
BRANCH   1   3
ATOM      3  C   UNL     1       3.738  10.698  -0.083  0.00  0.00    +0.230 C 
ATOM      4  O   UNL     1       4.754  10.553  -0.729  0.00  0.00    -0.274 OA
ATOM      5  N   UNL     1       3.539  11.834   0.615  0.00  0.00    -0.283 N 
ATOM      6  H   UNL     1       2.588  11.997   1.142  0.00  0.00    +0.155 HD
BRANCH   5   7
ATOM      7  C   UNL     1       4.544  12.807   0.669  0.00  0.00    +0.064 A 
ATOM      8  C   UNL     1       5.355  13.032  -0.436  0.00  0.00    +0.025 A 
ATOM      9  C   UNL     1       6.343  13.996  -0.381  0.00  0.00    +0.002 A 
ATOM     10  C   UNL     1       6.531  14.730   0.776  0.00  0.00    +0.002 A 
ATOM     11  C   UNL     1       5.728  14.505   1.879  0.00  0.00    +0.034 A 
ATOM     12  C   UNL     1       4.736  13.545   1.829  0.00  0.00    +0.147 A 
BRANCH  12  13
ATOM     13  N   UNL     1       3.878  13.305   3.011  0.00  0.00    +0.058 N 
ATOM     14  O   UNL     1       3.979  14.018   3.993  0.00  0.00    -0.126 OA
ATOM     15  O   UNL     1       3.070  12.393   3.002  0.00  0.00    -0.126 OA
ENDBRANCH  12  13
ENDBRANCH   5   7
ENDBRANCH   1   3
BRANCH   1  16
ATOM     16  S   UNL     1       3.483   8.017  -0.415  0.00  0.00    -0.074 S 
BRANCH  16  21
ATOM     17  N   UNL     1       2.116   5.578  -0.311  0.00  0.00    -0.302 N 
ATOM     18  C   UNL     1       0.829   5.173  -0.035  0.00  0.00    +0.171 A 
ATOM     19  N   UNL     1       0.137   6.255   0.246  0.00  0.00    -0.128 NA
ATOM     20  N   UNL     1       0.891   7.292   0.161  0.00  0.00    -0.122 NA
ATOM     21  C   UNL     1       2.110   6.939  -0.179  0.00  0.00    +0.193 A 
BRANCH  18  22
ATOM     22  C   UNL     1       0.324   3.790  -0.046  0.00  0.00    +0.056 A 
ATOM     23  C   UNL     1      -0.973   3.343  -0.051  0.00  0.00    +0.019 A 
ATOM     24  C   UNL     1      -1.204   1.986  -0.067  0.00  0.00    +0.008 A 
ATOM     25  C   UNL     1      -0.145   1.134  -0.067  0.00  0.00    +0.046 A 
ATOM     26  S   UNL     1       1.241   2.258  -0.056  0.00  0.00    -0.094 S 
ENDBRANCH  18  22
BRANCH  17  28
ATOM     27  C   UNL     1       3.307   4.567  -2.193  0.00  0.00    +0.027 C 
ATOM     28  C   UNL     1       3.253   4.728  -0.672  0.00  0.00    +0.122 C 
ENDBRANCH  17  28
ENDBRANCH  16  21
ENDBRANCH   1  16
TORSDOF 7
