REMARK  Name = ZINC38815337
REMARK  5 active torsions:
REMARK  status: ('A' for Active; 'I' for Inactive)
REMARK    1  A    between atoms: C_1  and  C_2
REMARK    2  A    between atoms: C_4  and  C_15
REMARK    3  A    between atoms: N_7  and  C_8
REMARK    4  A    between atoms: C_16  and  C_17
REMARK    5  A    between atoms: C_16  and  C_19
REMARK                            x       y       z     vdW  Elec       q    Type
REMARK                         _______ _______ _______ _____ _____    ______ ____
ROOT
ATOM      1  C   UNL     1       0.236  -0.299  -2.580  0.00  0.00    +0.026 C 
ATOM      2  C   UNL     1       1.136   0.050  -3.539  0.00  0.00    +0.072 C 
ENDROOT
BRANCH   2   3
ATOM      3  C   UNL     1       0.661   0.392  -4.928  0.00  0.00    +0.216 C 
ATOM      4  N   UNL     1       1.112   1.740  -5.296  0.00  0.00    -0.359 N 
ATOM      5  C   UNL     1       1.871   1.625  -6.347  0.00  0.00    +0.060 A 
ATOM      6  C   UNL     1       2.603   2.603  -7.163  0.00  0.00    +0.027 A 
ATOM      7  C   UNL     1       3.326   2.180  -8.220  0.00  0.00    +0.002 A 
ATOM      8  C   UNL     1       3.414   0.825  -8.584  0.00  0.00    +0.002 A 
ATOM      9  C   UNL     1       2.783  -0.153  -7.904  0.00  0.00    +0.027 A 
ATOM     10  C   UNL     1       1.965   0.190  -6.733  0.00  0.00    +0.060 A 
ATOM     11  N   UNL     1       1.260  -0.526  -5.905  0.00  0.00    -0.359 N 
ATOM     12  H   UNL     1       0.886   2.566  -4.840  0.00  0.00    +0.162 HD
ATOM     13  H   UNL     1       1.150  -1.489  -5.930  0.00  0.00    +0.162 HD
ENDBRANCH   2   3
BRANCH   1  16
ATOM     14  C   UNL     1       0.719   1.315   0.115  0.00  0.00    +0.035 C 
ATOM     15  C   UNL     1       0.296  -0.152   0.025  0.00  0.00    +0.124 C 
ATOM     16  C   UNL     1       0.685  -0.732  -1.318  0.00  0.00    +0.009 C 
ATOM     17  C   UNL     1       1.545  -1.746  -1.074  0.00  0.00    +0.116 C 
ATOM     18  N   UNL     1       1.768  -1.901   0.262  0.00  0.00    -0.253 N 
ATOM     19  N   UNL     1       1.037  -0.963   1.005  0.00  0.00    -0.245 N 
ATOM     20 CL   UNL     1       2.275  -2.726  -2.307  0.00  0.00    -0.065 Cl
ATOM     21  H   UNL     1       2.353  -2.572   0.647  0.00  0.00    +0.171 HD
BRANCH  19  22
ATOM     22  C   UNL     1       1.016  -0.823   2.395  0.00  0.00    +0.048 A 
ATOM     23  C   UNL     1       0.232   0.161   2.984  0.00  0.00    +0.025 A 
ATOM     24  C   UNL     1       0.213   0.296   4.358  0.00  0.00    +0.002 A 
ATOM     25  C   UNL     1       0.974  -0.546   5.148  0.00  0.00    +0.000 A 
ATOM     26  C   UNL     1       1.757  -1.526   4.565  0.00  0.00    +0.002 A 
ATOM     27  C   UNL     1       1.776  -1.671   3.191  0.00  0.00    +0.025 A 
ENDBRANCH  19  22
ENDBRANCH   1  16
BRANCH   2  28
ATOM     28  C   UNL     1       2.533   0.091  -3.229  0.00  0.00    +0.099 C 
ATOM     29  N   UNL     1       3.642   0.124  -2.983  0.00  0.00    -0.191 NA
ENDBRANCH   2  28
TORSDOF 4
