REMARK  Name = ZINC14396284
REMARK  7 active torsions:
REMARK  status: ('A' for Active; 'I' for Inactive)
REMARK    1  A    between atoms: C_1  and  C_2
REMARK    2  A    between atoms: C_3  and  N_11
REMARK    3  A    between atoms: C_7  and  N_8
REMARK    4  A    between atoms: C_12  and  C_14
REMARK    5  A    between atoms: C_14  and  C_16
REMARK    6  A    between atoms: C_14  and  O_17
REMARK    7  A    between atoms: O_17  and  C_18
REMARK                            x       y       z     vdW  Elec       q    Type
REMARK                         _______ _______ _______ _____ _____    ______ ____
ROOT
ATOM      1  N   UNL     1       0.832   1.662   0.856  0.00  0.00    -0.282 N 
ATOM      2  C   UNL     1      -0.058   2.284   0.058  0.00  0.00    +0.258 C 
ATOM      3  O   UNL     1       0.276   3.263  -0.575  0.00  0.00    -0.271 OA
ATOM      4  H   UNL     1       0.586   0.840   1.310  0.00  0.00    +0.155 HD
ENDROOT
BRANCH   1   7
ATOM      5  C   UNL     1       2.119   1.283   3.366  0.00  0.00    +0.048 C 
ATOM      6  C   UNL     1       2.776   2.039   2.240  0.00  0.00    +0.001 A 
ATOM      7  C   UNL     1       2.112   2.200   1.031  0.00  0.00    +0.039 A 
ATOM      8  C   UNL     1       2.718   2.902  -0.003  0.00  0.00    +0.024 A 
ATOM      9  C   UNL     1       3.981   3.434   0.173  0.00  0.00    +0.004 A 
ATOM     10  C   UNL     1       4.642   3.267   1.376  0.00  0.00    +0.033 A 
ATOM     11  C   UNL     1       4.041   2.568   2.407  0.00  0.00    +0.131 A 
BRANCH  11  12
ATOM     12  N   UNL     1       4.752   2.391   3.693  0.00  0.00    +0.057 N 
ATOM     13  O   UNL     1       5.812   2.958   3.886  0.00  0.00    -0.126 OA
ATOM     14  O   UNL     1       4.277   1.677   4.559  0.00  0.00    -0.126 OA
ENDBRANCH  11  12
ENDBRANCH   1   7
BRANCH   2  15
ATOM     15  C   UNL     1      -1.468   1.763  -0.047  0.00  0.00    +0.256 C 
ATOM     16  C   UNL     1      -2.167   1.907   1.306  0.00  0.00    +0.062 C 
BRANCH  15  17
ATOM     17  O   UNL     1      -2.180   2.513  -1.034  0.00  0.00    -0.480 OA
BRANCH  17  18
ATOM     18  C   UNL     1      -3.261   1.915  -1.602  0.00  0.00    +0.122 A 
ATOM     19  C   UNL     1      -3.685   0.674  -1.151  0.00  0.00    +0.048 A 
ATOM     20  C   UNL     1      -4.787   0.070  -1.725  0.00  0.00    +0.042 A 
ATOM     21  C   UNL     1      -5.461   0.699  -2.758  0.00  0.00    +0.124 A 
ATOM     22  C   UNL     1      -5.035   1.935  -3.214  0.00  0.00    +0.042 A 
ATOM     23  C   UNL     1      -3.937   2.543  -2.637  0.00  0.00    +0.048 A 
ATOM     24  F   UNL     1      -6.536   0.105  -3.322  0.00  0.00    -0.205 F 
ENDBRANCH  17  18
ENDBRANCH  15  17
ENDBRANCH   2  15
TORSDOF 5
