REMARK  Name = ZINC06329776
REMARK  4 active torsions:
REMARK  status: ('A' for Active; 'I' for Inactive)
REMARK    1  A    between atoms: C_4  and  C_8
REMARK    2  A    between atoms: C_11  and  C_13
REMARK    3  A    between atoms: N_14  and  N_15
REMARK    4  A    between atoms: N_20  and  N_21
REMARK                            x       y       z     vdW  Elec       q    Type
REMARK                         _______ _______ _______ _____ _____    ______ ____
ROOT
ATOM      1  C   UNL     1       1.279  -0.433  -0.013  0.00  0.00    +0.137 A 
ATOM      2  C   UNL     1       2.104   0.651  -0.015  0.00  0.00    +0.050 A 
ATOM      3  C   UNL     1       1.287   1.790  -0.001  0.00  0.00    +0.051 A 
ATOM      4  C   UNL     1      -0.016   1.344   0.009  0.00  0.00    +0.148 A 
ATOM      5  O   UNL     1       0.002  -0.004   0.002  0.00  0.00    -0.454 OA
ENDROOT
BRANCH   1   9
ATOM      6  C   UNL     1       2.526  -4.493  -0.046  0.00  0.00    +0.021 A 
ATOM      7  C   UNL     1       3.053  -3.604  -0.966  0.00  0.00    +0.022 A 
ATOM      8  C   UNL     1       2.648  -2.284  -0.965  0.00  0.00    +0.052 A 
ATOM      9  C   UNL     1       1.712  -1.844  -0.024  0.00  0.00    +0.037 A 
ATOM     10  C   UNL     1       1.185  -2.748   0.901  0.00  0.00    +0.033 A 
ATOM     11  C   UNL     1       1.594  -4.066   0.885  0.00  0.00    +0.042 A 
ATOM     12 CL   UNL     1       0.940  -5.191   2.034  0.00  0.00    -0.084 Cl
ATOM     13 CL   UNL     1       3.305  -1.171  -2.124  0.00  0.00    -0.083 Cl
ENDBRANCH   1   9
BRANCH   4  14
ATOM     14  C   UNL     1      -1.213   2.188   0.020  0.00  0.00    +0.176 C 
ATOM     15  N   UNL     1      -2.395   1.641   0.023  0.00  0.00    -0.184 NA
BRANCH  15  16
ATOM     16  N   UNL     1      -3.540   2.448   0.033  0.00  0.00    -0.204 N 
ATOM     17  C   UNL     1      -4.797   1.866   0.037  0.00  0.00    +0.253 A 
ATOM     18  N   UNL     1      -5.062   0.580   0.032  0.00  0.00    -0.110 NA
ATOM     19  N   UNL     1      -6.334   0.397   0.038  0.00  0.00    -0.135 NA
ATOM     20  C   UNL     1      -6.951   1.546   0.046  0.00  0.00    +0.245 A 
ATOM     21  N   UNL     1      -5.995   2.522   0.052  0.00  0.00    -0.223 N 
ATOM     22  H   UNL     1      -3.453   3.414   0.038  0.00  0.00    +0.177 HD
BRANCH  21  23
ATOM     23  N   UNL     1      -6.195   3.873   0.067  0.00  0.00    -0.294 N 
ATOM     24  H   UNL     1      -6.255   4.240  -0.871  0.00  0.00    +0.163 HD
ATOM     25  H   UNL     1      -7.018   4.110   0.602  0.00  0.00    +0.163 HD
ENDBRANCH  21  23
ENDBRANCH  15  16
ENDBRANCH   4  14
TORSDOF 4
