REMARK  Name = ZINC30767934
REMARK  11 active torsions:
REMARK  status: ('A' for Active; 'I' for Inactive)
REMARK    1  A    between atoms: C_1  and  C_2
REMARK    2  A    between atoms: C_2  and  C_4
REMARK    3  A    between atoms: C_2  and  N_24
REMARK    4  A    between atoms: N_6  and  C_7
REMARK    5  A    between atoms: C_7  and  C_8
REMARK    6  A    between atoms: C_8  and  N_9
REMARK    7  A    between atoms: C_13  and  C_14
REMARK    8  A    between atoms: C_25  and  C_27
REMARK    9  A    between atoms: C_28  and  C_29
REMARK   10  A    between atoms: C_32  and  O_35
REMARK   11  A    between atoms: O_35  and  C_36
REMARK                            x       y       z     vdW  Elec       q    Type
REMARK                         _______ _______ _______ _____ _____    ______ ____
ROOT
ATOM      1  C   UNL     1       0.313   0.504   3.153  0.00  0.00    +0.233 C 
ATOM      2  O   UNL     1      -0.802   0.928   3.372  0.00  0.00    -0.274 OA
ATOM      3  N   UNL     1       0.793   0.489   1.894  0.00  0.00    -0.312 N 
ATOM      4  H   UNL     1       1.804   0.104   1.695  0.00  0.00    +0.149 HD
ENDROOT
BRANCH   1   6
ATOM      5  C   UNL     1       1.511  -1.476   4.044  0.00  0.00    +0.038 C 
ATOM      6  C   UNL     1       1.161  -0.007   4.289  0.00  0.00    +0.156 C 
BRANCH   6   7
ATOM      7  N   UNL     1       0.419   0.115   5.546  0.00  0.00    -0.301 N 
ATOM      8  C   UNL     1       1.084   0.213   6.714  0.00  0.00    +0.237 C 
ATOM      9  O   UNL     1       2.301   0.199   6.725  0.00  0.00    -0.271 OA
ATOM     10  H   UNL     1      -0.681   0.128   5.537  0.00  0.00    +0.150 HD
BRANCH   8  11
ATOM     11  C   UNL     1       0.343   0.335   7.970  0.00  0.00    +0.068 C 
ATOM     12  C   UNL     1       1.009   0.433   9.140  0.00  0.00    +0.013 C 
BRANCH  12  13
ATOM     13  C   UNL     1       0.264   0.556  10.401  0.00  0.00    -0.025 A 
ATOM     14  C   UNL     1      -1.135   0.577  10.391  0.00  0.00    +0.011 A 
ATOM     15  C   UNL     1      -1.828   0.686  11.576  0.00  0.00    +0.046 A 
ATOM     16  C   UNL     1      -1.140   0.787  12.779  0.00  0.00    +0.120 A 
ATOM     17  C   UNL     1       0.250   0.772  12.794  0.00  0.00    +0.046 A 
ATOM     18  C   UNL     1       0.952   0.657  11.616  0.00  0.00    +0.011 A 
BRANCH  16  19
ATOM     19  O   UNL     1      -1.828   0.900  13.944  0.00  0.00    -0.495 OA
ATOM     20  C   UNL     1      -3.254   0.909  13.857  0.00  0.00    +0.277 C 
ENDBRANCH  16  19
ENDBRANCH  12  13
ENDBRANCH   8  11
ENDBRANCH   6   7
ENDBRANCH   1   6
BRANCH   3  21
ATOM     21  C   UNL     1      -0.032   0.985   0.789  0.00  0.00    +0.123 C 
BRANCH  21  22
ATOM     22  C   UNL     1       0.744   0.857  -0.523  0.00  0.00    +0.136 C 
BRANCH  22  23
ATOM     23  N   UNL     1      -0.081   1.353  -1.628  0.00  0.00    -0.227 N 
ATOM     24  C   UNL     1      -0.012   2.631  -1.962  0.00  0.00    +0.260 C 
ATOM     25  O   UNL     1       0.719   3.407  -1.376  0.00  0.00    -0.269 OA
ATOM     26  C   UNL     1      -0.869   3.068  -3.084  0.00  0.00    +0.080 C 
ATOM     27  C   UNL     1      -1.005   4.298  -3.639  0.00  0.00    +0.028 C 
ATOM     28  S   UNL     1      -1.675   1.530  -3.509  0.00  0.00    -0.026 S 
ATOM     29  C   UNL     1      -0.889   0.496  -2.284  0.00  0.00    +0.286 C 
ATOM     30  O   UNL     1      -1.046  -0.694  -2.087  0.00  0.00    -0.262 OA
BRANCH  27  31
ATOM     31  C   UNL     1      -1.799   4.468  -4.864  0.00  0.00    -0.024 A 
ATOM     32  C   UNL     1      -2.262   3.346  -5.562  0.00  0.00    +0.011 A 
ATOM     33  C   UNL     1      -3.010   3.512  -6.707  0.00  0.00    +0.039 A 
ATOM     34  C   UNL     1      -3.295   4.787  -7.175  0.00  0.00    +0.123 A 
ATOM     35  C   UNL     1      -2.834   5.902  -6.491  0.00  0.00    +0.039 A 
ATOM     36  C   UNL     1      -2.090   5.751  -5.341  0.00  0.00    +0.011 A 
ATOM     37  F   UNL     1      -4.025   4.942  -8.301  0.00  0.00    -0.205 F 
ENDBRANCH  27  31
ENDBRANCH  22  23
ENDBRANCH  21  22
ENDBRANCH   3  21
TORSDOF 9
