REMARK  Name = ZINC22486270
REMARK  7 active torsions:
REMARK  status: ('A' for Active; 'I' for Inactive)
REMARK    1  A    between atoms: C_3  and  C_6
REMARK    2  A    between atoms: C_16  and  C_19
REMARK    3  A    between atoms: N_21  and  C_22
REMARK    4  A    between atoms: C_22  and  C_23
REMARK    5  A    between atoms: C_23  and  C_24
REMARK    6  A    between atoms: C_27  and  S_30
REMARK    7  A    between atoms: S_30  and  N_33
REMARK                            x       y       z     vdW  Elec       q    Type
REMARK                         _______ _______ _______ _____ _____    ______ ____
ROOT
ATOM      1  C   UNL     1      -0.746   2.027  -1.211  0.00  0.00    +0.218 C 
ATOM      2  O   UNL     1      -1.203   1.238  -2.010  0.00  0.00    -0.275 OA
ATOM      3  N   UNL     1      -0.889   3.352  -1.415  0.00  0.00    -0.315 N 
ATOM      4  H   UNL     1      -0.474   4.067  -0.691  0.00  0.00    +0.149 HD
ENDROOT
BRANCH   1  15
ATOM      5  C   UNL     1       5.843   3.251   1.364  0.00  0.00    +0.100 A 
ATOM      6  C   UNL     1       5.498   2.349   2.379  0.00  0.00    +0.034 A 
ATOM      7  C   UNL     1       4.244   1.769   2.331  0.00  0.00    +0.047 A 
ATOM      8  C   UNL     1       3.403   2.110   1.270  0.00  0.00    +0.144 A 
ATOM      9  N   UNL     1       3.813   2.974   0.353  0.00  0.00    -0.134 NA
ATOM     10  N   UNL     1       4.974   3.518   0.396  0.00  0.00    -0.147 NA
ATOM     11  N   UNL     1       2.134   1.548   1.179  0.00  0.00    -0.313 N 
ATOM     12  C   UNL     1       2.208   0.081   1.168  0.00  0.00    +0.106 C 
ATOM     13  C   UNL     1       0.794  -0.503   1.214  0.00  0.00    +0.020 C 
ATOM     14  C   UNL     1       0.002  -0.004   0.002  0.00  0.00    +0.016 C 
ATOM     15  C   UNL     1      -0.019   1.527   0.010  0.00  0.00    +0.092 C 
ATOM     16  C   UNL     1       1.419   2.052  -0.001  0.00  0.00    +0.119 C 
BRANCH   5  19
ATOM     17  C   UNL     1       8.966   5.283   0.697  0.00  0.00    +0.008 A 
ATOM     18  C   UNL     1       7.694   4.801   0.479  0.00  0.00    +0.018 A 
ATOM     19  C   UNL     1       7.168   3.904   1.371  0.00  0.00    +0.039 A 
ATOM     20  S   UNL     1       8.505   3.723   2.541  0.00  0.00    -0.095 S 
ATOM     21  C   UNL     1       9.662   4.848   1.778  0.00  0.00    +0.046 A 
ENDBRANCH   5  19
ENDBRANCH   1  15
BRANCH   3  22
ATOM     22  C   UNL     1      -1.596   3.838  -2.603  0.00  0.00    +0.109 C 
BRANCH  22  23
ATOM     23  C   UNL     1      -1.616   5.367  -2.594  0.00  0.00    +0.054 C 
BRANCH  23  24
ATOM     24  C   UNL     1      -2.344   5.867  -3.815  0.00  0.00    -0.046 A 
ATOM     25  C   UNL     1      -1.645   6.120  -4.981  0.00  0.00    +0.005 A 
ATOM     26  C   UNL     1      -2.313   6.574  -6.102  0.00  0.00    +0.029 A 
ATOM     27  C   UNL     1      -3.678   6.786  -6.055  0.00  0.00    +0.105 A 
ATOM     28  C   UNL     1      -4.376   6.538  -4.888  0.00  0.00    +0.029 A 
ATOM     29  C   UNL     1      -3.709   6.080  -3.768  0.00  0.00    +0.005 A 
BRANCH  27  30
ATOM     30  S   UNL     1      -4.529   7.370  -7.483  0.00  0.00    +0.056 S 
ATOM     31  O   UNL     1      -3.737   7.004  -8.606  0.00  0.00    -0.153 OA
ATOM     32  O   UNL     1      -5.884   6.966  -7.343  0.00  0.00    -0.153 OA
BRANCH  30  33
ATOM     33  N   UNL     1      -4.518   9.025  -7.416  0.00  0.00    -0.204 NA
ATOM     34  H   UNL     1      -5.042   9.431  -8.294  0.00  0.00    +0.144 HD
ATOM     35  H   UNL     1      -3.479   9.385  -7.410  0.00  0.00    +0.144 HD
ENDBRANCH  30  33
ENDBRANCH  27  30
ENDBRANCH  23  24
ENDBRANCH  22  23
ENDBRANCH   3  22
TORSDOF 7
