REMARK  Name = ZINC40153580
REMARK  13 active torsions:
REMARK  status: ('A' for Active; 'I' for Inactive)
REMARK    1  A    between atoms: C_1  and  C_2
REMARK    2  A    between atoms: C_2  and  C_3
REMARK    3  A    between atoms: C_2  and  N_4
REMARK    4  A    between atoms: N_7  and  C_8
REMARK    5  A    between atoms: N_7  and  C_9
REMARK    6  A    between atoms: C_12  and  O_15
REMARK    7  A    between atoms: O_15  and  C_16
REMARK    8  A    between atoms: C_16  and  C_18
REMARK    9  A    between atoms: C_20  and  S_25
REMARK   10  A    between atoms: S_25  and  N_28
REMARK   11  A    between atoms: N_28  and  C_29
REMARK   12  A    between atoms: C_29  and  C_30
REMARK   13  A    between atoms: C_29  and  C_31
REMARK                            x       y       z     vdW  Elec       q    Type
REMARK                         _______ _______ _______ _____ _____    ______ ____
ROOT
ATOM      1  C   UNL     1      -4.162  -8.186  -1.883  0.00  0.00    +0.346 C 
ATOM      2  O   UNL     1      -3.552  -8.106  -0.835  0.00  0.00    -0.244 OA
ENDROOT
BRANCH   1   3
ATOM      3  C   UNL     1      -4.640  -9.499  -2.359  0.00  0.00    +0.080 A 
ATOM      4  C   UNL     1      -5.337  -9.597  -3.566  0.00  0.00    +0.045 A 
ATOM      5  C   UNL     1      -5.781 -10.826  -4.005  0.00  0.00    +0.106 A 
ATOM      6  C   UNL     1      -5.539 -11.963  -3.253  0.00  0.00    +0.030 A 
ATOM      7  C   UNL     1      -4.851 -11.875  -2.057  0.00  0.00    +0.023 A 
ATOM      8  C   UNL     1      -4.394 -10.651  -1.607  0.00  0.00    +0.055 A 
ATOM      9 CL   UNL     1      -3.524 -10.544  -0.109  0.00  0.00    -0.083 Cl
BRANCH   5  10
ATOM     10  S   UNL     1      -6.660 -10.950  -5.527  0.00  0.00    +0.059 S 
ATOM     11  O   UNL     1      -7.444 -12.133  -5.448  0.00  0.00    -0.153 OA
ATOM     12  O   UNL     1      -7.232  -9.672  -5.771  0.00  0.00    -0.153 OA
BRANCH  10  13
ATOM     13  N   UNL     1      -5.540 -11.203  -6.720  0.00  0.00    -0.187 NA
ATOM     14  H   UNL     1      -5.407 -10.534  -7.410  0.00  0.00    +0.148 HD
BRANCH  13  15
ATOM     15  C   UNL     1      -4.750 -12.436  -6.734  0.00  0.00    +0.070 C 
ATOM     16  C   UNL     1      -4.498 -12.865  -8.181  0.00  0.00    +0.025 C 
ATOM     17  C   UNL     1      -3.412 -12.193  -6.034  0.00  0.00    +0.025 C 
ENDBRANCH  13  15
ENDBRANCH  10  13
ENDBRANCH   5  10
ENDBRANCH   1   3
BRANCH   1  18
ATOM     18  O   UNL     1      -4.401  -7.078  -2.610  0.00  0.00    -0.422 OA
BRANCH  18  22
ATOM     19  C   UNL     1      -3.285  -3.437  -1.016  0.00  0.00    +0.038 A 
ATOM     20  C   UNL     1      -2.322  -4.292  -1.534  0.00  0.00    +0.027 A 
ATOM     21  C   UNL     1      -2.696  -5.510  -2.067  0.00  0.00    +0.048 A 
ATOM     22  C   UNL     1      -4.033  -5.879  -2.085  0.00  0.00    +0.132 A 
ATOM     23  C   UNL     1      -4.996  -5.024  -1.568  0.00  0.00    +0.048 A 
ATOM     24  C   UNL     1      -4.623  -3.808  -1.030  0.00  0.00    +0.027 A 
BRANCH  19  28
ATOM     25  N   UNL     1      -2.115  -0.025  -0.775  0.00  0.00    -0.297 N 
ATOM     26  C   UNL     1      -2.378  -1.250  -1.272  0.00  0.00    +0.306 C 
ATOM     27  O   UNL     1      -2.140  -1.498  -2.438  0.00  0.00    -0.252 OA
ATOM     28  N   UNL     1      -2.907  -2.201  -0.476  0.00  0.00    -0.259 N 
ATOM     29  C   UNL     1      -3.085  -1.942   0.955  0.00  0.00    +0.140 C 
ATOM     30  H   UNL     1      -2.305   0.172   0.155  0.00  0.00    +0.151 HD
BRANCH  25  32
ATOM     31  C   UNL     1      -1.902   2.390  -1.094  0.00  0.00    +0.027 C 
ATOM     32  C   UNL     1      -1.541   1.008  -1.641  0.00  0.00    +0.068 C 
ATOM     33  C   UNL     1      -0.019   0.856  -1.676  0.00  0.00    +0.027 C 
ENDBRANCH  25  32
ENDBRANCH  19  28
ENDBRANCH  18  22
ENDBRANCH   1  18
TORSDOF 8
