REMARK  Name = ZINC02165662
REMARK  10 active torsions:
REMARK  status: ('A' for Active; 'I' for Inactive)
REMARK    1  A    between atoms: C_4  and  C_7
REMARK    2  A    between atoms: C_7  and  S_8
REMARK    3  A    between atoms: S_8  and  C_9
REMARK    4  A    between atoms: C_9  and  C_10
REMARK    5  A    between atoms: C_10  and  C_12
REMARK    6  A    between atoms: C_10  and  N_22
REMARK    7  A    between atoms: N_14  and  N_15
REMARK    8  A    between atoms: C_16  and  C_17
REMARK    9  A    between atoms: C_23  and  C_25
REMARK   10  A    between atoms: C_28  and  N_31
REMARK                            x       y       z     vdW  Elec       q    Type
REMARK                         _______ _______ _______ _____ _____    ______ ____
ROOT
ATOM      1  C   UNL     1       1.280   1.980   0.001  0.00  0.00    +0.171 C 
ENDROOT
BRANCH   1   2
ATOM      2  C   UNL     1      -0.014   1.209   0.009  0.00  0.00    +0.253 C 
ATOM      3  O   UNL     1       0.002  -0.004   0.002  0.00  0.00    -0.272 OA
ATOM      4  N   UNL     1      -1.191   1.867   0.018  0.00  0.00    -0.205 N 
ATOM      5  H   UNL     1      -1.204   2.837   0.023  0.00  0.00    +0.177 HD
BRANCH   4   6
ATOM      6  N   UNL     1      -2.394   1.150   0.020  0.00  0.00    -0.185 NA
ATOM      7  C   UNL     1      -3.530   1.785   0.029  0.00  0.00    +0.176 C 
BRANCH   7   8
ATOM      8  C   UNL     1      -4.789   1.035   0.030  0.00  0.00    +0.147 A 
ATOM      9  C   UNL     1      -6.043   1.573   0.039  0.00  0.00    +0.051 A 
ATOM     10  C   UNL     1      -6.947   0.495   0.038  0.00  0.00    +0.042 A 
ATOM     11  C   UNL     1      -6.213  -0.637   0.028  0.00  0.00    +0.196 A 
ATOM     12  O   UNL     1      -4.911  -0.308   0.018  0.00  0.00    -0.462 OA
ENDBRANCH   7   8
ENDBRANCH   4   6
ENDBRANCH   1   2
BRANCH   1  13
ATOM     13  N   UNL     1       2.407   1.044  -0.015  0.00  0.00    -0.299 N 
ATOM     14  C   UNL     1       3.606   1.423   0.469  0.00  0.00    +0.245 C 
ATOM     15  O   UNL     1       3.753   2.543   0.918  0.00  0.00    -0.270 OA
ATOM     16  H   UNL     1       2.289   0.150  -0.374  0.00  0.00    +0.150 HD
BRANCH  14  17
ATOM     17  C   UNL     1       4.742   0.478   0.453  0.00  0.00    +0.037 A 
ATOM     18  C   UNL     1       4.575  -0.810  -0.058  0.00  0.00    +0.015 A 
ATOM     19  C   UNL     1       5.642  -1.686  -0.075  0.00  0.00    +0.033 A 
ATOM     20  C   UNL     1       6.871  -1.293   0.423  0.00  0.00    +0.126 A 
ATOM     21  C   UNL     1       7.042  -0.019   0.935  0.00  0.00    +0.033 A 
ATOM     22  C   UNL     1       5.986   0.868   0.953  0.00  0.00    +0.015 A 
BRANCH  20  23
ATOM     23  N   UNL     1       8.009  -2.239   0.406  0.00  0.00    +0.056 N 
ATOM     24  O   UNL     1       9.093  -1.896   0.843  0.00  0.00    -0.126 OA
ATOM     25  O   UNL     1       7.862  -3.361  -0.044  0.00  0.00    -0.126 OA
ENDBRANCH  20  23
ENDBRANCH  14  17
ENDBRANCH   1  13
BRANCH   1  26
ATOM     26  C   UNL     1       1.337   2.868  -1.245  0.00  0.00    +0.101 C 
BRANCH  26  27
ATOM     27  S   UNL     1       2.896   3.796  -1.254  0.00  0.00    -0.154 S 
BRANCH  27  28
ATOM     28  C   UNL     1       2.808   4.785  -2.773  0.00  0.00    +0.104 C 
BRANCH  28  32
ATOM     29  C   UNL     1       6.354   7.138  -3.147  0.00  0.00    +0.000 A 
ATOM     30  C   UNL     1       6.305   5.870  -3.695  0.00  0.00    +0.000 A 
ATOM     31  C   UNL     1       5.157   5.108  -3.574  0.00  0.00    +0.004 A 
ATOM     32  C   UNL     1       4.059   5.615  -2.905  0.00  0.00    -0.038 A 
ATOM     33  C   UNL     1       4.106   6.885  -2.362  0.00  0.00    +0.004 A 
ATOM     34  C   UNL     1       5.255   7.644  -2.478  0.00  0.00    +0.000 A 
ENDBRANCH  28  32
ENDBRANCH  27  28
ENDBRANCH  26  27
ENDBRANCH   1  26
TORSDOF 10
