REMARK  Name = ZINC10709353
REMARK  8 active torsions:
REMARK  status: ('A' for Active; 'I' for Inactive)
REMARK    1  A    between atoms: C_1  and  C_2
REMARK    2  A    between atoms: C_5  and  N_11
REMARK    3  A    between atoms: C_6  and  N_8
REMARK    4  A    between atoms: C_12  and  C_14
REMARK    5  A    between atoms: C_14  and  S_15
REMARK    6  A    between atoms: S_15  and  C_16
REMARK    7  A    between atoms: C_19  and  C_22
REMARK    8  A    between atoms: N_20  and  C_21
REMARK                            x       y       z     vdW  Elec       q    Type
REMARK                         _______ _______ _______ _____ _____    ______ ____
ROOT
ATOM      1  N   UNL     1       0.038  -3.996  -0.029  0.00  0.00    -0.283 N 
ATOM      2  C   UNL     1      -0.101  -4.612  -1.220  0.00  0.00    +0.228 C 
ATOM      3  O   UNL     1      -0.140  -3.957  -2.240  0.00  0.00    -0.275 OA
ATOM      4  H   UNL     1       0.151  -4.522   0.779  0.00  0.00    +0.155 HD
ENDROOT
BRANCH   1   9
ATOM      5  C   UNL     1      -0.037   1.669   0.263  0.00  0.00    +0.044 C 
ATOM      6  C   UNL     1      -0.018   0.164   0.186  0.00  0.00    -0.048 A 
ATOM      7  C   UNL     1      -0.652  -0.482  -0.860  0.00  0.00    +0.005 A 
ATOM      8  C   UNL     1      -0.635  -1.861  -0.934  0.00  0.00    +0.026 A 
ATOM      9  C   UNL     1       0.020  -2.599   0.043  0.00  0.00    +0.064 A 
ATOM     10  C   UNL     1       0.655  -1.948   1.092  0.00  0.00    +0.148 A 
ATOM     11  C   UNL     1       0.639  -0.568   1.157  0.00  0.00    +0.038 A 
BRANCH  10  12
ATOM     12  N   UNL     1       1.354  -2.731   2.135  0.00  0.00    +0.058 N 
ATOM     13  O   UNL     1       1.825  -2.171   3.098  0.00  0.00    -0.126 OA
ATOM     14  O   UNL     1       1.454  -3.931   2.025  0.00  0.00    -0.126 OA
ENDBRANCH  10  12
ENDBRANCH   1   9
BRANCH   2  15
ATOM     15  C   UNL     1      -0.207  -6.114  -1.284  0.00  0.00    +0.173 C 
BRANCH  15  16
ATOM     16  S   UNL     1      -0.383  -6.634  -3.013  0.00  0.00    -0.077 S 
BRANCH  16  17
ATOM     17  C   UNL     1      -0.494  -8.390  -2.920  0.00  0.00    +0.192 A 
ATOM     18  N   UNL     1      -0.459  -9.116  -1.826  0.00  0.00    -0.122 NA
ATOM     19  N   UNL     1      -0.565 -10.363  -2.119  0.00  0.00    -0.128 NA
ATOM     20  C   UNL     1      -0.674 -10.511  -3.421  0.00  0.00    +0.171 A 
ATOM     21  N   UNL     1      -0.638  -9.250  -3.974  0.00  0.00    -0.305 N 
ATOM     22  C   UNL     1      -0.731  -8.903  -5.394  0.00  0.00    +0.153 C 
BRANCH  20  23
ATOM     23  C   UNL     1      -0.815 -11.782  -4.148  0.00  0.00    +0.056 A 
ATOM     24  C   UNL     1      -1.144 -13.023  -3.665  0.00  0.00    +0.019 A 
ATOM     25  C   UNL     1      -1.217 -14.078  -4.547  0.00  0.00    +0.008 A 
ATOM     26  C   UNL     1      -0.962 -13.859  -5.863  0.00  0.00    +0.046 A 
ATOM     27  S   UNL     1      -0.609 -12.110  -5.891  0.00  0.00    -0.094 S 
ENDBRANCH  20  23
ENDBRANCH  16  17
ENDBRANCH  15  16
ENDBRANCH   2  15
TORSDOF 6
