REMARK  Name = ZINC41021622
REMARK  11 active torsions:
REMARK  status: ('A' for Active; 'I' for Inactive)
REMARK    1  A    between atoms: C_1  and  C_2
REMARK    2  A    between atoms: C_2  and  C_3
REMARK    3  A    between atoms: C_3  and  S_4
REMARK    4  A    between atoms: S_4  and  C_5
REMARK    5  A    between atoms: C_10  and  C_28
REMARK    6  A    between atoms: C_12  and  C_16
REMARK    7  A    between atoms: C_13  and  C_15
REMARK    8  A    between atoms: N_18  and  C_19
REMARK    9  A    between atoms: C_24  and  O_25
REMARK   10  A    between atoms: O_25  and  C_26
REMARK   11  A    between atoms: C_26  and  C_27
REMARK                            x       y       z     vdW  Elec       q    Type
REMARK                         _______ _______ _______ _____ _____    ______ ____
ROOT
ATOM      1  C   UNL     1      -3.096  -2.837   0.119  0.00  0.00    +0.210 A 
ATOM      2  N   UNL     1      -4.119  -1.970   0.106  0.00  0.00    -0.187 NA
ATOM      3  C   UNL     1      -5.247  -2.627   0.095  0.00  0.00    +0.219 A 
ATOM      4  N   UNL     1      -4.963  -3.953   0.104  0.00  0.00    -0.220 N 
ATOM      5  N   UNL     1      -3.573  -4.063   0.111  0.00  0.00    -0.141 NA
ATOM      6  C   UNL     1      -5.983  -4.998   0.105  0.00  0.00    +0.177 C 
ATOM      7  C   UNL     1      -7.324  -4.389  -0.204  0.00  0.00    +0.060 C 
ATOM      8  C   UNL     1      -7.546  -3.067  -0.203  0.00  0.00    +0.018 C 
ATOM      9  N   UNL     1      -6.554  -2.159   0.073  0.00  0.00    -0.287 N 
ATOM     10  C   UNL     1      -8.931  -2.561  -0.515  0.00  0.00    +0.061 C 
ATOM     11  H   UNL     1      -6.758  -1.226   0.247  0.00  0.00    +0.155 HD
ENDROOT
BRANCH   6  12
ATOM     12  C   UNL     1      -6.029  -5.653   1.462  0.00  0.00    -0.016 A 
ATOM     13  C   UNL     1      -6.326  -4.915   2.597  0.00  0.00    +0.026 A 
ATOM     14  C   UNL     1      -6.360  -5.550   3.824  0.00  0.00    +0.111 A 
ATOM     15  N   UNL     1      -6.113  -6.842   3.922  0.00  0.00    -0.263 NA
ATOM     16  C   UNL     1      -5.827  -7.575   2.864  0.00  0.00    +0.111 A 
ATOM     17  C   UNL     1      -5.781  -7.010   1.603  0.00  0.00    +0.026 A 
ENDBRANCH   6  12
BRANCH   7  18
ATOM     18  C   UNL     1      -8.402  -5.254  -0.511  0.00  0.00    +0.248 C 
ATOM     19  O   UNL     1      -8.503  -5.728  -1.628  0.00  0.00    -0.270 OA
ATOM     20  N   UNL     1      -9.316  -5.552   0.433  0.00  0.00    -0.279 N 
ATOM     21  H   UNL     1      -9.282  -5.113   1.297  0.00  0.00    +0.155 HD
BRANCH  20  22
ATOM     22  C   UNL     1     -10.316  -6.496   0.166  0.00  0.00    +0.076 A 
ATOM     23  C   UNL     1     -10.108  -7.477  -0.793  0.00  0.00    +0.027 A 
ATOM     24  C   UNL     1     -11.096  -8.407  -1.054  0.00  0.00    +0.002 A 
ATOM     25  C   UNL     1     -12.292  -8.364  -0.362  0.00  0.00    +0.004 A 
ATOM     26  C   UNL     1     -12.506  -7.390   0.595  0.00  0.00    +0.047 A 
ATOM     27  C   UNL     1     -11.519  -6.457   0.867  0.00  0.00    +0.142 A 
BRANCH  27  28
ATOM     28  O   UNL     1     -11.726  -5.501   1.812  0.00  0.00    -0.490 OA
BRANCH  28  29
ATOM     29  C   UNL     1     -12.984  -5.522   2.491  0.00  0.00    +0.226 C 
ATOM     30  C   UNL     1     -13.032  -4.381   3.509  0.00  0.00    +0.048 C 
ENDBRANCH  28  29
ENDBRANCH  27  28
ENDBRANCH  20  22
ENDBRANCH   7  18
BRANCH   1  31
ATOM     31  S   UNL     1      -1.388  -2.403   0.136  0.00  0.00    -0.084 S 
BRANCH  31  32
ATOM     32  C   UNL     1      -1.396  -0.590   0.141  0.00  0.00    +0.077 C 
BRANCH  32  34
ATOM     33  C   UNL     1       0.038   1.456   0.160  0.00  0.00    +0.004 C 
ATOM     34  C   UNL     1       0.044  -0.073   0.155  0.00  0.00    +0.008 C 
ENDBRANCH  32  34
ENDBRANCH  31  32
ENDBRANCH   1  31
TORSDOF 8
