REMARK  Name = ZINC20569741
REMARK  9 active torsions:
REMARK  status: ('A' for Active; 'I' for Inactive)
REMARK    1  A    between atoms: C_1  and  C_2
REMARK    2  A    between atoms: C_2  and  O_3
REMARK    3  A    between atoms: O_3  and  C_4
REMARK    4  A    between atoms: C_4  and  C_6
REMARK    5  A    between atoms: C_7  and  N_15
REMARK    6  A    between atoms: C_16  and  C_18
REMARK    7  A    between atoms: C_23  and  N_24
REMARK    8  A    between atoms: N_24  and  S_25
REMARK    9  A    between atoms: S_25  and  C_28
REMARK                            x       y       z     vdW  Elec       q    Type
REMARK                         _______ _______ _______ _____ _____    ______ ____
ROOT
ATOM      1  N   UNL     1      -0.082  -0.311  -0.307  0.00  0.00    -0.278 N 
ATOM      2  C   UNL     1      -1.116  -1.034   0.167  0.00  0.00    +0.250 C 
ATOM      3  O   UNL     1      -2.149  -0.479   0.489  0.00  0.00    -0.270 OA
ATOM      4  H   UNL     1       0.828  -0.818  -0.660  0.00  0.00    +0.155 HD
ENDROOT
BRANCH   1   6
ATOM      5  C   UNL     1       0.507   1.923  -1.202  0.00  0.00    +0.234 A 
ATOM      6  C   UNL     1      -0.165   1.075  -0.348  0.00  0.00    +0.094 A 
ATOM      7  C   UNL     1      -0.981   1.939   0.513  0.00  0.00    +0.042 A 
ATOM      8  C   UNL     1      -1.866   1.702   1.565  0.00  0.00    +0.013 A 
ATOM      9  C   UNL     1      -2.487   2.753   2.180  0.00  0.00    +0.001 A 
ATOM     10  C   UNL     1      -2.240   4.054   1.765  0.00  0.00    +0.004 A 
ATOM     11  C   UNL     1      -1.368   4.309   0.729  0.00  0.00    +0.047 A 
ATOM     12  C   UNL     1      -0.726   3.255   0.088  0.00  0.00    +0.138 A 
ATOM     13  O   UNL     1       0.156   3.201  -0.930  0.00  0.00    -0.446 OA
BRANCH   5  14
ATOM     14  C   UNL     1       1.418   1.521  -2.209  0.00  0.00    +0.377 C 
ATOM     15  O   UNL     1       1.589   0.338  -2.437  0.00  0.00    -0.241 OA
BRANCH  14  16
ATOM     16  O   UNL     1       2.097   2.449  -2.916  0.00  0.00    -0.459 OA
BRANCH  16  18
ATOM     17  C   UNL     1       3.671   3.161  -4.606  0.00  0.00    +0.048 C 
ATOM     18  C   UNL     1       2.999   1.972  -3.915  0.00  0.00    +0.229 C 
ENDBRANCH  16  18
ENDBRANCH  14  16
ENDBRANCH   5  14
ENDBRANCH   1   6
BRANCH   2  19
ATOM     19  C   UNL     1      -0.995  -2.497   0.294  0.00  0.00    +0.059 A 
ATOM     20  C   UNL     1       0.191  -3.139  -0.075  0.00  0.00    +0.015 A 
ATOM     21  C   UNL     1       0.297  -4.507   0.046  0.00  0.00    +0.001 A 
ATOM     22  C   UNL     1      -0.765  -5.253   0.533  0.00  0.00    +0.002 A 
ATOM     23  C   UNL     1      -1.942  -4.634   0.902  0.00  0.00    +0.025 A 
ATOM     24  C   UNL     1      -2.067  -3.254   0.792  0.00  0.00    +0.060 A 
BRANCH  24  25
ATOM     25  N   UNL     1      -3.248  -2.628   1.168  0.00  0.00    -0.216 N 
ATOM     26  H   UNL     1      -3.612  -1.756   0.604  0.00  0.00    +0.174 HD
BRANCH  25  27
ATOM     27  S   UNL     1      -4.109  -3.194   2.465  0.00  0.00    +0.072 S 
ATOM     28  O   UNL     1      -5.178  -2.281   2.672  0.00  0.00    -0.150 OA
ATOM     29  O   UNL     1      -4.324  -4.580   2.235  0.00  0.00    -0.150 OA
BRANCH  27  30
ATOM     30  C   UNL     1      -3.062  -3.074   3.877  0.00  0.00    +0.109 A 
ATOM     31  C   UNL     1      -2.246  -4.134   4.224  0.00  0.00    +0.031 A 
ATOM     32  C   UNL     1      -1.421  -4.039   5.329  0.00  0.00    +0.040 A 
ATOM     33  C   UNL     1      -1.421  -2.885   6.095  0.00  0.00    +0.124 A 
ATOM     34  C   UNL     1      -2.243  -1.826   5.749  0.00  0.00    +0.040 A 
ATOM     35  C   UNL     1      -3.062  -1.921   4.641  0.00  0.00    +0.031 A 
ATOM     36  F   UNL     1      -0.618  -2.793   7.178  0.00  0.00    -0.205 F 
ENDBRANCH  27  30
ENDBRANCH  25  27
ENDBRANCH  24  25
ENDBRANCH   2  19
TORSDOF 8
