REMARK  Name = ZINC08927581
REMARK  8 active torsions:
REMARK  status: ('A' for Active; 'I' for Inactive)
REMARK    1  A    between atoms: C_1  and  C_2
REMARK    2  A    between atoms: C_9  and  N_14
REMARK    3  A    between atoms: C_10  and  C_11
REMARK    4  A    between atoms: C_15  and  C_17
REMARK    5  A    between atoms: N_22  and  S_23
REMARK    6  A    between atoms: S_23  and  C_26
REMARK    7  A    between atoms: C_29  and  O_32
REMARK    8  A    between atoms: O_32  and  C_33
REMARK                            x       y       z     vdW  Elec       q    Type
REMARK                         _______ _______ _______ _____ _____    ______ ____
ROOT
ATOM      1  N   UNL     1      -1.472   6.399   2.405  0.00  0.00    -0.278 N 
ATOM      2  C   UNL     1      -1.923   7.653   2.206  0.00  0.00    +0.236 C 
ATOM      3  O   UNL     1      -2.235   8.016   1.091  0.00  0.00    -0.274 OA
ATOM      4  H   UNL     1      -1.223   6.109   3.297  0.00  0.00    +0.155 HD
ENDROOT
BRANCH   1  12
ATOM      5  C   UNL     1      -1.102   1.742  -3.869  0.00  0.00    +0.008 C 
ATOM      6  C   UNL     1      -1.321   2.224  -2.433  0.00  0.00    -0.009 C 
ATOM      7  C   UNL     1      -0.136   1.797  -1.562  0.00  0.00    +0.008 C 
ATOM      8  C   UNL     1      -0.458   2.053  -0.088  0.00  0.00    +0.037 C 
ATOM      9  C   UNL     1      -0.910   3.499   0.071  0.00  0.00    -0.023 A 
ATOM     10  C   UNL     1      -1.331   4.217  -0.992  0.00  0.00    -0.004 A 
ATOM     11  S   UNL     1      -1.745   5.806  -0.331  0.00  0.00    -0.077 S 
ATOM     12  C   UNL     1      -1.365   5.523   1.336  0.00  0.00    +0.084 A 
ATOM     13  C   UNL     1      -0.927   4.206   1.341  0.00  0.00    +0.068 A 
ATOM     14  C   UNL     1      -1.423   3.756  -2.414  0.00  0.00    +0.046 C 
BRANCH  13  15
ATOM     15  C   UNL     1      -0.497   3.552   2.581  0.00  0.00    +0.244 C 
ATOM     16  O   UNL     1       0.669   3.610   2.926  0.00  0.00    -0.270 OA
ATOM     17  N   UNL     1      -1.392   2.888   3.338  0.00  0.00    -0.325 N 
ATOM     18  H   UNL     1      -2.321   2.843   3.063  0.00  0.00    +0.145 HD
ATOM     19  H   UNL     1      -1.108   2.456   4.159  0.00  0.00    +0.145 HD
ENDBRANCH  13  15
ENDBRANCH   1  12
BRANCH   2  20
ATOM     20  C   UNL     1      -2.040   8.606   3.368  0.00  0.00    +0.166 C 
ATOM     21  C   UNL     1      -3.427   8.459   4.029  0.00  0.00    +0.031 C 
ATOM     22  C   UNL     1      -3.794   9.926   4.389  0.00  0.00    +0.019 C 
ATOM     23  C   UNL     1      -3.178  10.704   3.200  0.00  0.00    +0.110 C 
ATOM     24  N   UNL     1      -1.924   9.992   2.892  0.00  0.00    -0.165 NA
BRANCH  24  25
ATOM     25  S   UNL     1      -0.604  10.645   2.135  0.00  0.00    +0.062 S 
ATOM     26  O   UNL     1       0.176   9.554   1.665  0.00  0.00    -0.153 OA
ATOM     27  O   UNL     1      -1.093  11.660   1.269  0.00  0.00    -0.153 OA
BRANCH  25  28
ATOM     28  C   UNL     1       0.357  11.456   3.369  0.00  0.00    +0.106 A 
ATOM     29  C   UNL     1       0.060  12.757   3.730  0.00  0.00    +0.032 A 
ATOM     30  C   UNL     1       0.808  13.394   4.702  0.00  0.00    +0.047 A 
ATOM     31  C   UNL     1       1.865  12.730   5.307  0.00  0.00    +0.120 A 
ATOM     32  C   UNL     1       2.164  11.426   4.940  0.00  0.00    +0.047 A 
ATOM     33  C   UNL     1       1.409  10.792   3.972  0.00  0.00    +0.032 A 
BRANCH  31  34
ATOM     34  O   UNL     1       2.606  13.356   6.259  0.00  0.00    -0.495 OA
ATOM     35  C   UNL     1       2.241  14.698   6.587  0.00  0.00    +0.277 C 
ENDBRANCH  31  34
ENDBRANCH  25  28
ENDBRANCH  24  25
ENDBRANCH   2  20
TORSDOF 6
