REMARK  Name = ZINC22507219
REMARK  10 active torsions:
REMARK  status: ('A' for Active; 'I' for Inactive)
REMARK    1  A    between atoms: C_1  and  C_2
REMARK    2  A    between atoms: C_2  and  C_25
REMARK    3  A    between atoms: N_3  and  N_4
REMARK    4  A    between atoms: N_4  and  C_5
REMARK    5  A    between atoms: C_9  and  C_12
REMARK    6  A    between atoms: C_12  and  C_13
REMARK    7  A    between atoms: N_15  and  C_16
REMARK    8  A    between atoms: C_20  and  N_22
REMARK    9  A    between atoms: C_27  and  C_31
REMARK   10  A    between atoms: C_27  and  C_32
REMARK                            x       y       z     vdW  Elec       q    Type
REMARK                         _______ _______ _______ _____ _____    ______ ____
ROOT
ATOM      1  C   UNL     1      -0.366  -2.444   1.821  0.00  0.00    +0.191 C 
ATOM      2  N   UNL     1      -0.226  -2.047   3.079  0.00  0.00    -0.155 NA
ATOM      3  C   UNL     1      -0.263  -2.841   4.113  0.00  0.00    +0.252 C 
ATOM      4  O   UNL     1      -0.130  -2.435   5.251  0.00  0.00    -0.272 OA
ATOM      5  C   UNL     1      -0.486  -4.315   3.795  0.00  0.00    +0.150 C 
ATOM      6  S   UNL     1      -0.606  -4.210   1.959  0.00  0.00    -0.076 S 
ENDROOT
BRANCH   1   7
ATOM      7  N   UNL     1      -0.340  -1.683   0.688  0.00  0.00    -0.094 NA
BRANCH   7  10
ATOM      8  C   UNL     1      -0.008   1.925  -0.199  0.00  0.00    +0.067 C 
ATOM      9  C   UNL     1      -0.113   0.425  -0.301  0.00  0.00    +0.061 C 
ATOM     10  N   UNL     1      -0.138  -0.299   0.778  0.00  0.00    -0.163 NA
BRANCH   9  11
ATOM     11  C   UNL     1      -0.186  -0.216  -1.618  0.00  0.00    -0.028 C 
ATOM     12  C   UNL     1      -1.352  -0.681  -2.018  0.00  0.00    -0.015 C 
ATOM     13  C   UNL     1      -1.570  -1.367  -3.335  0.00  0.00    -0.016 C 
ATOM     14  C   UNL     1      -0.405  -1.072  -4.282  0.00  0.00    +0.011 C 
ATOM     15  C   UNL     1       0.908  -1.350  -3.539  0.00  0.00    +0.005 C 
ATOM     16  C   UNL     1       1.070  -0.301  -2.435  0.00  0.00    +0.037 C 
ATOM     17  C   UNL     1      -2.872  -0.864  -3.960  0.00  0.00    +0.015 C 
ATOM     18  C   UNL     1      -1.669  -2.877  -3.109  0.00  0.00    +0.015 C 
ENDBRANCH   9  11
ENDBRANCH   7  10
ENDBRANCH   1   7
BRANCH   5  19
ATOM     19  C   UNL     1      -1.791  -4.828   4.407  0.00  0.00    +0.120 C 
BRANCH  19  20
ATOM     20  C   UNL     1      -1.908  -6.312   4.172  0.00  0.00    +0.219 C 
ATOM     21  O   UNL     1      -1.033  -6.901   3.573  0.00  0.00    -0.275 OA
ATOM     22  N   UNL     1      -2.984  -6.984   4.627  0.00  0.00    -0.285 N 
ATOM     23  H   UNL     1      -3.716  -6.502   5.042  0.00  0.00    +0.155 HD
BRANCH  22  24
ATOM     24  C   UNL     1      -3.045  -8.376   4.499  0.00  0.00    +0.036 A 
ATOM     25  C   UNL     1      -4.276  -9.014   4.419  0.00  0.00    +0.023 A 
ATOM     26  C   UNL     1      -4.333 -10.388   4.293  0.00  0.00    +0.004 A 
ATOM     27  C   UNL     1      -3.166 -11.128   4.247  0.00  0.00    +0.033 A 
ATOM     28  C   UNL     1      -1.938 -10.496   4.326  0.00  0.00    +0.128 A 
ATOM     29  C   UNL     1      -1.875  -9.121   4.446  0.00  0.00    +0.056 A 
BRANCH  28  30
ATOM     30  N   UNL     1      -0.692 -11.292   4.277  0.00  0.00    +0.056 N 
ATOM     31  O   UNL     1      -0.747 -12.495   4.167  0.00  0.00    -0.126 OA
ATOM     32  O   UNL     1       0.381 -10.740   4.346  0.00  0.00    -0.126 OA
ENDBRANCH  28  30
ENDBRANCH  22  24
ENDBRANCH  19  20
ENDBRANCH   5  19
TORSDOF 7
