REMARK  Name = ZINC10760336
REMARK  11 active torsions:
REMARK  status: ('A' for Active; 'I' for Inactive)
REMARK    1  A    between atoms: C_1  and  C_2
REMARK    2  A    between atoms: C_2  and  O_3
REMARK    3  A    between atoms: O_3  and  C_4
REMARK    4  A    between atoms: C_7  and  N_13
REMARK    5  A    between atoms: C_8  and  N_10
REMARK    6  A    between atoms: C_14  and  C_16
REMARK    7  A    between atoms: C_16  and  O_17
REMARK    8  A    between atoms: O_17  and  C_18
REMARK    9  A    between atoms: C_18  and  C_20
REMARK   10  A    between atoms: C_20  and  N_21
REMARK   11  A    between atoms: C_29  and  C_31
REMARK                            x       y       z     vdW  Elec       q    Type
REMARK                         _______ _______ _______ _____ _____    ______ ____
ROOT
ATOM      1  O   UNL     1       3.777  -2.276   0.349  0.00  0.00    -0.454 OA
ENDROOT
BRANCH   1   2
ATOM      2  C   UNL     1       4.893  -3.014   0.459  0.00  0.00    +0.326 C 
ATOM      3  O   UNL     1       5.975  -2.477   0.465  0.00  0.00    -0.249 OA
BRANCH   2   4
ATOM      4  C   UNL     1       4.796  -4.513   0.575  0.00  0.00    +0.238 C 
BRANCH   4   5
ATOM      5  N   UNL     1       6.141  -5.083   0.681  0.00  0.00    -0.213 N 
ATOM      6  C   UNL     1       6.886  -5.472  -0.375  0.00  0.00    +0.247 C 
ATOM      7  O   UNL     1       6.581  -5.418  -1.547  0.00  0.00    -0.273 OA
ATOM      8  C   UNL     1       8.180  -5.987   0.211  0.00  0.00    +0.115 C 
ATOM      9  C   UNL     1       8.372  -7.458  -0.141  0.00  0.00    +0.035 C 
ATOM     10  C   UNL     1       9.668  -7.970   0.492  0.00  0.00    +0.003 C 
ATOM     11  C   UNL     1      10.848  -7.146  -0.026  0.00  0.00    +0.000 C 
ATOM     12  C   UNL     1      10.652  -5.677   0.353  0.00  0.00    +0.006 C 
ATOM     13  C   UNL     1       9.360  -5.155  -0.281  0.00  0.00    +0.018 C 
ATOM     14  C   UNL     1       9.152  -3.692   0.114  0.00  0.00    +0.010 C 
ATOM     15  N   UNL     1       8.005  -5.824   1.660  0.00  0.00    -0.285 N 
ATOM     16  C   UNL     1       6.782  -5.288   1.838  0.00  0.00    +0.310 C 
ATOM     17  O   UNL     1       6.314  -5.021   2.927  0.00  0.00    -0.252 OA
ATOM     18  H   UNL     1       8.644  -6.056   2.352  0.00  0.00    +0.151 HD
ENDBRANCH   4   5
ENDBRANCH   2   4
ENDBRANCH   1   2
BRANCH   1  19
ATOM     19  C   UNL     1       3.947  -0.837   0.242  0.00  0.00    +0.328 C 
BRANCH  19  21
ATOM     20  N   UNL     1       2.506   1.161   0.017  0.00  0.00    -0.281 N 
ATOM     21  C   UNL     1       2.596  -0.180   0.128  0.00  0.00    +0.255 C 
ATOM     22  O   UNL     1       1.589  -0.856   0.137  0.00  0.00    -0.272 OA
ATOM     23  H   UNL     1       3.312   1.696  -0.055  0.00  0.00    +0.155 HD
BRANCH  20  27
ATOM     24  C   UNL     1      -1.234   3.004  -0.020  0.00  0.00    +0.123 A 
ATOM     25  C   UNL     1      -1.065   1.767  -0.624  0.00  0.00    +0.047 A 
ATOM     26  C   UNL     1       0.172   1.153  -0.607  0.00  0.00    +0.029 A 
ATOM     27  C   UNL     1       1.249   1.780   0.005  0.00  0.00    +0.064 A 
ATOM     28  C   UNL     1       1.081   3.021   0.604  0.00  0.00    +0.151 A 
ATOM     29  C   UNL     1      -0.158   3.631   0.592  0.00  0.00    +0.080 A 
BRANCH  28  30
ATOM     30  N   UNL     1       2.229   3.689   1.257  0.00  0.00    +0.058 N 
ATOM     31  O   UNL     1       2.062   4.735   1.860  0.00  0.00    -0.126 OA
ATOM     32  O   UNL     1       3.340   3.194   1.192  0.00  0.00    -0.126 OA
ENDBRANCH  28  30
BRANCH  24  33
ATOM     33  O   UNL     1      -2.453   3.606  -0.033  0.00  0.00    -0.492 OA
BRANCH  33  35
ATOM     34  C   UNL     1      -4.801   3.731  -0.594  0.00  0.00    +0.048 C 
ATOM     35  C   UNL     1      -3.516   2.904  -0.680  0.00  0.00    +0.225 C 
ENDBRANCH  33  35
ENDBRANCH  24  33
ENDBRANCH  20  27
ENDBRANCH  19  21
ENDBRANCH   1  19
TORSDOF 9
