REMARK  Name = ZINC66790257
REMARK  7 active torsions:
REMARK  status: ('A' for Active; 'I' for Inactive)
REMARK    1  A    between atoms: C_1  and  N_2
REMARK    2  A    between atoms: N_2  and  S_3
REMARK    3  A    between atoms: S_3  and  C_6
REMARK    4  A    between atoms: C_9  and  C_11
REMARK    5  A    between atoms: N_13  and  N_14
REMARK    6  A    between atoms: C_15  and  C_17
REMARK    7  A    between atoms: C_17  and  C_18
REMARK                            x       y       z     vdW  Elec       q    Type
REMARK                         _______ _______ _______ _____ _____    ______ ____
ROOT
ATOM      1  C   UNL     1      -4.497   1.404  -3.595  0.00  0.00    +0.295 C 
ATOM      2  O   UNL     1      -4.815   1.271  -4.762  0.00  0.00    -0.265 OA
ATOM      3  N   UNL     1      -5.021   2.408  -2.864  0.00  0.00    -0.228 N 
ATOM      4  H   UNL     1      -4.767   2.514  -1.934  0.00  0.00    +0.173 HD
ENDROOT
BRANCH   1   8
ATOM      5  C   UNL     1      -2.247  -0.499  -1.505  0.00  0.00    +0.258 A 
ATOM      6  C   UNL     1      -2.115  -1.197  -2.654  0.00  0.00    +0.072 A 
ATOM      7  C   UNL     1      -2.942  -0.584  -3.608  0.00  0.00    +0.057 A 
ATOM      8  C   UNL     1      -3.544   0.471  -2.984  0.00  0.00    +0.193 A 
ATOM      9  O   UNL     1      -3.113   0.502  -1.706  0.00  0.00    -0.432 OA
BRANCH   5  10
ATOM     10  S   UNL     1      -1.421  -0.852   0.011  0.00  0.00    +0.091 S 
ATOM     11  O   UNL     1      -1.073  -2.229  -0.027  0.00  0.00    -0.150 OA
ATOM     12  O   UNL     1      -2.218  -0.295   1.047  0.00  0.00    -0.150 OA
BRANCH  10  14
ATOM     13  C   UNL     1      -0.018   1.461   0.010  0.00  0.00    +0.128 C 
ATOM     14  N   UNL     1       0.002  -0.004   0.002  0.00  0.00    -0.190 NA
ATOM     15  H   UNL     1       0.849  -0.478  -0.009  0.00  0.00    +0.148 HD
ENDBRANCH  10  14
ENDBRANCH   5  10
ENDBRANCH   1   8
BRANCH   3  16
ATOM     16  N   UNL     1      -5.931   3.299  -3.448  0.00  0.00    -0.234 N 
ATOM     17  C   UNL     1      -6.454   4.303  -2.717  0.00  0.00    +0.229 C 
ATOM     18  O   UNL     1      -6.137   4.435  -1.554  0.00  0.00    -0.274 OA
ATOM     19  H   UNL     1      -6.184   3.193  -4.378  0.00  0.00    +0.173 HD
BRANCH  17  20
ATOM     20  C   UNL     1      -7.433   5.261  -3.345  0.00  0.00    +0.101 C 
BRANCH  20  21
ATOM     21  C   UNL     1      -7.870   6.297  -2.307  0.00  0.00    -0.002 C 
ATOM     22  C   UNL     1      -8.647   5.600  -1.188  0.00  0.00    +0.004 C 
ATOM     23  C   UNL     1      -9.084   6.636  -0.150  0.00  0.00    +0.000 C 
ATOM     24  C   UNL     1      -9.979   7.681  -0.818  0.00  0.00    +0.000 C 
ATOM     25  C   UNL     1      -9.203   8.377  -1.937  0.00  0.00    +0.000 C 
ATOM     26  C   UNL     1      -8.766   7.342  -2.975  0.00  0.00    +0.004 C 
ENDBRANCH  20  21
ENDBRANCH  17  20
ENDBRANCH   3  16
TORSDOF 6
