REMARK  Name = ZINC20142758
REMARK  7 active torsions:
REMARK  status: ('A' for Active; 'I' for Inactive)
REMARK    1  A    between atoms: C_3  and  N_14
REMARK    2  A    between atoms: C_6  and  C_7
REMARK    3  A    between atoms: C_10  and  C_12
REMARK    4  A    between atoms: C_12  and  O_13
REMARK    5  A    between atoms: C_15  and  C_17
REMARK    6  A    between atoms: C_20  and  N_26
REMARK    7  A    between atoms: C_21  and  N_23
REMARK                            x       y       z     vdW  Elec       q    Type
REMARK                         _______ _______ _______ _____ _____    ______ ____
ROOT
ATOM      1  N   UNL     1       3.581   2.134  -0.022  0.00  0.00    -0.282 N 
ATOM      2  C   UNL     1       4.757   1.481   0.065  0.00  0.00    +0.248 C 
ATOM      3  O   UNL     1       4.779   0.265   0.058  0.00  0.00    -0.270 OA
ATOM      4  H   UNL     1       3.568   3.101  -0.095  0.00  0.00    +0.155 HD
ENDROOT
BRANCH   1   7
ATOM      5  C   UNL     1       1.096  -0.456   0.760  0.00  0.00    +0.013 A 
ATOM      6  C   UNL     1       2.278   0.252   0.743  0.00  0.00    +0.024 A 
ATOM      7  C   UNL     1       2.381   1.418  -0.007  0.00  0.00    +0.034 A 
ATOM      8  C   UNL     1       1.293   1.873  -0.743  0.00  0.00    +0.024 A 
ATOM      9  C   UNL     1       0.108   1.169  -0.730  0.00  0.00    +0.013 A 
ATOM     10  C   UNL     1       0.001  -0.002   0.023  0.00  0.00    +0.017 A 
BRANCH  10  11
ATOM     11  C   UNL     1      -1.268  -0.759   0.038  0.00  0.00    +0.135 A 
ATOM     12  C   UNL     1      -2.402  -0.430  -0.636  0.00  0.00    +0.050 A 
ATOM     13  C   UNL     1      -3.356  -1.423  -0.334  0.00  0.00    +0.047 A 
ATOM     14  C   UNL     1      -2.764  -2.299   0.500  0.00  0.00    +0.131 A 
ATOM     15  O   UNL     1      -1.500  -1.898   0.719  0.00  0.00    -0.457 OA
BRANCH  14  16
ATOM     16  C   UNL     1      -3.409  -3.528   1.087  0.00  0.00    +0.230 C 
BRANCH  16  17
ATOM     17  O   UNL     1      -3.195  -4.640   0.215  0.00  0.00    -0.387 OA
ATOM     18  H   UNL     1      -3.584  -5.467   0.530  0.00  0.00    +0.210 HD
ENDBRANCH  16  17
ENDBRANCH  14  16
ENDBRANCH  10  11
ENDBRANCH   1   7
BRANCH   2  19
ATOM     19  C   UNL     1       6.017   2.241   0.167  0.00  0.00    +0.039 A 
ATOM     20  C   UNL     1       5.993   3.639   0.180  0.00  0.00    +0.015 A 
ATOM     21  C   UNL     1       7.170   4.345   0.276  0.00  0.00    +0.026 A 
ATOM     22  C   UNL     1       8.384   3.669   0.360  0.00  0.00    +0.060 A 
ATOM     23  C   UNL     1       8.412   2.277   0.346  0.00  0.00    +0.148 A 
ATOM     24  C   UNL     1       7.237   1.565   0.257  0.00  0.00    +0.047 A 
BRANCH  22  25
ATOM     25  N   UNL     1       9.572   4.385   0.457  0.00  0.00    -0.328 N 
ATOM     26  C   UNL     1      10.390   4.845  -0.675  0.00  0.00    +0.105 C 
ATOM     27  C   UNL     1      11.619   5.569  -0.088  0.00  0.00    +0.020 C 
ATOM     28  C   UNL     1      11.714   4.985   1.347  0.00  0.00    +0.020 C 
ATOM     29  C   UNL     1      10.216   4.815   1.711  0.00  0.00    +0.105 C 
ENDBRANCH  22  25
BRANCH  23  30
ATOM     30  N   UNL     1       9.705   1.562   0.435  0.00  0.00    +0.058 N 
ATOM     31  O   UNL     1       9.729   0.353   0.424  0.00  0.00    -0.126 OA
ATOM     32  O   UNL     1      10.736   2.187   0.520  0.00  0.00    -0.126 OA
ENDBRANCH  23  30
ENDBRANCH   2  19
TORSDOF 7
