REMARK  Name = ZINC36586393
REMARK  14 active torsions:
REMARK  status: ('A' for Active; 'I' for Inactive)
REMARK    1  A    between atoms: C_1  and  C_2
REMARK    2  A    between atoms: C_5  and  S_8
REMARK    3  A    between atoms: S_8  and  C_11
REMARK    4  A    between atoms: C_11  and  N_12
REMARK    5  A    between atoms: C_13  and  C_15
REMARK    6  A    between atoms: C_15  and  C_17
REMARK    7  A    between atoms: C_15  and  N_24
REMARK    8  A    between atoms: C_22  and  O_23
REMARK    9  A    between atoms: N_24  and  C_34
REMARK   10  A    between atoms: C_25  and  C_27
REMARK   11  A    between atoms: C_30  and  O_33
REMARK   12  A    between atoms: C_34  and  C_35
REMARK   13  A    between atoms: C_34  and  C_36
REMARK   14  A    between atoms: C_34  and  C_37
REMARK                            x       y       z     vdW  Elec       q    Type
REMARK                         _______ _______ _______ _____ _____    ______ ____
ROOT
ATOM      1  C   UNL     1       1.789  -6.685   2.758  0.00  0.00    +0.196 C 
ENDROOT
BRANCH   1   2
ATOM      2  C   UNL     1       0.987  -5.412   2.838  0.00  0.00    +0.023 A 
ATOM      3  C   UNL     1      -0.394  -5.464   2.844  0.00  0.00    +0.009 A 
ATOM      4  C   UNL     1      -1.131  -4.296   2.916  0.00  0.00    +0.001 A 
ATOM      5  C   UNL     1      -0.488  -3.074   2.984  0.00  0.00    +0.004 A 
ATOM      6  C   UNL     1       0.892  -3.017   2.979  0.00  0.00    +0.046 A 
ATOM      7  C   UNL     1       1.634  -4.187   2.911  0.00  0.00    +0.122 A 
BRANCH   7   8
ATOM      8  O   UNL     1       2.992  -4.134   2.911  0.00  0.00    -0.506 OA
ATOM      9  H   UNL     1       3.380  -3.988   2.038  0.00  0.00    +0.292 HD
ENDBRANCH   7   8
ENDBRANCH   1   2
BRANCH   1  11
ATOM     10  N   UNL     1       0.944  -7.581   0.613  0.00  0.00    -0.294 N 
ATOM     11  C   UNL     1       1.030  -7.707   1.952  0.00  0.00    +0.239 C 
ATOM     12  O   UNL     1       0.497  -8.644   2.508  0.00  0.00    -0.273 OA
ATOM     13  H   UNL     1       1.317  -6.800   0.174  0.00  0.00    +0.150 HD
BRANCH  10  14
ATOM     14  C   UNL     1       0.287  -8.623  -0.181  0.00  0.00    +0.278 C 
BRANCH  14  15
ATOM     15  S   UNL     1      -1.446  -8.167  -0.461  0.00  0.00    +0.013 S 
ATOM     16  O   UNL     1      -2.045  -7.747   0.758  0.00  0.00    -0.168 OA
ATOM     17  O   UNL     1      -2.081  -9.137  -1.282  0.00  0.00    -0.168 OA
BRANCH  15  22
ATOM     18  C   UNL     1      -1.214  -3.187  -3.859  0.00  0.00    +0.044 C 
ATOM     19  C   UNL     1      -1.272  -4.431  -3.010  0.00  0.00    -0.050 A 
ATOM     20  C   UNL     1      -1.315  -5.675  -3.610  0.00  0.00    +0.005 A 
ATOM     21  C   UNL     1      -1.368  -6.816  -2.831  0.00  0.00    +0.027 A 
ATOM     22  C   UNL     1      -1.378  -6.713  -1.453  0.00  0.00    +0.090 A 
ATOM     23  C   UNL     1      -1.333  -5.468  -0.853  0.00  0.00    +0.027 A 
ATOM     24  C   UNL     1      -1.276  -4.327  -1.632  0.00  0.00    +0.005 A 
ENDBRANCH  15  22
ENDBRANCH  14  15
ENDBRANCH  10  14
ENDBRANCH   1  11
BRANCH   1  25
ATOM     25  N   UNL     1       2.020  -7.202   4.109  0.00  0.00    -0.277 N 
ATOM     26  C   UNL     1       2.333  -8.501   4.289  0.00  0.00    +0.248 C 
ATOM     27  O   UNL     1       2.435  -8.951   5.414  0.00  0.00    -0.270 OA
BRANCH  26  28
ATOM     28  C   UNL     1       2.553  -9.376   3.121  0.00  0.00    +0.037 A 
ATOM     29  C   UNL     1       2.914  -8.823   1.889  0.00  0.00    +0.016 A 
ATOM     30  C   UNL     1       3.119  -9.643   0.802  0.00  0.00    +0.046 A 
ATOM     31  C   UNL     1       2.966 -11.019   0.928  0.00  0.00    +0.117 A 
ATOM     32  C   UNL     1       2.607 -11.572   2.151  0.00  0.00    +0.046 A 
ATOM     33  C   UNL     1       2.406 -10.760   3.245  0.00  0.00    +0.016 A 
BRANCH  31  34
ATOM     34  O   UNL     1       3.167 -11.823  -0.146  0.00  0.00    -0.507 OA
ATOM     35  H   UNL     1       4.079 -12.131  -0.241  0.00  0.00    +0.292 HD
ENDBRANCH  31  34
ENDBRANCH  26  28
BRANCH  25  36
ATOM     36  C   UNL     1       1.911  -6.308   5.264  0.00  0.00    +0.030 C 
ATOM     37  C   UNL     1       0.677  -5.418   5.105  0.00  0.00    +0.031 C 
ATOM     38  C   UNL     1       1.778  -7.139   6.542  0.00  0.00    +0.031 C 
ATOM     39  C   UNL     1       3.163  -5.434   5.352  0.00  0.00    +0.031 C 
ENDBRANCH  25  36
ENDBRANCH   1  25
TORSDOF 10
