REMARK  Name = ZINC40060628
REMARK  12 active torsions:
REMARK  status: ('A' for Active; 'I' for Inactive)
REMARK    1  A    between atoms: C_1  and  C_2
REMARK    2  A    between atoms: C_8  and  C_37
REMARK    3  A    between atoms: C_12  and  C_13
REMARK    4  A    between atoms: C_13  and  O_15
REMARK    5  A    between atoms: O_15  and  C_16
REMARK    6  A    between atoms: C_16  and  C_17
REMARK    7  A    between atoms: N_19  and  C_20
REMARK    8  A    between atoms: C_22  and  C_35
REMARK    9  A    between atoms: C_23  and  C_34
REMARK   10  A    between atoms: C_24  and  C_33
REMARK   11  A    between atoms: N_26  and  C_27
REMARK   12  A    between atoms: C_27  and  C_28
REMARK                            x       y       z     vdW  Elec       q    Type
REMARK                         _______ _______ _______ _____ _____    ______ ____
ROOT
ATOM      1  C   UNL     1       0.082  -1.532   5.937  0.00  0.00    +0.252 C 
ATOM      2  O   UNL     1       0.094  -2.694   5.591  0.00  0.00    -0.272 OA
ATOM      3  N   UNL     1       0.090  -1.218   7.247  0.00  0.00    -0.292 N 
ATOM      4  H   UNL     1       0.081  -0.288   7.524  0.00  0.00    +0.151 HD
ENDROOT
BRANCH   3   5
ATOM      5  C   UNL     1       0.115  -2.281   8.255  0.00  0.00    +0.186 C 
ATOM      6  C   UNL     1      -0.834  -1.953   9.385  0.00  0.00    +0.065 C 
ATOM      7  C   UNL     1      -0.135  -1.496  10.422  0.00  0.00    -0.039 C 
ATOM      8  C   UNL     1       1.333  -1.484  10.063  0.00  0.00    +0.083 C 
ATOM      9  N   UNL     1       1.457  -2.368   8.877  0.00  0.00    -0.267 NA
ATOM     10  C   UNL     1       1.782  -0.064   9.717  0.00  0.00    +0.029 C 
ATOM     11  C   UNL     1      -0.716  -1.060  11.742  0.00  0.00    +0.042 C 
BRANCH   6  12
ATOM     12  C   UNL     1      -2.257  -2.108   9.346  0.00  0.00    +0.098 C 
ATOM     13  N   UNL     1      -3.386  -2.231   9.315  0.00  0.00    -0.191 NA
ENDBRANCH   6  12
BRANCH   9  14
ATOM     14  C   UNL     1       1.764  -3.747   9.277  0.00  0.00    +0.161 C 
BRANCH  14  15
ATOM     15  C   UNL     1       1.974  -4.592   8.047  0.00  0.00    +0.119 A 
ATOM     16  C   UNL     1       3.148  -4.796   7.424  0.00  0.00    +0.046 A 
ATOM     17  C   UNL     1       2.887  -5.646   6.324  0.00  0.00    +0.041 A 
ATOM     18  C   UNL     1       1.568  -5.910   6.341  0.00  0.00    +0.195 A 
ATOM     19  O   UNL     1       1.021  -5.274   7.390  0.00  0.00    -0.467 OA
ENDBRANCH  14  15
ENDBRANCH   9  14
ENDBRANCH   3   5
BRANCH   1  20
ATOM     20  C   UNL     1       0.057  -0.438   4.900  0.00  0.00    +0.328 C 
BRANCH  20  21
ATOM     21  O   UNL     1       0.051  -1.019   3.595  0.00  0.00    -0.451 OA
BRANCH  21  22
ATOM     22  C   UNL     1       0.030  -0.170   2.547  0.00  0.00    +0.347 C 
ATOM     23  O   UNL     1       0.015   1.031   2.737  0.00  0.00    -0.244 OA
BRANCH  22  35
ATOM     24  C   UNL     1      -0.018   1.503   0.010  0.00  0.00    +0.046 C 
ATOM     25  C   UNL     1       0.002  -0.004   0.002  0.00  0.00    -0.015 A 
ATOM     26  C   UNL     1       0.005  -0.697  -1.210  0.00  0.00    +0.076 A 
ATOM     27  C   UNL     1      -0.009  -0.166  -2.592  0.00  0.00    +0.260 A 
ATOM     28  O   UNL     1      -0.025   1.034  -2.800  0.00  0.00    -0.267 OA
ATOM     29  N   UNL     1      -0.002  -1.044  -3.614  0.00  0.00    -0.311 N 
ATOM     30  H   UNL     1      -0.010  -0.712  -4.525  0.00  0.00    +0.170 HD
ATOM     31  C   UNL     1       0.018  -2.382  -3.394  0.00  0.00    +0.108 A 
ATOM     32  N   UNL     1       0.030  -2.883  -2.189  0.00  0.00    -0.227 NA
ATOM     33  C   UNL     1       0.025  -2.108  -1.113  0.00  0.00    +0.116 A 
ATOM     34  S   UNL     1       0.037  -2.396   0.639  0.00  0.00    -0.062 S 
ATOM     35  C   UNL     1       0.023  -0.695   1.179  0.00  0.00    +0.102 A 
ATOM     36  C   UNL     1       0.024  -3.317  -4.576  0.00  0.00    +0.086 C 
ENDBRANCH  22  35
ENDBRANCH  21  22
ENDBRANCH  20  21
ENDBRANCH   1  20
TORSDOF 8
