REMARK  Name = ZINC25694763
REMARK  9 active torsions:
REMARK  status: ('A' for Active; 'I' for Inactive)
REMARK    1  A    between atoms: C_1  and  C_2
REMARK    2  A    between atoms: C_2  and  O_3
REMARK    3  A    between atoms: O_3  and  C_4
REMARK    4  A    between atoms: C_9  and  C_10
REMARK    5  A    between atoms: C_13  and  C_15
REMARK    6  A    between atoms: C_16  and  C_25
REMARK    7  A    between atoms: C_17  and  C_24
REMARK    8  A    between atoms: C_19  and  C_23
REMARK    9  A    between atoms: C_20  and  C_21
REMARK                            x       y       z     vdW  Elec       q    Type
REMARK                         _______ _______ _______ _____ _____    ______ ____
ROOT
ATOM      1  C   UNL     1      -1.962   2.444   3.538  0.00  0.00    +0.139 A 
ATOM      2  C   UNL     1      -3.113   2.213   4.226  0.00  0.00    +0.050 A 
ATOM      3  C   UNL     1      -3.997   3.261   3.900  0.00  0.00    +0.046 A 
ATOM      4  C   UNL     1      -3.353   4.066   3.033  0.00  0.00    +0.119 A 
ATOM      5  O   UNL     1      -2.124   3.569   2.816  0.00  0.00    -0.459 OA
ENDROOT
BRANCH   4   6
ATOM      6  C   UNL     1      -3.918   5.315   2.408  0.00  0.00    +0.139 C 
ATOM      7  C   UNL     1      -3.943   5.154   0.914  0.00  0.00    +0.061 C 
ATOM      8  C   UNL     1      -3.556   6.143   0.095  0.00  0.00    +0.019 C 
ATOM      9  N   UNL     1      -3.112   7.339   0.600  0.00  0.00    -0.320 N 
ATOM     10  C   UNL     1      -2.716   7.430   1.910  0.00  0.00    +0.019 C 
ATOM     11  C   UNL     1      -3.071   6.492   2.802  0.00  0.00    +0.061 C 
ATOM     12  C   UNL     1      -1.874   8.598   2.353  0.00  0.00    +0.061 C 
ATOM     13  C   UNL     1      -3.609   5.938  -1.397  0.00  0.00    +0.061 C 
ATOM     14  H   UNL     1      -3.073   8.228  -0.046  0.00  0.00    +0.152 HD
BRANCH  11  15
ATOM     15  C   UNL     1      -2.632   6.615   4.159  0.00  0.00    +0.097 C 
ATOM     16  N   UNL     1      -2.284   6.713   5.236  0.00  0.00    -0.191 NA
ENDBRANCH  11  15
BRANCH   7  17
ATOM     17  C   UNL     1      -4.391   3.915   0.352  0.00  0.00    +0.097 C 
ATOM     18  N   UNL     1      -4.747   2.933  -0.094  0.00  0.00    -0.191 NA
ENDBRANCH   7  17
ENDBRANCH   4   6
BRANCH   1  24
ATOM     19  C   UNL     1      -0.149   1.182   2.379  0.00  0.00    +0.131 A 
ATOM     20  C   UNL     1       0.992   0.398   2.422  0.00  0.00    +0.046 A 
ATOM     21  C   UNL     1       1.534   0.028   3.639  0.00  0.00    +0.004 A 
ATOM     22  C   UNL     1       0.941   0.436   4.821  0.00  0.00    +0.001 A 
ATOM     23  C   UNL     1      -0.197   1.217   4.795  0.00  0.00    +0.015 A 
ATOM     24  C   UNL     1      -0.748   1.602   3.573  0.00  0.00    +0.059 A 
BRANCH  19  25
ATOM     25  O   UNL     1      -0.682   1.547   1.184  0.00  0.00    -0.492 OA
BRANCH  25  27
ATOM     26  C   UNL     1      -0.753   1.593  -1.232  0.00  0.00    +0.048 C 
ATOM     27  C   UNL     1      -0.013   1.086   0.008  0.00  0.00    +0.226 C 
ENDBRANCH  25  27
ENDBRANCH  19  25
ENDBRANCH   1  24
TORSDOF 6
