REMARK  Name = ZINC13681992
REMARK  7 active torsions:
REMARK  status: ('A' for Active; 'I' for Inactive)
REMARK    1  A    between atoms: C_1  and  C_2
REMARK    2  A    between atoms: C_5  and  N_8
REMARK    3  A    between atoms: C_11  and  C_13
REMARK    4  A    between atoms: C_19  and  C_25
REMARK    5  A    between atoms: C_28  and  O_31
REMARK    6  A    between atoms: O_31  and  C_32
REMARK    7  A    between atoms: C_32  and  C_33
REMARK                            x       y       z     vdW  Elec       q    Type
REMARK                         _______ _______ _______ _____ _____    ______ ____
ROOT
ATOM      1  N   UNL     1       0.697  -4.016   0.067  0.00  0.00    -0.217 N 
ATOM      2  C   UNL     1       1.253  -4.929   0.891  0.00  0.00    +0.133 A 
ATOM      3  C   UNL     1       0.965  -6.170   0.392  0.00  0.00    +0.028 A 
ATOM      4  C   UNL     1       0.222  -6.002  -0.778  0.00  0.00    +0.099 A 
ATOM      5  N   UNL     1       0.054  -4.707  -0.973  0.00  0.00    -0.164 NA
ATOM      6  C   UNL     1       1.413  -7.438   1.074  0.00  0.00    +0.063 C 
ATOM      7  C   UNL     1       2.707  -7.141   1.839  0.00  0.00    +0.109 C 
ATOM      8  C   UNL     1       2.611  -5.839   2.584  0.00  0.00    +0.219 C 
ATOM      9  O   UNL     1       3.110  -5.755   3.687  0.00  0.00    -0.275 OA
ATOM     10  N   UNL     1       1.988  -4.761   2.064  0.00  0.00    -0.270 N 
ATOM     11  H   UNL     1       2.050  -3.893   2.493  0.00  0.00    +0.156 HD
ENDROOT
BRANCH   1  16
ATOM     12  C   UNL     1       0.899   1.620   0.705  0.00  0.00    +0.044 C 
ATOM     13  C   UNL     1       0.845   0.123   0.535  0.00  0.00    -0.050 A 
ATOM     14  C   UNL     1       0.869  -0.429  -0.732  0.00  0.00    +0.005 A 
ATOM     15  C   UNL     1       0.820  -1.800  -0.891  0.00  0.00    +0.028 A 
ATOM     16  C   UNL     1       0.747  -2.624   0.224  0.00  0.00    +0.067 A 
ATOM     17  C   UNL     1       0.723  -2.067   1.496  0.00  0.00    +0.028 A 
ATOM     18  C   UNL     1       0.778  -0.695   1.648  0.00  0.00    +0.005 A 
ENDBRANCH   1  16
BRANCH   4  19
ATOM     19  C   UNL     1      -0.294  -7.089  -1.647  0.00  0.00    +0.002 A 
ATOM     20  C   UNL     1      -0.918  -8.200  -1.082  0.00  0.00    +0.010 A 
ATOM     21  C   UNL     1      -1.395  -9.207  -1.895  0.00  0.00    +0.001 A 
ATOM     22  C   UNL     1      -1.256  -9.116  -3.268  0.00  0.00    +0.000 A 
ATOM     23  C   UNL     1      -0.637  -8.016  -3.835  0.00  0.00    +0.001 A 
ATOM     24  C   UNL     1      -0.161  -7.000  -3.031  0.00  0.00    +0.010 A 
ENDBRANCH   4  19
BRANCH   6  25
ATOM     25  C   UNL     1       1.666  -8.507   0.043  0.00  0.00    -0.039 A 
ATOM     26  C   UNL     1       2.491  -8.244  -1.036  0.00  0.00    +0.008 A 
ATOM     27  C   UNL     1       2.725  -9.223  -1.983  0.00  0.00    +0.046 A 
ATOM     28  C   UNL     1       2.130 -10.469  -1.851  0.00  0.00    +0.121 A 
ATOM     29  C   UNL     1       1.303 -10.730  -0.768  0.00  0.00    +0.046 A 
ATOM     30  C   UNL     1       1.078  -9.750   0.179  0.00  0.00    +0.008 A 
BRANCH  28  31
ATOM     31  O   UNL     1       2.358 -11.433  -2.782  0.00  0.00    -0.483 OA
BRANCH  31  32
ATOM     32  C   UNL     1       1.713 -12.693  -2.582  0.00  0.00    +0.324 C 
BRANCH  32  33
ATOM     33  C   UNL     1       2.080 -13.629  -3.705  0.00  0.00    +0.248 C 
ATOM     34  O   UNL     1       2.821 -13.254  -4.590  0.00  0.00    -0.272 OA
ATOM     35  N   UNL     1       1.585 -14.882  -3.727  0.00  0.00    -0.327 N 
ATOM     36  H   UNL     1       0.993 -15.182  -3.020  0.00  0.00    +0.145 HD
ATOM     37  H   UNL     1       1.821 -15.484  -4.450  0.00  0.00    +0.145 HD
ENDBRANCH  32  33
ENDBRANCH  31  32
ENDBRANCH  28  31
ENDBRANCH   6  25
TORSDOF 6
