REMARK  Name = ZINC12467531
REMARK  10 active torsions:
REMARK  status: ('A' for Active; 'I' for Inactive)
REMARK    1  A    between atoms: C_1  and  C_2
REMARK    2  A    between atoms: C_6  and  C_15
REMARK    3  A    between atoms: C_13  and  C_14
REMARK    4  A    between atoms: C_15  and  N_16
REMARK    5  A    between atoms: N_16  and  C_17
REMARK    6  A    between atoms: N_16  and  C_23
REMARK    7  A    between atoms: C_17  and  C_18
REMARK    8  A    between atoms: C_23  and  C_24
REMARK    9  A    between atoms: N_28  and  C_29
REMARK   10  A    between atoms: C_29  and  C_30
REMARK                            x       y       z     vdW  Elec       q    Type
REMARK                         _______ _______ _______ _____ _____    ______ ____
ROOT
ATOM      1  N   UNL     1       1.482  -5.311  -3.913  0.00  0.00    +0.390 N 
ATOM      2  H   UNL     1       1.910  -5.843  -3.170  0.00  0.00    -0.080 HD
ENDROOT
BRANCH   1   3
ATOM      3  C   UNL     1       0.090  -5.004  -3.558  0.00  0.00    -0.036 C 
BRANCH   3   9
ATOM      4  C   UNL     1      -2.328 -10.092   1.330  0.00  0.00    +0.044 C 
ATOM      5  C   UNL     1      -2.206  -9.580  -0.082  0.00  0.00    -0.047 A 
ATOM      6  C   UNL     1      -1.536  -8.414  -0.324  0.00  0.00    +0.013 A 
ATOM      7  C   UNL     1      -1.423  -7.938  -1.634  0.00  0.00    -0.001 A 
ATOM      8  C   UNL     1      -0.712  -6.693  -1.930  0.00  0.00    +0.017 A 
ATOM      9  C   UNL     1      -0.634  -6.282  -3.219  0.00  0.00    +0.001 A 
ATOM     10  C   UNL     1      -1.230  -7.045  -4.246  0.00  0.00    +0.251 A 
ATOM     11  O   UNL     1      -1.149  -6.656  -5.399  0.00  0.00    -0.268 OA
ATOM     12  N   UNL     1      -1.886  -8.189  -3.985  0.00  0.00    -0.322 N 
ATOM     13  H   UNL     1      -2.283  -8.690  -4.715  0.00  0.00    +0.169 HD
ATOM     14  C   UNL     1      -2.000  -8.662  -2.695  0.00  0.00    +0.049 A 
ATOM     15  C   UNL     1      -2.678  -9.846  -2.424  0.00  0.00    +0.030 A 
ATOM     16  C   UNL     1      -2.772 -10.299  -1.126  0.00  0.00    -0.046 A 
ATOM     17  C   UNL     1      -3.501 -11.585  -0.835  0.00  0.00    +0.044 C 
ENDBRANCH   3   9
ENDBRANCH   1   3
BRANCH   1  18
ATOM     18  C   UNL     1       2.225  -4.058  -4.108  0.00  0.00    -0.035 C 
BRANCH  18  19
ATOM     19  C   UNL     1       2.315  -3.319  -2.797  0.00  0.00    -0.027 A 
ATOM     20  C   UNL     1       3.211  -3.471  -1.791  0.00  0.00    +0.009 A 
ATOM     21  C   UNL     1       3.100  -2.673  -0.668  0.00  0.00    +0.008 A 
ATOM     22  C   UNL     1       2.099  -1.761  -0.607  0.00  0.00    +0.045 A 
ATOM     23  S   UNL     1       1.275  -2.010  -2.171  0.00  0.00    -0.103 S 
ENDBRANCH  18  19
ENDBRANCH   1  18
BRANCH   1  24
ATOM     24  C   UNL     1       1.510  -6.094  -5.155  0.00  0.00    +0.001 C 
BRANCH  24  25
ATOM     25  C   UNL     1       2.926  -6.513  -5.454  0.00  0.00    +0.135 A 
ATOM     26  N   UNL     1       3.808  -5.845  -6.158  0.00  0.00    -0.115 NA
ATOM     27  N   UNL     1       4.898  -6.531  -6.185  0.00  0.00    -0.023 NA
ATOM     28  N   UNL     1       4.735  -7.619  -5.516  0.00  0.00    -0.044 NA
ATOM     29  N   UNL     1       3.534  -7.642  -5.046  0.00  0.00    -0.229 N 
BRANCH  29  30
ATOM     30  C   UNL     1       2.941  -8.700  -4.224  0.00  0.00    +0.178 C 
BRANCH  30  31
ATOM     31  C   UNL     1       2.284  -9.743  -5.131  0.00  0.00    +0.140 C 
ATOM     32  C   UNL     1       1.553 -10.798  -4.273  0.00  0.00    +0.035 C 
ATOM     33  C   UNL     1       1.859 -12.114  -5.038  0.00  0.00    +0.031 C 
ATOM     34  C   UNL     1       3.286 -11.823  -5.566  0.00  0.00    +0.160 C 
ATOM     35  O   UNL     1       3.287 -10.423  -5.895  0.00  0.00    -0.375 OA
ENDBRANCH  30  31
ENDBRANCH  29  30
ENDBRANCH  24  25
ENDBRANCH   1  24
TORSDOF 8
