REMARK  Name = ZINC21736523
REMARK  12 active torsions:
REMARK  status: ('A' for Active; 'I' for Inactive)
REMARK    1  A    between atoms: C_1  and  C_2
REMARK    2  A    between atoms: C_5  and  C_30
REMARK    3  A    between atoms: C_6  and  O_8
REMARK    4  A    between atoms: O_8  and  C_9
REMARK    5  A    between atoms: C_9  and  C_10
REMARK    6  A    between atoms: C_10  and  O_12
REMARK    7  A    between atoms: O_12  and  C_13
REMARK    8  A    between atoms: C_13  and  C_14
REMARK    9  A    between atoms: N_16  and  N_17
REMARK   10  A    between atoms: C_23  and  C_26
REMARK   11  A    between atoms: C_30  and  C_31
REMARK   12  A    between atoms: C_30  and  C_32
REMARK                            x       y       z     vdW  Elec       q    Type
REMARK                         _______ _______ _______ _____ _____    ______ ____
ROOT
ATOM      1  C   UNL     1       0.002  -0.004   0.002  0.00  0.00    +0.267 C 
ATOM      2  O   UNL     1       1.060  -0.596  -0.011  0.00  0.00    -0.271 OA
ATOM      3  N   UNL     1      -1.156  -0.694   0.009  0.00  0.00    -0.221 N 
ATOM      4  H   UNL     1      -2.116  -0.157   0.021  0.00  0.00    +0.174 HD
ENDROOT
BRANCH   3   5
ATOM      5  N   UNL     1      -1.137  -2.095   0.002  0.00  0.00    -0.137 N 
ATOM      6  C   UNL     1      -1.405  -2.862   1.078  0.00  0.00    +0.263 C 
ATOM      7  O   UNL     1      -1.697  -2.487   2.193  0.00  0.00    -0.271 OA
ATOM      8  C   UNL     1      -1.265  -4.290   0.601  0.00  0.00    +0.114 C 
ATOM      9  C   UNL     1      -2.590  -5.031   0.746  0.00  0.00    +0.035 C 
ATOM     10  C   UNL     1      -2.435  -6.464   0.232  0.00  0.00    +0.006 C 
ATOM     11  C   UNL     1      -1.342  -7.177   1.032  0.00  0.00    -0.014 C 
ATOM     12  C   UNL     1      -0.015  -6.436   0.856  0.00  0.00    +0.006 C 
ATOM     13  C   UNL     1      -0.160  -5.002   1.372  0.00  0.00    +0.035 C 
ATOM     14  C   UNL     1      -1.195  -8.613   0.526  0.00  0.00    +0.007 C 
ATOM     15  N   UNL     1      -0.902  -4.158  -0.816  0.00  0.00    -0.284 N 
ATOM     16  C   UNL     1      -0.856  -2.837  -1.076  0.00  0.00    +0.326 C 
ATOM     17  O   UNL     1      -0.587  -2.372  -2.166  0.00  0.00    -0.251 OA
ATOM     18  H   UNL     1      -0.730  -5.057  -1.426  0.00  0.00    +0.151 HD
ENDBRANCH   3   5
BRANCH   1  19
ATOM     19  C   UNL     1      -0.018   1.503   0.010  0.00  0.00    +0.329 C 
BRANCH  19  20
ATOM     20  O   UNL     1       1.344   2.005   0.000  0.00  0.00    -0.453 OA
BRANCH  20  21
ATOM     21  C   UNL     1       1.502   3.338   0.006  0.00  0.00    +0.346 C 
ATOM     22  O   UNL     1       0.534   4.061   0.019  0.00  0.00    -0.247 OA
BRANCH  21  23
ATOM     23  C   UNL     1       2.886   3.933  -0.004  0.00  0.00    +0.349 C 
BRANCH  23  24
ATOM     24  O   UNL     1       2.792   5.359   0.004  0.00  0.00    -0.481 OA
BRANCH  24  30
ATOM     25  C   UNL     1       7.673   5.354  -0.042  0.00  0.00    +0.044 C 
ATOM     26  C   UNL     1       6.356   6.088  -0.026  0.00  0.00    -0.047 A 
ATOM     27  C   UNL     1       6.336   7.470  -0.018  0.00  0.00    +0.004 A 
ATOM     28  C   UNL     1       5.131   8.146  -0.003  0.00  0.00    +0.008 A 
ATOM     29  C   UNL     1       3.942   7.441   0.004  0.00  0.00    -0.003 A 
ATOM     30  C   UNL     1       3.960   6.054  -0.003  0.00  0.00    +0.125 A 
ATOM     31  C   UNL     1       5.171   5.378  -0.013  0.00  0.00    +0.049 A 
BRANCH  29  32
ATOM     32  C   UNL     1       2.628   8.179   0.020  0.00  0.00    +0.016 C 
ATOM     33  C   UNL     1       2.548   9.051   1.275  0.00  0.00    +0.012 C 
ATOM     34  C   UNL     1       2.525   9.064  -1.223  0.00  0.00    +0.012 C 
ENDBRANCH  29  32
ENDBRANCH  24  30
ENDBRANCH  23  24
ENDBRANCH  21  23
ENDBRANCH  20  21
ENDBRANCH  19  20
ENDBRANCH   1  19
TORSDOF 8
