REMARK  Name = ZINC33937231
REMARK  13 active torsions:
REMARK  status: ('A' for Active; 'I' for Inactive)
REMARK    1  A    between atoms: C_1  and  C_2
REMARK    2  A    between atoms: C_2  and  C_3
REMARK    3  A    between atoms: C_2  and  C_4
REMARK    4  A    between atoms: C_4  and  C_6
REMARK    5  A    between atoms: C_4  and  N_18
REMARK    6  A    between atoms: N_10  and  C_11
REMARK    7  A    between atoms: C_11  and  C_12
REMARK    8  A    between atoms: N_18  and  C_19
REMARK    9  A    between atoms: N_18  and  C_25
REMARK   10  A    between atoms: C_19  and  C_20
REMARK   11  A    between atoms: C_25  and  C_26
REMARK   12  A    between atoms: C_30  and  O_38
REMARK   13  A    between atoms: O_38  and  C_39
REMARK                            x       y       z     vdW  Elec       q    Type
REMARK                         _______ _______ _______ _____ _____    ______ ____
ROOT
ATOM      1  N   UNL     1      -2.095  -0.054  -1.413  0.00  0.00    +0.394 N 
ATOM      2  H   UNL     1      -1.589  -0.181  -2.276  0.00  0.00    -0.080 HD
ENDROOT
BRANCH   1   3
ATOM      3  C   UNL     1      -1.305  -0.595  -0.298  0.00  0.00    +0.006 C 
BRANCH   3   4
ATOM      4  C   UNL     1       0.159  -0.558  -0.655  0.00  0.00    +0.138 A 
ATOM      5  N   UNL     1       0.822   0.467  -1.133  0.00  0.00    -0.115 NA
ATOM      6  N   UNL     1       2.046   0.102  -1.307  0.00  0.00    -0.023 NA
ATOM      7  N   UNL     1       2.180  -1.128  -0.953  0.00  0.00    -0.044 NA
ATOM      8  N   UNL     1       1.040  -1.569  -0.540  0.00  0.00    -0.228 N 
BRANCH   8   9
ATOM      9  C   UNL     1       0.756  -2.917  -0.042  0.00  0.00    +0.178 C 
BRANCH   9  10
ATOM     10  C   UNL     1       0.342  -3.815  -1.209  0.00  0.00    +0.140 C 
ATOM     11  C   UNL     1       0.125  -5.269  -0.719  0.00  0.00    +0.035 C 
ATOM     12  C   UNL     1      -0.856  -5.801  -1.798  0.00  0.00    +0.031 C 
ATOM     13  C   UNL     1      -1.693  -4.547  -2.127  0.00  0.00    +0.160 C 
ATOM     14  O   UNL     1      -0.930  -3.400  -1.731  0.00  0.00    -0.375 OA
ENDBRANCH   9  10
ENDBRANCH   8   9
ENDBRANCH   3   4
BRANCH   3  16
ATOM     15  C   UNL     1      -2.995   0.080   1.414  0.00  0.00    +0.006 C 
ATOM     16  C   UNL     1      -1.546   0.250   0.955  0.00  0.00    -0.024 C 
ATOM     17  C   UNL     1      -0.601  -0.207   2.067  0.00  0.00    +0.006 C 
ENDBRANCH   3  16
ENDBRANCH   1   3
BRANCH   1  18
ATOM     18  C   UNL     1      -2.335   1.379  -1.192  0.00  0.00    -0.002 C 
BRANCH  18  19
ATOM     19  C   UNL     1      -1.035   2.131  -1.314  0.00  0.00    +0.089 A 
ATOM     20  C   UNL     1      -0.457   2.522  -2.464  0.00  0.00    +0.042 A 
ATOM     21  C   UNL     1       0.739   3.190  -2.115  0.00  0.00    +0.041 A 
ATOM     22  C   UNL     1       0.820   3.168  -0.772  0.00  0.00    +0.195 A 
ATOM     23  O   UNL     1      -0.260   2.530  -0.292  0.00  0.00    -0.470 OA
ENDBRANCH  18  19
ENDBRANCH   1  18
BRANCH   1  24
ATOM     24  C   UNL     1      -3.380  -0.760  -1.490  0.00  0.00    -0.036 C 
BRANCH  24  25
ATOM     25  C   UNL     1      -4.129  -0.308  -2.717  0.00  0.00    +0.001 A 
ATOM     26  C   UNL     1      -4.040  -1.024  -3.865  0.00  0.00    +0.017 A 
ATOM     27  C   UNL     1      -4.779  -0.559  -5.040  0.00  0.00    +0.002 A 
ATOM     28  C   UNL     1      -4.726  -1.258  -6.250  0.00  0.00    +0.055 A 
ATOM     29  C   UNL     1      -5.435  -0.791  -7.338  0.00  0.00    +0.121 A 
ATOM     30  C   UNL     1      -6.201   0.368  -7.234  0.00  0.00    +0.047 A 
ATOM     31  C   UNL     1      -6.262   1.065  -6.047  0.00  0.00    +0.030 A 
ATOM     32  C   UNL     1      -5.554   0.612  -4.939  0.00  0.00    +0.049 A 
ATOM     33  N   UNL     1      -5.603   1.295  -3.741  0.00  0.00    -0.322 N 
ATOM     34  H   UNL     1      -6.137   2.102  -3.672  0.00  0.00    +0.169 HD
ATOM     35  C   UNL     1      -4.925   0.856  -2.666  0.00  0.00    +0.251 A 
ATOM     36  O   UNL     1      -4.995   1.483  -1.623  0.00  0.00    -0.268 OA
BRANCH  29  37
ATOM     37  O   UNL     1      -5.387  -1.466  -8.518  0.00  0.00    -0.495 OA
ATOM     38  C   UNL     1      -6.144  -0.929  -9.604  0.00  0.00    +0.277 C 
ENDBRANCH  29  37
ENDBRANCH  24  25
ENDBRANCH   1  24
TORSDOF 10
