REMARK  Name = ZINC21042376
REMARK  9 active torsions:
REMARK  status: ('A' for Active; 'I' for Inactive)
REMARK    1  A    between atoms: C_1  and  C_2
REMARK    2  A    between atoms: C_9  and  N_15
REMARK    3  A    between atoms: C_10  and  C_11
REMARK    4  A    between atoms: C_11  and  O_13
REMARK    5  A    between atoms: O_13  and  C_14
REMARK    6  A    between atoms: C_16  and  C_18
REMARK    7  A    between atoms: C_18  and  O_19
REMARK    8  A    between atoms: O_19  and  C_20
REMARK    9  A    between atoms: C_23  and  C_26
REMARK                            x       y       z     vdW  Elec       q    Type
REMARK                         _______ _______ _______ _____ _____    ______ ____
ROOT
ATOM      1  N   UNL     1      -1.221  -2.349   2.488  0.00  0.00    -0.277 N 
ATOM      2  C   UNL     1      -1.240  -3.214   3.521  0.00  0.00    +0.255 C 
ATOM      3  O   UNL     1      -1.289  -4.407   3.312  0.00  0.00    -0.272 OA
ATOM      4  H   UNL     1      -1.176  -1.266   2.678  0.00  0.00    +0.155 HD
ENDROOT
BRANCH   1  12
ATOM      5  C   UNL     1      -1.520  -5.425  -4.698  0.00  0.00    +0.008 C 
ATOM      6  C   UNL     1      -1.755  -4.485  -3.514  0.00  0.00    -0.009 C 
ATOM      7  C   UNL     1      -0.871  -3.243  -3.657  0.00  0.00    +0.008 C 
ATOM      8  C   UNL     1      -1.276  -2.193  -2.622  0.00  0.00    +0.037 C 
ATOM      9  C   UNL     1      -1.289  -2.843  -1.244  0.00  0.00    -0.021 A 
ATOM     10  C   UNL     1      -1.340  -4.185  -1.108  0.00  0.00    -0.004 A 
ATOM     11  S   UNL     1      -1.334  -4.465   0.640  0.00  0.00    -0.077 S 
ATOM     12  C   UNL     1      -1.259  -2.822   1.186  0.00  0.00    +0.086 A 
ATOM     13  C   UNL     1      -1.248  -2.096   0.003  0.00  0.00    +0.091 A 
ATOM     14  C   UNL     1      -1.391  -5.203  -2.206  0.00  0.00    +0.046 C 
BRANCH  13  15
ATOM     15  C   UNL     1      -1.191  -0.633   0.010  0.00  0.00    +0.342 C 
ATOM     16  O   UNL     1      -2.220   0.016   0.023  0.00  0.00    -0.245 OA
BRANCH  15  17
ATOM     17  O   UNL     1       0.002  -0.004   0.002  0.00  0.00    -0.464 OA
ATOM     18  C   UNL     1      -0.018   1.448   0.010  0.00  0.00    +0.280 C 
ENDBRANCH  15  17
ENDBRANCH  13  15
ENDBRANCH   1  12
BRANCH   2  19
ATOM     19  C   UNL     1      -1.198  -2.699   4.937  0.00  0.00    +0.324 C 
BRANCH  19  20
ATOM     20  O   UNL     1      -1.228  -3.801   5.846  0.00  0.00    -0.483 OA
BRANCH  20  21
ATOM     21  C   UNL     1      -1.197  -3.507   7.172  0.00  0.00    +0.121 A 
ATOM     22  C   UNL     1      -1.133  -2.184   7.587  0.00  0.00    +0.046 A 
ATOM     23  C   UNL     1      -1.107  -1.882   8.931  0.00  0.00    +0.017 A 
ATOM     24  C   UNL     1      -1.133  -2.909   9.876  0.00  0.00    +0.039 A 
ATOM     25  C   UNL     1      -1.192  -4.239   9.455  0.00  0.00    +0.017 A 
ATOM     26  C   UNL     1      -1.223  -4.532   8.109  0.00  0.00    +0.046 A 
BRANCH  24  27
ATOM     27  C   UNL     1      -1.101  -2.590  11.319  0.00  0.00    +0.248 A 
ATOM     28  N   UNL     1      -1.126  -3.453  12.308  0.00  0.00    -0.108 NA
ATOM     29  N   UNL     1      -1.081  -2.817  13.426  0.00  0.00    -0.116 NA
ATOM     30  C   UNL     1      -1.033  -1.535  13.197  0.00  0.00    +0.332 A 
ATOM     31  O   UNL     1      -1.044  -1.359  11.864  0.00  0.00    -0.423 OA
ENDBRANCH  24  27
ENDBRANCH  20  21
ENDBRANCH  19  20
ENDBRANCH   2  19
TORSDOF 7
