REMARK  Name = ZINC65727352
REMARK  6 active torsions:
REMARK  status: ('A' for Active; 'I' for Inactive)
REMARK    1  A    between atoms: C_4  and  C_7
REMARK    2  A    between atoms: C_7  and  C_8
REMARK    3  A    between atoms: C_8  and  C_9
REMARK    4  A    between atoms: C_8  and  N_12
REMARK    5  A    between atoms: C_13  and  C_15
REMARK    6  A    between atoms: C_19  and  N_21
REMARK                            x       y       z     vdW  Elec       q    Type
REMARK                         _______ _______ _______ _____ _____    ______ ____
ROOT
ATOM      1  N   UNL     1       4.451   0.315   2.057  0.00  0.00    -0.300 N 
ATOM      2  C   UNL     1       4.378   0.412   3.400  0.00  0.00    +0.245 C 
ATOM      3  O   UNL     1       4.080  -0.561   4.064  0.00  0.00    -0.270 OA
ATOM      4  H   UNL     1       4.689   1.092   1.527  0.00  0.00    +0.150 HD
ENDROOT
BRANCH   2   5
ATOM      5  C   UNL     1       4.660   1.702   4.064  0.00  0.00    +0.039 A 
ATOM      6  C   UNL     1       4.997   2.823   3.303  0.00  0.00    +0.014 A 
ATOM      7  C   UNL     1       5.259   4.024   3.929  0.00  0.00    +0.018 A 
ATOM      8  C   UNL     1       5.188   4.119   5.309  0.00  0.00    +0.048 A 
ATOM      9  C   UNL     1       4.855   3.010   6.069  0.00  0.00    +0.141 A 
ATOM     10  C   UNL     1       4.585   1.805   5.454  0.00  0.00    +0.047 A 
ATOM     11 BR   UNL     1       5.550   5.769   6.159  0.00  0.00    -0.048 Br
BRANCH   9  12
ATOM     12  N   UNL     1       4.783   3.120   7.543  0.00  0.00    +0.058 N 
ATOM     13  O   UNL     1       4.492   2.153   8.207  0.00  0.00    -0.126 OA
ATOM     14  O   UNL     1       5.015   4.177   8.082  0.00  0.00    -0.126 OA
ENDBRANCH   9  12
ENDBRANCH   2   5
BRANCH   1  15
ATOM     15  C   UNL     1       4.171  -0.963   1.399  0.00  0.00    +0.163 C 
BRANCH  15  16
ATOM     16  C   UNL     1       5.422  -1.804   1.383  0.00  0.00    +0.231 C 
ATOM     17  O   UNL     1       6.446  -1.378   1.874  0.00  0.00    -0.274 OA
ATOM     18  N   UNL     1       5.402  -3.031   0.824  0.00  0.00    -0.328 N 
ATOM     19  H   UNL     1       4.583  -3.372   0.432  0.00  0.00    +0.145 HD
ATOM     20  H   UNL     1       6.207  -3.572   0.814  0.00  0.00    +0.145 HD
ENDBRANCH  15  16
BRANCH  15  21
ATOM     21  C   UNL     1       3.711  -0.707  -0.038  0.00  0.00    +0.067 C 
BRANCH  21  25
ATOM     22  C   UNL     1      -0.017   1.378   0.010  0.00  0.00    +0.000 A 
ATOM     23  C   UNL     1       1.171   2.086   0.002  0.00  0.00    +0.000 A 
ATOM     24  C   UNL     1       2.377   1.411  -0.013  0.00  0.00    +0.004 A 
ATOM     25  C   UNL     1       2.396   0.029  -0.020  0.00  0.00    -0.045 A 
ATOM     26  C   UNL     1       1.208  -0.679  -0.012  0.00  0.00    +0.004 A 
ATOM     27  C   UNL     1       0.002  -0.004   0.002  0.00  0.00    +0.000 A 
ENDBRANCH  21  25
ENDBRANCH  15  21
ENDBRANCH   1  15
TORSDOF 6
