REMARK  Name = ZINC66177772
REMARK  4 active torsions:
REMARK  status: ('A' for Active; 'I' for Inactive)
REMARK    1  A    between atoms: C_1  and  C_2
REMARK    2  A    between atoms: C_11  and  C_14
REMARK    3  A    between atoms: C_14  and  N_15
REMARK    4  A    between atoms: C_21  and  N_24
REMARK                            x       y       z     vdW  Elec       q    Type
REMARK                         _______ _______ _______ _____ _____    ______ ____
ROOT
ATOM      1  C   UNL     1      -2.510  -6.333   4.759  0.00  0.00    +0.142 C 
ENDROOT
BRANCH   1  12
ATOM      2  C   UNL     1       1.516  -1.759  -2.543  0.00  0.00    +0.007 C 
ATOM      3  C   UNL     1       0.744  -1.592  -1.232  0.00  0.00    -0.011 C 
ATOM      4  C   UNL     1       1.541  -2.221  -0.087  0.00  0.00    +0.022 C 
ATOM      5  C   UNL     1       0.782  -2.021   1.228  0.00  0.00    +0.107 C 
ATOM      6  N   UNL     1      -0.578  -2.556   1.075  0.00  0.00    -0.317 N 
ATOM      7  C   UNL     1      -1.400  -2.086  -0.049  0.00  0.00    +0.107 C 
ATOM      8  C   UNL     1      -0.616  -2.284  -1.350  0.00  0.00    +0.022 C 
ATOM      9  C   UNL     1      -1.078  -3.489   1.976  0.00  0.00    +0.099 A 
ATOM     10  C   UNL     1      -2.408  -3.889   1.888  0.00  0.00    +0.042 A 
ATOM     11  C   UNL     1      -2.892  -4.819   2.790  0.00  0.00    +0.010 A 
ATOM     12  C   UNL     1      -2.026  -5.319   3.755  0.00  0.00    -0.014 A 
ATOM     13  C   UNL     1      -0.719  -4.878   3.784  0.00  0.00    +0.089 A 
ATOM     14  N   UNL     1      -0.283  -3.994   2.906  0.00  0.00    -0.349 N 
ATOM     15  H   UNL     1       0.642  -3.704   2.947  0.00  0.00    +0.167 HD
ENDBRANCH   1  12
BRANCH   1  16
ATOM     16  N   UNL     1      -2.304  -7.683   4.228  0.00  0.00    -0.295 N 
ATOM     17  C   UNL     1      -2.664  -8.757   4.959  0.00  0.00    +0.302 C 
ATOM     18  O   UNL     1      -3.161  -8.605   6.058  0.00  0.00    -0.253 OA
ATOM     19  N   UNL     1      -2.474  -9.998   4.471  0.00  0.00    -0.287 N 
ATOM     20  C   UNL     1      -1.881 -10.325   3.166  0.00  0.00    +0.108 C 
ATOM     21  C   UNL     1      -1.891 -11.862   3.029  0.00  0.00    +0.005 C 
ATOM     22  C   UNL     1      -3.005 -12.292   4.020  0.00  0.00    -0.049 C 
ATOM     23  C   UNL     1      -2.821 -11.255   5.160  0.00  0.00    +0.094 C 
ATOM     24  H   UNL     1      -1.907  -7.804   3.351  0.00  0.00    +0.151 HD
BRANCH  22  25
ATOM     25  N   UNL     1      -2.775 -13.657   4.511  0.00  0.00    +0.383 N 
ATOM     26  C   UNL     1      -3.895 -14.081   5.389  0.00  0.00    -0.078 C 
ATOM     27  C   UNL     1      -3.810 -15.628   5.349  0.00  0.00    -0.020 C 
ATOM     28  C   UNL     1      -3.410 -15.915   3.884  0.00  0.00    -0.020 C 
ATOM     29  C   UNL     1      -2.765 -14.610   3.380  0.00  0.00    -0.078 C 
ATOM     30  H   UNL     1      -1.901 -13.704   5.013  0.00  0.00    -0.081 HD
ENDBRANCH  22  25
ENDBRANCH   1  16
TORSDOF 3
