REMARK  Name = ZINC58343763
REMARK  7 active torsions:
REMARK  status: ('A' for Active; 'I' for Inactive)
REMARK    1  A    between atoms: C_1  and  C_2
REMARK    2  A    between atoms: C_2  and  N_3
REMARK    3  A    between atoms: C_7  and  C_9
REMARK    4  A    between atoms: C_9  and  N_10
REMARK    5  A    between atoms: C_11  and  C_13
REMARK    6  A    between atoms: N_21  and  C_22
REMARK    7  A    between atoms: C_26  and  C_28
REMARK                            x       y       z     vdW  Elec       q    Type
REMARK                         _______ _______ _______ _____ _____    ______ ____
ROOT
ATOM      1  C   UNL     1      -0.900  -0.728   5.017  0.00  0.00    +0.078 C 
ATOM      2  C   UNL     1      -0.525   0.732   5.283  0.00  0.00    +0.032 C 
ATOM      3  C   UNL     1      -0.182   0.904   6.766  0.00  0.00    +0.110 C 
ATOM      4  N   UNL     1      -1.309   0.414   7.572  0.00  0.00    -0.285 N 
ATOM      5  C   UNL     1      -1.810  -0.946   7.333  0.00  0.00    +0.110 C 
ATOM      6  C   UNL     1      -2.134  -1.098   5.843  0.00  0.00    +0.032 C 
ATOM      7  C   UNL     1      -1.873   1.198   8.512  0.00  0.00    +0.306 C 
ATOM      8  O   UNL     1      -1.398   2.290   8.758  0.00  0.00    -0.252 OA
ATOM      9  N   UNL     1      -2.963   0.771   9.180  0.00  0.00    -0.269 N 
ATOM     10  H   UNL     1      -3.281  -0.137   9.060  0.00  0.00    +0.156 HD
ENDROOT
BRANCH   9  11
ATOM     11  C   UNL     1      -3.636   1.639  10.048  0.00  0.00    +0.035 A 
ATOM     12  C   UNL     1      -3.702   2.997   9.759  0.00  0.00    +0.023 A 
ATOM     13  C   UNL     1      -4.366   3.858  10.613  0.00  0.00    +0.003 A 
ATOM     14  C   UNL     1      -4.968   3.376  11.757  0.00  0.00    +0.013 A 
ATOM     15  C   UNL     1      -4.908   2.013  12.055  0.00  0.00    +0.040 A 
ATOM     16  C   UNL     1      -4.243   1.144  11.191  0.00  0.00    +0.036 A 
BRANCH  15  17
ATOM     17  C   UNL     1      -5.552   1.493  13.280  0.00  0.00    +0.248 A 
ATOM     18  N   UNL     1      -5.567   0.244  13.681  0.00  0.00    -0.108 NA
ATOM     19  N   UNL     1      -6.218   0.161  14.788  0.00  0.00    -0.116 NA
ATOM     20  C   UNL     1      -6.642   1.345  15.134  0.00  0.00    +0.332 A 
ATOM     21  O   UNL     1      -6.228   2.215  14.196  0.00  0.00    -0.423 OA
ENDBRANCH  15  17
ENDBRANCH   9  11
BRANCH   1  23
ATOM     22  N   UNL     1      -0.260  -0.641   2.629  0.00  0.00    -0.317 N 
ATOM     23  C   UNL     1      -1.205  -0.909   3.552  0.00  0.00    +0.216 C 
ATOM     24  O   UNL     1      -2.300  -1.295   3.204  0.00  0.00    -0.276 OA
ATOM     25  H   UNL     1       0.616  -0.332   2.908  0.00  0.00    +0.149 HD
BRANCH  22  26
ATOM     26  C   UNL     1      -0.556  -0.817   1.205  0.00  0.00    +0.089 C 
BRANCH  26  31
ATOM     27  N   UNL     1       1.118   0.919   0.718  0.00  0.00    +0.382 N 
ATOM     28  C   UNL     1       1.029   1.758  -0.496  0.00  0.00    -0.078 C 
ATOM     29  C   UNL     1       1.122   0.757  -1.676  0.00  0.00    -0.020 C 
ATOM     30  C   UNL     1       0.324  -0.453  -1.123  0.00  0.00    -0.016 C 
ATOM     31  C   UNL     1       0.677  -0.447   0.379  0.00  0.00    -0.051 C 
ATOM     32  H   UNL     1       0.520   1.300   1.436  0.00  0.00    -0.081 HD
BRANCH  27  34
ATOM     33  C   UNL     1       2.918   2.284   1.663  0.00  0.00    -0.017 C 
ATOM     34  C   UNL     1       2.506   0.886   1.196  0.00  0.00    -0.082 C 
ENDBRANCH  27  34
ENDBRANCH  26  31
ENDBRANCH  22  26
ENDBRANCH   1  23
TORSDOF 6
