REMARK  Name = ZINC39795550
REMARK  6 active torsions:
REMARK  status: ('A' for Active; 'I' for Inactive)
REMARK    1  A    between atoms: C_1  and  C_2
REMARK    2  A    between atoms: C_10  and  S_14
REMARK    3  A    between atoms: S_14  and  C_15
REMARK    4  A    between atoms: C_15  and  C_16
REMARK    5  A    between atoms: N_18  and  C_19
REMARK    6  A    between atoms: C_20  and  C_27
REMARK                            x       y       z     vdW  Elec       q    Type
REMARK                         _______ _______ _______ _____ _____    ______ ____
ROOT
ATOM      1  C   UNL     1      -4.724  -3.663   6.926  0.00  0.00    +0.173 C 
ENDROOT
BRANCH   1   2
ATOM      2  C   UNL     1      -5.252  -4.467   8.086  0.00  0.00    +0.228 C 
ATOM      3  O   UNL     1      -4.497  -4.838   8.959  0.00  0.00    -0.275 OA
ATOM      4  N   UNL     1      -6.563  -4.773   8.153  0.00  0.00    -0.279 N 
ATOM      5  H   UNL     1      -7.167  -4.476   7.455  0.00  0.00    +0.155 HD
BRANCH   4   6
ATOM      6  C   UNL     1      -7.048  -5.512   9.221  0.00  0.00    +0.084 A 
ATOM      7  C   UNL     1      -8.349  -5.921   9.451  0.00  0.00    +0.068 A 
ATOM      8  C   UNL     1      -8.603  -6.699  10.662  0.00  0.00    -0.023 A 
ATOM      9  C   UNL     1      -7.508  -6.918  11.412  0.00  0.00    -0.004 A 
ATOM     10  S   UNL     1      -6.191  -6.123  10.527  0.00  0.00    -0.077 S 
ATOM     11  C   UNL     1      -7.825  -7.718  12.647  0.00  0.00    +0.043 C 
ATOM     12  C   UNL     1      -9.359  -7.614  12.796  0.00  0.00    +0.010 C 
ATOM     13  C   UNL     1      -9.801  -7.359  11.341  0.00  0.00    +0.037 C 
BRANCH   7  14
ATOM     14  C   UNL     1      -9.430  -5.587   8.518  0.00  0.00    +0.244 C 
ATOM     15  O   UNL     1      -9.693  -6.338   7.598  0.00  0.00    -0.270 OA
ATOM     16  N   UNL     1     -10.131  -4.447   8.680  0.00  0.00    -0.325 N 
ATOM     17  H   UNL     1      -9.921  -3.848   9.413  0.00  0.00    +0.145 HD
ATOM     18  H   UNL     1     -10.846  -4.226   8.062  0.00  0.00    +0.145 HD
ENDBRANCH   7  14
ENDBRANCH   4   6
ENDBRANCH   1   2
BRANCH   1  19
ATOM     19  S   UNL     1      -2.938  -3.418   7.122  0.00  0.00    -0.079 S 
BRANCH  19  28
ATOM     20  C   UNL     1      -0.019   1.526   0.010  0.00  0.00    +0.007 C 
ATOM     21  C   UNL     1       0.002  -0.004   0.002  0.00  0.00    -0.012 C 
ATOM     22  C   UNL     1      -1.433  -0.525  -0.005  0.00  0.00    +0.008 C 
ATOM     23  C   UNL     1      -2.203   0.012   1.209  0.00  0.00    +0.033 C 
ATOM     24  C   UNL     1      -1.371  -0.335   2.442  0.00  0.00    -0.042 C 
ATOM     25  C   UNL     1      -1.821  -1.009   3.497  0.00  0.00    +0.071 C 
ATOM     26  C   UNL     1      -0.840  -1.434   4.533  0.00  0.00    +0.112 C 
ATOM     27  N   UNL     1      -1.185  -2.138   5.580  0.00  0.00    -0.217 NA
ATOM     28  C   UNL     1      -2.478  -2.475   5.706  0.00  0.00    +0.182 C 
ATOM     29  N   UNL     1      -3.432  -2.156   4.853  0.00  0.00    -0.151 NA
ATOM     30  C   UNL     1      -3.240  -1.445   3.732  0.00  0.00    +0.272 C 
ATOM     31  O   UNL     1      -4.147  -1.172   2.964  0.00  0.00    -0.268 OA
ATOM     32  S   UNL     1       0.704  -0.777   3.985  0.00  0.00    -0.097 S 
ATOM     33  C   UNL     1       0.100   0.085   2.483  0.00  0.00    +0.080 C 
ATOM     34  C   UNL     1       0.760  -0.504   1.236  0.00  0.00    +0.022 C 
ENDBRANCH  19  28
ENDBRANCH   1  19
TORSDOF 5
