REMARK  Name = ZINC64136931
REMARK  6 active torsions:
REMARK  status: ('A' for Active; 'I' for Inactive)
REMARK    1  A    between atoms: C_1  and  C_2
REMARK    2  A    between atoms: C_2  and  C_20
REMARK    3  A    between atoms: N_3  and  N_4
REMARK    4  A    between atoms: C_5  and  C_7
REMARK    5  A    between atoms: C_10  and  C_13
REMARK    6  A    between atoms: C_24  and  N_26
REMARK                            x       y       z     vdW  Elec       q    Type
REMARK                         _______ _______ _______ _____ _____    ______ ____
ROOT
ATOM      1  N   UNL     1      -1.028  -1.642   1.344  0.00  0.00    -0.205 N 
ATOM      2  C   UNL     1      -1.520  -1.999   2.546  0.00  0.00    +0.263 C 
ATOM      3  O   UNL     1      -1.409  -1.249   3.494  0.00  0.00    -0.271 OA
ATOM      4  H   UNL     1      -1.117  -2.241   0.586  0.00  0.00    +0.177 HD
ENDROOT
BRANCH   2   5
ATOM      5  C   UNL     1      -2.209  -3.329   2.715  0.00  0.00    +0.240 C 
ATOM      6  C   UNL     1      -3.656  -3.244   2.264  0.00  0.00    +0.041 C 
ATOM      7  C   UNL     1      -4.358  -3.529   3.377  0.00  0.00    +0.092 C 
ATOM      8  N   UNL     1      -3.519  -3.769   4.419  0.00  0.00    -0.153 NA
ATOM      9  N   UNL     1      -2.317  -3.681   4.140  0.00  0.00    -0.170 NA
BRANCH   7  10
ATOM     10  C   UNL     1      -5.839  -3.574   3.456  0.00  0.00    +0.002 A 
ATOM     11  C   UNL     1      -6.607  -3.316   2.322  0.00  0.00    +0.011 A 
ATOM     12  C   UNL     1      -7.985  -3.360   2.401  0.00  0.00    +0.016 A 
ATOM     13  C   UNL     1      -8.603  -3.659   3.603  0.00  0.00    +0.018 A 
ATOM     14  C   UNL     1      -7.844  -3.916   4.731  0.00  0.00    +0.016 A 
ATOM     15  C   UNL     1      -6.466  -3.880   4.662  0.00  0.00    +0.011 A 
ATOM     16 BR   UNL     1     -10.490  -3.717   3.703  0.00  0.00    -0.050 Br
ENDBRANCH   7  10
ENDBRANCH   2   5
BRANCH   1  19
ATOM     17  C   UNL     1       0.815   1.237  -0.141  0.00  0.00    +0.068 C 
ATOM     18  C   UNL     1      -0.010  -0.015   0.009  0.00  0.00    +0.063 C 
ATOM     19  N   UNL     1      -0.388  -0.405   1.187  0.00  0.00    -0.184 NA
BRANCH  18  20
ATOM     20  C   UNL     1      -0.386  -0.797  -1.183  0.00  0.00    -0.000 A 
ATOM     21  C   UNL     1      -1.654  -1.377  -1.270  0.00  0.00    +0.010 A 
ATOM     22  C   UNL     1      -2.000  -2.107  -2.388  0.00  0.00    +0.003 A 
ATOM     23  C   UNL     1      -1.094  -2.265  -3.422  0.00  0.00    +0.033 A 
ATOM     24  C   UNL     1       0.164  -1.694  -3.343  0.00  0.00    +0.127 A 
ATOM     25  C   UNL     1       0.521  -0.957  -2.233  0.00  0.00    +0.042 A 
BRANCH  24  26
ATOM     26  N   UNL     1       1.126  -1.869  -4.454  0.00  0.00    +0.056 N 
ATOM     27  O   UNL     1       0.812  -2.511  -5.429  0.00  0.00    -0.126 OA
ATOM     28  O   UNL     1       2.225  -1.371  -4.386  0.00  0.00    -0.126 OA
ENDBRANCH  24  26
ENDBRANCH  18  20
ENDBRANCH   1  19
TORSDOF 5
