REMARK  Name = ZINC07911704
REMARK  6 active torsions:
REMARK  status: ('A' for Active; 'I' for Inactive)
REMARK    1  A    between atoms: C_1  and  C_2
REMARK    2  A    between atoms: N_5  and  C_8
REMARK    3  A    between atoms: C_11  and  N_27
REMARK    4  A    between atoms: C_13  and  C_14
REMARK    5  A    between atoms: N_16  and  C_17
REMARK    6  A    between atoms: C_17  and  C_18
REMARK                            x       y       z     vdW  Elec       q    Type
REMARK                         _______ _______ _______ _____ _____    ______ ____
ROOT
ATOM      1  C   UNL     1       1.189   1.800   0.011  0.00  0.00    +0.042 A 
ATOM      2  C   UNL     1       0.006   1.079   0.110  0.00  0.00    +0.026 A 
ATOM      3  C   UNL     1      -1.207   1.738   0.109  0.00  0.00    +0.034 A 
ATOM      4  C   UNL     1      -1.254   3.120   0.020  0.00  0.00    +0.127 A 
ATOM      5  C   UNL     1      -0.091   3.852  -0.079  0.00  0.00    +0.047 A 
ATOM      6  C   UNL     1       1.144   3.200  -0.085  0.00  0.00    +0.060 A 
ENDROOT
BRANCH   1  11
ATOM      7  C   UNL     1       5.624  -1.679   0.032  0.00  0.00    +0.007 C 
ATOM      8  C   UNL     1       4.196  -1.130   0.045  0.00  0.00    -0.011 C 
ATOM      9  C   UNL     1       3.951  -0.313  -1.227  0.00  0.00    +0.022 C 
ATOM     10  C   UNL     1       2.542   0.284  -1.180  0.00  0.00    +0.105 C 
ATOM     11  N   UNL     1       2.411   1.139   0.006  0.00  0.00    -0.329 N 
ATOM     12  C   UNL     1       2.595   0.367   1.241  0.00  0.00    +0.105 C 
ATOM     13  C   UNL     1       4.005  -0.228   1.267  0.00  0.00    +0.022 C 
ENDBRANCH   1  11
BRANCH   6  14
ATOM     14  C   UNL     1       2.393   3.977  -0.190  0.00  0.00    +0.246 C 
ATOM     15  O   UNL     1       3.460   3.402  -0.294  0.00  0.00    -0.270 OA
ATOM     16  N   UNL     1       2.352   5.324  -0.172  0.00  0.00    -0.307 N 
ATOM     17  H   UNL     1       1.501   5.782  -0.089  0.00  0.00    +0.149 HD
BRANCH  16  18
ATOM     18  C   UNL     1       3.592   6.096  -0.277  0.00  0.00    +0.140 C 
BRANCH  18  19
ATOM     19  C   UNL     1       3.273   7.568  -0.232  0.00  0.00    -0.027 A 
ATOM     20  C   UNL     1       3.024   8.256  -1.405  0.00  0.00    +0.009 A 
ATOM     21  C   UNL     1       2.725   9.605  -1.368  0.00  0.00    +0.050 A 
ATOM     22  C   UNL     1       2.687  10.274  -0.155  0.00  0.00    +0.166 A 
ATOM     23  C   UNL     1       2.943   9.582   1.026  0.00  0.00    +0.167 A 
ATOM     24  C   UNL     1       3.236   8.229   0.982  0.00  0.00    +0.054 A 
ATOM     25  O   UNL     1       2.845  10.454   2.072  0.00  0.00    -0.453 OA
ATOM     26  C   UNL     1       2.929  11.767   1.487  0.00  0.00    +0.466 C 
ATOM     27  O   UNL     1       2.428  11.579   0.151  0.00  0.00    -0.453 OA
ENDBRANCH  18  19
ENDBRANCH  16  18
ENDBRANCH   6  14
BRANCH   4  28
ATOM     28  N   UNL     1      -2.562   3.814   0.025  0.00  0.00    +0.056 N 
ATOM     29  O   UNL     1      -2.608   5.028  -0.058  0.00  0.00    -0.126 OA
ATOM     30  O   UNL     1      -3.592   3.170   0.113  0.00  0.00    -0.126 OA
ENDBRANCH   4  28
TORSDOF 5
