REMARK  Name = ZINC22138947
REMARK  10 active torsions:
REMARK  status: ('A' for Active; 'I' for Inactive)
REMARK    1  A    between atoms: C_1  and  C_2
REMARK    2  A    between atoms: C_4  and  C_12
REMARK    3  A    between atoms: C_6  and  C_11
REMARK    4  A    between atoms: N_14  and  C_15
REMARK    5  A    between atoms: N_19  and  C_20
REMARK    6  A    between atoms: C_20  and  C_21
REMARK    7  A    between atoms: C_24  and  C_27
REMARK    8  A    between atoms: C_27  and  C_28
REMARK    9  A    between atoms: C_27  and  C_29
REMARK   10  A    between atoms: C_27  and  C_30
REMARK                            x       y       z     vdW  Elec       q    Type
REMARK                         _______ _______ _______ _____ _____    ______ ____
ROOT
ATOM      1  C   UNL     1       0.773  -3.127  -4.717  0.00  0.00    +0.124 A 
ATOM      2  C   UNL     1       0.736  -4.484  -4.816  0.00  0.00    +0.065 A 
ATOM      3  C   UNL     1       0.857  -4.819  -6.168  0.00  0.00    +0.136 A 
ATOM      4  N   UNL     1       0.962  -3.713  -6.860  0.00  0.00    -0.178 NA
ATOM      5  N   UNL     1       0.906  -2.630  -5.974  0.00  0.00    -0.246 N 
ENDROOT
BRANCH   1   8
ATOM      6  C   UNL     1       0.552  -3.011  -2.356  0.00  0.00    +0.250 C 
ATOM      7  O   UNL     1       0.513  -4.225  -2.312  0.00  0.00    -0.270 OA
ATOM      8  N   UNL     1       0.683  -2.383  -3.542  0.00  0.00    -0.267 N 
ATOM      9  H   UNL     1       0.715  -1.415  -3.577  0.00  0.00    +0.157 HD
BRANCH   6  13
ATOM     10  C   UNL     1       1.826   0.956   0.405  0.00  0.00    +0.066 C 
ATOM     11  C   UNL     1       1.053  -0.326   0.235  0.00  0.00    +0.043 A 
ATOM     12  C   UNL     1       1.172  -1.034  -0.951  0.00  0.00    +0.037 A 
ATOM     13  C   UNL     1       0.457  -2.221  -1.109  0.00  0.00    +0.053 A 
ATOM     14  C   UNL     1      -0.359  -2.644  -0.041  0.00  0.00    +0.076 A 
ATOM     15  C   UNL     1      -1.236  -3.794   0.176  0.00  0.00    +0.091 A 
ATOM     16  N   UNL     1      -1.747  -3.672   1.363  0.00  0.00    -0.080 NA
ATOM     17  O   UNL     1      -1.263  -2.492   1.972  0.00  0.00    -0.334 OA
ATOM     18  C   UNL     1      -0.421  -1.864   1.127  0.00  0.00    +0.259 A 
ATOM     19  N   UNL     1       0.287  -0.748   1.217  0.00  0.00    -0.215 NA
ATOM     20  C   UNL     1      -1.498  -4.913  -0.799  0.00  0.00    +0.070 C 
ENDBRANCH   6  13
ENDBRANCH   1   8
BRANCH   5  21
ATOM     21  C   UNL     1       0.982  -1.213  -6.338  0.00  0.00    +0.180 C 
BRANCH  21  22
ATOM     22  C   UNL     1       2.421  -0.767  -6.329  0.00  0.00    -0.026 A 
ATOM     23  C   UNL     1       2.982  -0.266  -5.169  0.00  0.00    +0.006 A 
ATOM     24  C   UNL     1       4.303   0.142  -5.160  0.00  0.00    +0.004 A 
ATOM     25  C   UNL     1       5.062   0.050  -6.311  0.00  0.00    -0.042 A 
ATOM     26  C   UNL     1       4.502  -0.452  -7.471  0.00  0.00    +0.004 A 
ATOM     27  C   UNL     1       3.182  -0.865  -7.479  0.00  0.00    +0.006 A 
BRANCH  25  28
ATOM     28  C   UNL     1       6.502   0.496  -6.302  0.00  0.00    -0.013 C 
ATOM     29  C   UNL     1       7.284  -0.326  -5.276  0.00  0.00    +0.015 C 
ATOM     30  C   UNL     1       7.109   0.288  -7.691  0.00  0.00    +0.015 C 
ATOM     31  C   UNL     1       6.574   1.978  -5.930  0.00  0.00    +0.015 C 
ENDBRANCH  25  28
ENDBRANCH  21  22
ENDBRANCH   5  21
TORSDOF 5
