REMARK  Name = ZINC21026986
REMARK  10 active torsions:
REMARK  status: ('A' for Active; 'I' for Inactive)
REMARK    1  A    between atoms: C_1  and  C_2
REMARK    2  A    between atoms: C_2  and  C_3
REMARK    3  A    between atoms: C_2  and  N_4
REMARK    4  A    between atoms: N_4  and  C_5
REMARK    5  A    between atoms: N_4  and  C_29
REMARK    6  A    between atoms: C_5  and  C_6
REMARK    7  A    between atoms: C_6  and  C_7
REMARK    8  A    between atoms: C_7  and  N_8
REMARK    9  A    between atoms: C_9  and  C_11
REMARK   10  A    between atoms: C_29  and  C_30
REMARK                            x       y       z     vdW  Elec       q    Type
REMARK                         _______ _______ _______ _____ _____    ______ ____
ROOT
ATOM      1  N   UNL     1      -9.954   5.509   2.422  0.00  0.00    -0.315 N 
ATOM      2  C   UNL     1      -9.025   6.480   2.521  0.00  0.00    +0.218 C 
ATOM      3  O   UNL     1      -9.285   7.511   3.105  0.00  0.00    -0.275 OA
ATOM      4  H   UNL     1      -9.718   4.574   1.893  0.00  0.00    +0.149 HD
ENDROOT
BRANCH   2   5
ATOM      5  C   UNL     1      -7.663   6.286   1.905  0.00  0.00    +0.092 C 
ATOM      6  C   UNL     1      -6.807   7.531   2.154  0.00  0.00    +0.016 C 
ATOM      7  C   UNL     1      -5.447   7.350   1.474  0.00  0.00    +0.020 C 
ATOM      8  C   UNL     1      -5.659   7.100  -0.021  0.00  0.00    +0.107 C 
ATOM      9  N   UNL     1      -6.483   5.899  -0.206  0.00  0.00    -0.307 N 
ATOM     10  C   UNL     1      -7.811   6.067   0.398  0.00  0.00    +0.119 C 
ATOM     11  C   UNL     1      -6.586   5.568  -1.551  0.00  0.00    +0.186 A 
ATOM     12  N   UNL     1      -7.665   5.401  -2.291  0.00  0.00    -0.124 NA
ATOM     13  N   UNL     1      -7.539   5.071  -3.621  0.00  0.00    -0.124 NA
ATOM     14  C   UNL     1      -6.341   4.923  -4.149  0.00  0.00    +0.192 A 
ATOM     15  S   UNL     1      -5.292   5.248  -2.741  0.00  0.00    -0.015 S 
ATOM     16  N   UNL     1      -5.987   4.594  -5.456  0.00  0.00    -0.249 N 
ATOM     17  C   UNL     1      -6.949   4.341  -6.535  0.00  0.00    +0.116 C 
ATOM     18  C   UNL     1      -6.137   4.455  -7.845  0.00  0.00    +0.029 C 
ATOM     19  C   UNL     1      -4.708   4.115  -7.361  0.00  0.00    +0.098 C 
ATOM     20  C   UNL     1      -4.718   4.469  -5.890  0.00  0.00    +0.221 C 
ATOM     21  O   UNL     1      -3.728   4.617  -5.205  0.00  0.00    -0.275 OA
ENDBRANCH   2   5
BRANCH   1  22
ATOM     22  C   UNL     1     -11.278   5.698   3.021  0.00  0.00    +0.102 C 
BRANCH  22  23
ATOM     23  C   UNL     1     -12.134   4.455   2.768  0.00  0.00    +0.000 C 
BRANCH  23  24
ATOM     24  C   UNL     1     -13.516   4.652   3.393  0.00  0.00    -0.076 C 
BRANCH  24  25
ATOM     25  N   UNL     1     -14.388   3.531   3.017  0.00  0.00    +0.384 N 
ATOM     26  H   UNL     1     -14.202   3.299   1.958  0.00  0.00    -0.081 HD
BRANCH  25  28
ATOM     27  C   UNL     1     -12.937   1.562   3.129  0.00  0.00    -0.014 C 
ATOM     28  C   UNL     1     -14.073   2.332   3.805  0.00  0.00    -0.074 C 
ATOM     29  C   UNL     1     -13.642   2.746   5.213  0.00  0.00    -0.014 C 
ENDBRANCH  25  28
BRANCH  25  30
ATOM     30  C   UNL     1     -15.804   3.896   3.157  0.00  0.00    -0.043 C 
BRANCH  30  31
ATOM     31  C   UNL     1     -16.654   2.912   2.395  0.00  0.00    -0.064 A 
ATOM     32  C   UNL     1     -16.860   3.082   1.038  0.00  0.00    +0.002 A 
ATOM     33  C   UNL     1     -17.636   2.177   0.338  0.00  0.00    +0.000 A 
ATOM     34  C   UNL     1     -18.213   1.107   0.997  0.00  0.00    +0.000 A 
ATOM     35  C   UNL     1     -18.012   0.941   2.354  0.00  0.00    +0.000 A 
ATOM     36  C   UNL     1     -17.233   1.843   3.053  0.00  0.00    +0.002 A 
ENDBRANCH  30  31
ENDBRANCH  25  30
ENDBRANCH  24  25
ENDBRANCH  23  24
ENDBRANCH  22  23
ENDBRANCH   1  22
TORSDOF 8
