REMARK  Name = ZINC33516161
REMARK  4 active torsions:
REMARK  status: ('A' for Active; 'I' for Inactive)
REMARK    1  A    between atoms: C_3  and  N_32
REMARK    2  A    between atoms: C_6  and  C_7
REMARK    3  A    between atoms: C_9  and  C_10
REMARK    4  A    between atoms: C_10  and  C_11
REMARK                            x       y       z     vdW  Elec       q    Type
REMARK                         _______ _______ _______ _____ _____    ______ ____
ROOT
ATOM      1  C   UNL     1       5.107   5.566  -0.273  0.00  0.00    +0.152 C 
ATOM      2  C   UNL     1       3.918   6.349  -0.779  0.00  0.00    +0.077 C 
ATOM      3  C   UNL     1       4.344   7.682  -0.885  0.00  0.00    +0.250 C 
ATOM      4  O   UNL     1       3.667   8.620  -1.264  0.00  0.00    -0.282 OA
ATOM      5  C   UNL     1       5.766   7.750  -0.455  0.00  0.00    +0.293 C 
ATOM      6  O   UNL     1       6.436   8.762  -0.425  0.00  0.00    -0.266 OA
ATOM      7  N   UNL     1       6.200   6.529  -0.101  0.00  0.00    -0.232 N 
ATOM      8  C   UNL     1       7.477   6.226   0.349  0.00  0.00    +0.168 A 
ATOM      9  N   UNL     1       8.506   7.033   0.528  0.00  0.00    -0.233 NA
ATOM     10  C   UNL     1       9.662   6.579   0.967  0.00  0.00    +0.120 A 
ATOM     11  C   UNL     1       9.776   5.254   1.234  0.00  0.00    +0.068 A 
ATOM     12  S   UNL     1       8.130   4.690   0.828  0.00  0.00    -0.060 S 
ENDROOT
BRANCH   1  18
ATOM     13  C   UNL     1       6.124   4.883  -2.456  0.00  0.00    +0.008 A 
ATOM     14  C   UNL     1       6.487   3.918  -3.377  0.00  0.00    +0.033 A 
ATOM     15  C   UNL     1       6.218   2.586  -3.125  0.00  0.00    +0.126 A 
ATOM     16  C   UNL     1       5.589   2.219  -1.950  0.00  0.00    +0.033 A 
ATOM     17  C   UNL     1       5.229   3.183  -1.027  0.00  0.00    +0.008 A 
ATOM     18  C   UNL     1       5.499   4.515  -1.279  0.00  0.00    -0.022 A 
BRANCH  15  19
ATOM     19  N   UNL     1       6.603   1.554  -4.113  0.00  0.00    +0.056 N 
ATOM     20  O   UNL     1       6.365   0.380  -3.891  0.00  0.00    -0.126 OA
ATOM     21  O   UNL     1       7.157   1.877  -5.148  0.00  0.00    -0.126 OA
ENDBRANCH  15  19
ENDBRANCH   1  18
BRANCH   2  22
ATOM     22  C   UNL     1       2.664   5.853  -1.077  0.00  0.00    +0.195 C 
ATOM     23  O   UNL     1       1.733   6.658  -1.632  0.00  0.00    -0.287 OA
BRANCH  22  24
ATOM     24  C   UNL     1       2.342   4.446  -0.790  0.00  0.00    +0.026 A 
ATOM     25  C   UNL     1       2.609   3.909   0.475  0.00  0.00    +0.015 A 
ATOM     26  C   UNL     1       2.307   2.593   0.740  0.00  0.00    +0.050 A 
ATOM     27  C   UNL     1       1.738   1.792  -0.244  0.00  0.00    +0.162 A 
ATOM     28  C   UNL     1       1.467   2.320  -1.505  0.00  0.00    +0.163 A 
ATOM     29  C   UNL     1       1.768   3.641  -1.779  0.00  0.00    +0.061 A 
ATOM     30  O   UNL     1       0.905   1.550  -2.477  0.00  0.00    -0.485 OA
ATOM     31  C   UNL     1       0.959   0.132  -2.286  0.00  0.00    +0.270 C 
ATOM     32  C   UNL     1       0.541  -0.173  -0.841  0.00  0.00    +0.270 C 
ATOM     33  O   UNL     1       1.452   0.493   0.040  0.00  0.00    -0.485 OA
ENDBRANCH  22  24
ENDBRANCH   2  22
TORSDOF 4
