REMARK  Name = ZINC38743573
REMARK  8 active torsions:
REMARK  status: ('A' for Active; 'I' for Inactive)
REMARK    1  A    between atoms: C_1  and  O_2
REMARK    2  A    between atoms: O_2  and  C_3
REMARK    3  A    between atoms: C_6  and  C_9
REMARK    4  A    between atoms: C_10  and  C_11
REMARK    5  A    between atoms: C_14  and  C_21
REMARK    6  A    between atoms: C_24  and  C_27
REMARK    7  A    between atoms: C_30  and  O_33
REMARK    8  A    between atoms: O_33  and  C_34
REMARK                            x       y       z     vdW  Elec       q    Type
REMARK                         _______ _______ _______ _____ _____    ______ ____
ROOT
ATOM      1  C   UNL     1       3.306  -4.544   5.458  0.00  0.00    +0.118 C 
ATOM      2  N   UNL     1       3.891  -3.991   6.486  0.00  0.00    -0.174 NA
ATOM      3  N   UNL     1       4.566  -4.718   7.442  0.00  0.00    -0.206 N 
ATOM      4  C   UNL     1       5.604  -4.648   8.497  0.00  0.00    +0.206 C 
ATOM      5  N   UNL     1       6.349  -5.926   8.403  0.00  0.00    -0.231 NA
ATOM      6  N   UNL     1       5.663  -6.739   7.384  0.00  0.00    -0.224 NA
ATOM      7  C   UNL     1       4.293  -6.189   7.390  0.00  0.00    +0.240 C 
ATOM      8  S   UNL     1       3.509  -6.297   5.740  0.00  0.00    -0.063 S 
ATOM      9  H   UNL     1       6.366  -6.402   9.293  0.00  0.00    +0.143 HD
ATOM     10  H   UNL     1       5.663  -7.715   7.640  0.00  0.00    +0.144 HD
ENDROOT
BRANCH   4  11
ATOM     11  C   UNL     1       6.541  -3.467   8.240  0.00  0.00    +0.190 C 
ATOM     12  C   UNL     1       7.648  -3.425   9.278  0.00  0.00    +0.034 C 
ATOM     13  C   UNL     1       7.465  -2.243   9.898  0.00  0.00    +0.091 C 
ATOM     14  N   UNL     1       6.401  -1.587   9.363  0.00  0.00    -0.154 NA
ATOM     15  N   UNL     1       5.837  -2.190   8.443  0.00  0.00    -0.176 NA
BRANCH  13  16
ATOM     16  C   UNL     1       8.306  -1.729  11.007  0.00  0.00    +0.002 A 
ATOM     17  C   UNL     1       9.380  -2.484  11.476  0.00  0.00    +0.013 A 
ATOM     18  C   UNL     1      10.160  -2.003  12.507  0.00  0.00    +0.046 A 
ATOM     19  C   UNL     1       9.876  -0.770  13.078  0.00  0.00    +0.120 A 
ATOM     20  C   UNL     1       8.806  -0.017  12.613  0.00  0.00    +0.046 A 
ATOM     21  C   UNL     1       8.026  -0.489  11.578  0.00  0.00    +0.013 A 
BRANCH  19  22
ATOM     22  O   UNL     1      10.645  -0.300  14.094  0.00  0.00    -0.495 OA
ATOM     23  C   UNL     1      10.297   0.976  14.635  0.00  0.00    +0.277 C 
ENDBRANCH  19  22
ENDBRANCH  13  16
ENDBRANCH   4  11
BRANCH   1  25
ATOM     24  C   UNL     1       2.574  -2.536   4.287  0.00  0.00    +0.010 C 
ATOM     25  C   UNL     1       2.633  -3.881   4.337  0.00  0.00    +0.037 C 
BRANCH  24  29
ATOM     26  C   UNL     1       0.626  -0.618   1.041  0.00  0.00    +0.120 A 
ATOM     27  C   UNL     1       1.202   0.143   2.050  0.00  0.00    +0.046 A 
ATOM     28  C   UNL     1       1.835  -0.475   3.106  0.00  0.00    +0.011 A 
ATOM     29  C   UNL     1       1.898  -1.871   3.161  0.00  0.00    -0.025 A 
ATOM     30  C   UNL     1       1.316  -2.633   2.143  0.00  0.00    +0.011 A 
ATOM     31  C   UNL     1       0.680  -2.005   1.094  0.00  0.00    +0.046 A 
BRANCH  26  33
ATOM     32  C   UNL     1      -0.017   1.425   0.010  0.00  0.00    +0.277 C 
ATOM     33  O   UNL     1       0.002  -0.004   0.002  0.00  0.00    -0.495 OA
ENDBRANCH  26  33
ENDBRANCH  24  29
ENDBRANCH   1  25
TORSDOF 6
