REMARK  Name = ZINC40317532
REMARK  12 active torsions:
REMARK  status: ('A' for Active; 'I' for Inactive)
REMARK    1  A    between atoms: C_1  and  C_2
REMARK    2  A    between atoms: C_4  and  C_37
REMARK    3  A    between atoms: C_6  and  O_8
REMARK    4  A    between atoms: O_8  and  C_9
REMARK    5  A    between atoms: C_9  and  C_10
REMARK    6  A    between atoms: C_10  and  C_12
REMARK    7  A    between atoms: C_10  and  O_36
REMARK    8  A    between atoms: C_12  and  N_13
REMARK    9  A    between atoms: N_13  and  C_14
REMARK   10  A    between atoms: C_15  and  C_25
REMARK   11  A    between atoms: C_20  and  C_24
REMARK   12  A    between atoms: N_27  and  C_28
REMARK                            x       y       z     vdW  Elec       q    Type
REMARK                         _______ _______ _______ _____ _____    ______ ____
ROOT
ATOM      1  C   UNL     1       0.448  -2.510   8.476  0.00  0.00    +0.078 A 
ATOM      2  C   UNL     1       0.593  -3.205   9.668  0.00  0.00    +0.068 A 
ATOM      3  C   UNL     1       0.706  -2.419  10.885  0.00  0.00    -0.023 A 
ATOM      4  C   UNL     1       0.654  -1.085  10.687  0.00  0.00    -0.004 A 
ATOM      5  S   UNL     1       0.468  -0.896   8.939  0.00  0.00    -0.078 S 
ATOM      6  C   UNL     1       0.740  -0.017  11.733  0.00  0.00    +0.046 C 
ATOM      7  C   UNL     1       0.519  -0.667  13.107  0.00  0.00    -0.009 C 
ATOM      8  C   UNL     1       1.401  -1.915  13.211  0.00  0.00    +0.008 C 
ATOM      9  C   UNL     1       0.871  -3.006  12.279  0.00  0.00    +0.037 C 
ATOM     10  C   UNL     1       0.896   0.324  14.210  0.00  0.00    +0.008 C 
ENDROOT
BRANCH   2  11
ATOM     11  C   UNL     1       0.629  -4.669   9.698  0.00  0.00    +0.247 C 
ATOM     12  O   UNL     1       1.692  -5.254   9.598  0.00  0.00    -0.270 OA
ATOM     13  N   UNL     1      -0.515  -5.369   9.837  0.00  0.00    -0.307 N 
ATOM     14  H   UNL     1      -1.362  -4.903   9.916  0.00  0.00    +0.149 HD
BRANCH  13  15
ATOM     15  C   UNL     1      -0.478  -6.833   9.867  0.00  0.00    +0.096 C 
ATOM     16  C   UNL     1      -0.528  -7.383   8.432  0.00  0.00    +0.046 C 
ATOM     17  C   UNL     1      -0.812  -8.905   8.460  0.00  0.00    +0.168 C 
ATOM     18  S   UNL     1      -1.768  -9.108  10.019  0.00  0.00    -0.029 S 
ATOM     19  O   UNL     1      -1.031  -9.937  10.908  0.00  0.00    -0.174 OA
ATOM     20  O   UNL     1      -3.110  -9.447   9.697  0.00  0.00    -0.174 OA
ATOM     21  C   UNL     1      -1.718  -7.373  10.636  0.00  0.00    +0.188 C 
ENDBRANCH  13  15
ENDBRANCH   2  11
BRANCH   1  22
ATOM     22  N   UNL     1       0.323  -3.027   7.200  0.00  0.00    -0.335 N 
ATOM     23  H   UNL     1       0.326  -3.987   7.063  0.00  0.00    +0.147 HD
BRANCH  22  24
ATOM     24  C   UNL     1       0.185  -2.124   6.054  0.00  0.00    +0.136 C 
BRANCH  24  25
ATOM     25  C   UNL     1       0.065  -2.946   4.769  0.00  0.00    +0.169 C 
BRANCH  25  26
ATOM     26  O   UNL     1      -1.146  -3.704   4.801  0.00  0.00    -0.387 OA
ATOM     27  H   UNL     1      -1.946  -3.165   4.871  0.00  0.00    +0.210 HD
ENDBRANCH  25  26
BRANCH  25  28
ATOM     28  C   UNL     1       0.046  -2.005   3.563  0.00  0.00    +0.261 C 
BRANCH  28  29
ATOM     29  O   UNL     1       0.051  -2.775   2.359  0.00  0.00    -0.489 OA
BRANCH  29  35
ATOM     30  C   UNL     1      -0.018   1.503   0.010  0.00  0.00    +0.044 C 
ATOM     31  C   UNL     1       0.002  -0.004   0.002  0.00  0.00    -0.047 A 
ATOM     32  C   UNL     1       0.006  -0.688  -1.200  0.00  0.00    +0.007 A 
ATOM     33  C   UNL     1       0.025  -2.071  -1.210  0.00  0.00    -0.047 A 
ATOM     34  C   UNL     1       0.040  -2.772  -0.020  0.00  0.00    +0.049 A 
ATOM     35  C   UNL     1       0.036  -2.088   1.187  0.00  0.00    +0.121 A 
ATOM     36  C   UNL     1       0.023  -0.701   1.195  0.00  0.00    +0.049 A 
ATOM     37  C   UNL     1       0.029  -2.813  -2.522  0.00  0.00    +0.044 C 
ENDBRANCH  29  35
ENDBRANCH  28  29
ENDBRANCH  25  28
ENDBRANCH  24  25
ENDBRANCH  22  24
ENDBRANCH   1  22
TORSDOF 9
