REMARK  Name = ZINC04109202
REMARK  14 active torsions:
REMARK  status: ('A' for Active; 'I' for Inactive)
REMARK    1  A    between atoms: C_1  and  C_2
REMARK    2  A    between atoms: C_2  and  C_3
REMARK    3  A    between atoms: C_3  and  C_4
REMARK    4  A    between atoms: C_4  and  C_5
REMARK    5  A    between atoms: C_17  and  O_36
REMARK    6  A    between atoms: N_20  and  C_35
REMARK    7  A    between atoms: C_23  and  C_30
REMARK    8  A    between atoms: C_23  and  O_34
REMARK    9  A    between atoms: C_24  and  O_26
REMARK   10  A    between atoms: O_26  and  C_27
REMARK   11  A    between atoms: C_27  and  C_29
REMARK   12  A    between atoms: C_30  and  O_32
REMARK   13  A    between atoms: O_32  and  C_33
REMARK   14  A    between atoms: O_36  and  C_37
REMARK                            x       y       z     vdW  Elec       q    Type
REMARK                         _______ _______ _______ _____ _____    ______ ____
ROOT
ATOM      1  C   UNL     1      -2.310   0.165   0.222  0.00  0.00    +0.018 C 
ATOM      2  C   UNL     1      -3.297  -0.893   0.587  0.00  0.00    -0.024 C 
ATOM      3  C   UNL     1      -2.904  -2.025   1.097  0.00  0.00    -0.049 C 
ATOM      4  C   UNL     1      -1.445  -2.268   1.318  0.00  0.00    -0.051 C 
ATOM      5  C   UNL     1      -0.970  -0.321  -0.189  0.00  0.00    -0.042 C 
ATOM      6  C   UNL     1       0.161   0.638   0.074  0.00  0.00    +0.007 C 
ATOM      7  C   UNL     1       0.902   0.033   1.285  0.00  0.00    -0.007 C 
ATOM      8  C   UNL     1       0.793  -1.480   0.937  0.00  0.00    -0.077 C 
ATOM      9  C   UNL     1       1.190   0.830  -1.006  0.00  0.00    -0.020 A 
ATOM     10  C   UNL     1       1.619   0.041  -2.043  0.00  0.00    +0.009 A 
ATOM     11  C   UNL     1       2.604   0.567  -2.872  0.00  0.00    +0.046 A 
ATOM     12  C   UNL     1       3.135   1.827  -2.655  0.00  0.00    +0.122 A 
ATOM     13  C   UNL     1       2.715   2.630  -1.595  0.00  0.00    +0.069 A 
ATOM     14  C   UNL     1       1.722   2.122  -0.773  0.00  0.00    +0.037 A 
ATOM     15  N   UNL     1       1.077   2.706   0.343  0.00  0.00    -0.325 N 
ATOM     16  C   UNL     1      -0.263   2.094   0.234  0.00  0.00    +0.128 C 
ATOM     17  C   UNL     1      -1.338   2.357   1.223  0.00  0.00    +0.219 C 
ATOM     18  C   UNL     1      -2.537   1.447   0.947  0.00  0.00    +0.229 C 
ATOM     19  C   UNL     1       1.007   4.163   0.189  0.00  0.00    +0.129 C 
ATOM     20  N   UNL     1      -0.512  -1.655   0.329  0.00  0.00    +0.385 N 
ATOM     21  H   UNL     1      -0.428  -2.297  -0.467  0.00  0.00    -0.081 HD
ENDROOT
BRANCH  17  22
ATOM     22  C   UNL     1      -0.888   2.238   2.657  0.00  0.00    +0.345 C 
ATOM     23  O   UNL     1      -1.038   1.198   3.253  0.00  0.00    -0.247 OA
BRANCH  22  24
ATOM     24  O   UNL     1      -0.322   3.288   3.272  0.00  0.00    -0.466 OA
ATOM     25  C   UNL     1       0.086   3.102   4.652  0.00  0.00    +0.280 C 
ENDBRANCH  22  24
ENDBRANCH  17  22
BRANCH  17  26
ATOM     26  O   UNL     1      -1.804   3.724   1.046  0.00  0.00    -0.373 OA
ATOM     27  H   UNL     1      -2.509   3.982   1.654  0.00  0.00    +0.211 HD
ENDBRANCH  17  26
BRANCH  12  28
ATOM     28  O   UNL     1       4.088   2.300  -3.500  0.00  0.00    -0.495 OA
ATOM     29  C   UNL     1       4.488   1.442  -4.571  0.00  0.00    +0.277 C 
ENDBRANCH  12  28
BRANCH   1  30
ATOM     30  C   UNL     1      -2.891   0.531  -1.150  0.00  0.00    +0.013 C 
BRANCH  30  31
ATOM     31  C   UNL     1      -3.041  -0.735  -1.995  0.00  0.00    +0.001 C 
BRANCH  31  33
ATOM     32  C   UNL     1      -3.645  -1.623  -4.251  0.00  0.00    +0.004 C 
ATOM     33  C   UNL     1      -3.495  -0.356  -3.406  0.00  0.00    -0.003 C 
ENDBRANCH  31  33
ENDBRANCH  30  31
ENDBRANCH   1  30
BRANCH  18  34
ATOM     34  O   UNL     1      -3.176   1.141   2.221  0.00  0.00    -0.457 OA
BRANCH  34  35
ATOM     35  C   UNL     1      -3.998   2.072   2.730  0.00  0.00    +0.304 C 
ATOM     36  O   UNL     1      -4.180   3.107   2.135  0.00  0.00    -0.251 OA
ATOM     37  C   UNL     1      -4.694   1.826   4.044  0.00  0.00    +0.136 C 
ENDBRANCH  34  35
ENDBRANCH  18  34
TORSDOF 9
