REMARK  Name = ZINC09530939
REMARK  2 active torsions:
REMARK  status: ('A' for Active; 'I' for Inactive)
REMARK    1  A    between atoms: C_4  and  C_7
REMARK    2  A    between atoms: C_13  and  C_15
REMARK                            x       y       z     vdW  Elec       q    Type
REMARK                         _______ _______ _______ _____ _____    ______ ____
ROOT
ATOM      1  C   UNL     1      -6.238   1.529   0.036  0.00  0.00    +0.186 A 
ATOM      2  N   UNL     1      -6.891   0.389   0.032  0.00  0.00    -0.126 NA
ATOM      3  N   UNL     1      -6.058  -0.593   0.023  0.00  0.00    -0.120 NA
ATOM      4  C   UNL     1      -4.841  -0.133   0.021  0.00  0.00    +0.219 A 
ATOM      5  N   UNL     1      -4.881   1.240   0.029  0.00  0.00    -0.185 N 
ATOM      6  N   UNL     1      -3.657   1.897   0.028  0.00  0.00    -0.154 NA
ATOM      7  C   UNL     1      -2.530   1.228   0.019  0.00  0.00    +0.148 A 
ATOM      8  S   UNL     1      -3.097  -0.465   0.004  0.00  0.00    -0.025 S 
ENDROOT
BRANCH   7   9
ATOM      9  C   UNL     1      -1.149   1.743   0.016  0.00  0.00    +0.075 A 
ATOM     10  C   UNL     1      -0.801   3.055   0.026  0.00  0.00    +0.038 A 
ATOM     11  C   UNL     1       0.659   3.109   0.013  0.00  0.00    +0.000 A 
ATOM     12  C   UNL     1       1.589   4.153   0.009  0.00  0.00    +0.010 A 
ATOM     13  C   UNL     1       2.926   3.871  -0.005  0.00  0.00    +0.001 A 
ATOM     14  C   UNL     1       3.369   2.555  -0.016  0.00  0.00    +0.002 A 
ATOM     15  C   UNL     1       2.471   1.510  -0.013  0.00  0.00    +0.026 A 
ATOM     16  C   UNL     1       1.104   1.773   0.001  0.00  0.00    +0.047 A 
ATOM     17  N   UNL     1      -0.011   0.966   0.007  0.00  0.00    -0.352 N 
ATOM     18  H   UNL     1       0.002  -0.004   0.002  0.00  0.00    +0.166 HD
ENDBRANCH   7   9
BRANCH   1  22
ATOM     19  C   UNL     1      -7.973   5.405   0.069  0.00  0.00    +0.000 A 
ATOM     20  C   UNL     1      -8.751   4.306  -0.246  0.00  0.00    +0.001 A 
ATOM     21  C   UNL     1      -8.194   3.044  -0.259  0.00  0.00    +0.011 A 
ATOM     22  C   UNL     1      -6.842   2.878   0.047  0.00  0.00    +0.021 A 
ATOM     23  C   UNL     1      -6.064   3.991   0.369  0.00  0.00    +0.011 A 
ATOM     24  C   UNL     1      -6.632   5.248   0.373  0.00  0.00    +0.001 A 
ENDBRANCH   1  22
TORSDOF 2
