REMARK  Name = ZINC04808421
REMARK  8 active torsions:
REMARK  status: ('A' for Active; 'I' for Inactive)
REMARK    1  A    between atoms: C_1  and  C_2
REMARK    2  A    between atoms: C_3  and  C_12
REMARK    3  A    between atoms: C_12  and  C_14
REMARK    4  A    between atoms: C_14  and  C_16
REMARK    5  A    between atoms: C_14  and  O_17
REMARK    6  A    between atoms: O_17  and  C_18
REMARK    7  A    between atoms: C_18  and  C_20
REMARK    8  A    between atoms: C_25  and  N_26
REMARK                            x       y       z     vdW  Elec       q    Type
REMARK                         _______ _______ _______ _____ _____    ______ ____
ROOT
ATOM      1  C   UNL     1       2.627  -0.489  -0.476  0.00  0.00    +0.244 C 
ATOM      2  C   UNL     1       2.733  -1.115  -1.868  0.00  0.00    +0.061 C 
ENDROOT
BRANCH   1   3
ATOM      3  C   UNL     1       2.149   0.935  -0.600  0.00  0.00    +0.205 C 
ATOM      4  O   UNL     1       2.933   1.852  -0.461  0.00  0.00    -0.288 OA
BRANCH   3   7
ATOM      5  C   UNL     1      -0.106   1.092   1.521  0.00  0.00    +0.064 C 
ATOM      6  C   UNL     1      -0.246   1.282   0.032  0.00  0.00    +0.025 A 
ATOM      7  C   UNL     1       0.786   1.203  -0.879  0.00  0.00    +0.049 A 
ATOM      8  C   UNL     1       0.185   1.454  -2.204  0.00  0.00    +0.011 A 
ATOM      9  C   UNL     1       0.690   1.510  -3.499  0.00  0.00    +0.011 A 
ATOM     10  C   UNL     1      -0.160   1.774  -4.552  0.00  0.00    +0.001 A 
ATOM     11  C   UNL     1      -1.512   1.984  -4.323  0.00  0.00    +0.002 A 
ATOM     12  C   UNL     1      -2.024   1.932  -3.045  0.00  0.00    +0.026 A 
ATOM     13  C   UNL     1      -1.183   1.666  -1.970  0.00  0.00    +0.047 A 
ATOM     14  N   UNL     1      -1.398   1.547  -0.612  0.00  0.00    -0.358 N 
ATOM     15  H   UNL     1      -2.261   1.644  -0.180  0.00  0.00    +0.166 HD
ENDBRANCH   3   7
ENDBRANCH   1   3
BRANCH   1  16
ATOM     16  O   UNL     1       3.930  -0.509   0.164  0.00  0.00    -0.450 OA
BRANCH  16  17
ATOM     17  C   UNL     1       4.234  -1.596   0.899  0.00  0.00    +0.342 C 
ATOM     18  O   UNL     1       3.433  -2.502   1.003  0.00  0.00    -0.245 OA
BRANCH  17  19
ATOM     19  C   UNL     1       5.543  -1.685   1.580  0.00  0.00    +0.090 A 
ATOM     20  C   UNL     1       6.724  -1.555   0.847  0.00  0.00    +0.037 A 
ATOM     21  C   UNL     1       7.943  -1.639   1.489  0.00  0.00    +0.042 A 
ATOM     22  C   UNL     1       7.995  -1.852   2.857  0.00  0.00    +0.022 A 
ATOM     23  C   UNL     1       6.828  -1.982   3.587  0.00  0.00    +0.035 A 
ATOM     24  C   UNL     1       5.603  -1.894   2.959  0.00  0.00    +0.140 A 
ATOM     25 CL   UNL     1       9.414  -1.478   0.581  0.00  0.00    -0.084 Cl
BRANCH  24  26
ATOM     26  N   UNL     1       4.355  -2.027   3.744  0.00  0.00    +0.057 N 
ATOM     27  O   UNL     1       4.406  -2.333   4.921  0.00  0.00    -0.126 OA
ATOM     28  O   UNL     1       3.277  -1.829   3.212  0.00  0.00    -0.126 OA
ENDBRANCH  24  26
ENDBRANCH  17  19
ENDBRANCH  16  17
ENDBRANCH   1  16
TORSDOF 6
