REMARK  Name = ZINC15276133
REMARK  9 active torsions:
REMARK  status: ('A' for Active; 'I' for Inactive)
REMARK    1  A    between atoms: C_1  and  C_2
REMARK    2  A    between atoms: C_6  and  N_8
REMARK    3  A    between atoms: C_13  and  C_26
REMARK    4  A    between atoms: C_15  and  C_20
REMARK    5  A    between atoms: C_15  and  C_24
REMARK    6  A    between atoms: C_20  and  C_21
REMARK    7  A    between atoms: C_21  and  C_22
REMARK    8  A    between atoms: C_21  and  C_23
REMARK    9  A    between atoms: C_31  and  O_32
REMARK                            x       y       z     vdW  Elec       q    Type
REMARK                         _______ _______ _______ _____ _____    ______ ____
ROOT
ATOM      1  N   UNL     1       0.312  -1.637   0.217  0.00  0.00    -0.210 N 
ATOM      2  C   UNL     1      -0.514  -0.642  -0.236  0.00  0.00    +0.229 C 
ATOM      3  O   UNL     1      -0.306   0.552  -0.216  0.00  0.00    -0.275 OA
ATOM      4  C   UNL     1      -1.713  -1.339  -0.756  0.00  0.00    +0.077 C 
ATOM      5  C   UNL     1      -3.144  -0.875  -0.626  0.00  0.00    -0.023 C 
ATOM      6  C   UNL     1      -2.974  -3.227  -0.128  0.00  0.00    +0.048 C 
ATOM      7  C   UNL     1      -1.761  -2.495   0.320  0.00  0.00    +0.086 C 
ATOM      8  C   UNL     1      -0.341  -2.834   0.373  0.00  0.00    +0.229 C 
ATOM      9  O   UNL     1       0.152  -3.931   0.523  0.00  0.00    -0.275 OA
ATOM     10  N   UNL     1      -3.889  -2.170  -0.614  0.00  0.00    +0.396 N 
ATOM     11  H   UNL     1      -4.208  -2.396  -1.564  0.00  0.00    -0.083 HD
ATOM     12  H   UNL     1      -4.700  -2.098   0.011  0.00  0.00    -0.083 HD
ENDROOT
BRANCH   1  18
ATOM     13  C   UNL     1       4.235   1.325   0.385  0.00  0.00    +0.044 C 
ATOM     14  C   UNL     1       3.600  -0.027   0.586  0.00  0.00    -0.049 A 
ATOM     15  C   UNL     1       4.360  -1.086   1.046  0.00  0.00    +0.003 A 
ATOM     16  C   UNL     1       3.781  -2.327   1.232  0.00  0.00    +0.002 A 
ATOM     17  C   UNL     1       2.440  -2.513   0.958  0.00  0.00    +0.024 A 
ATOM     18  C   UNL     1       1.674  -1.452   0.495  0.00  0.00    +0.044 A 
ATOM     19  C   UNL     1       2.258  -0.206   0.310  0.00  0.00    +0.027 A 
ENDBRANCH   1  18
BRANCH   5  20
ATOM     20  C   UNL     1      -3.543  -0.028  -1.807  0.00  0.00    -0.018 A 
ATOM     21  C   UNL     1      -2.779  -0.044  -2.958  0.00  0.00    +0.020 A 
ATOM     22  C   UNL     1      -3.147   0.730  -4.044  0.00  0.00    +0.018 A 
ATOM     23  C   UNL     1      -4.275   1.529  -3.976  0.00  0.00    +0.019 A 
ATOM     24  C   UNL     1      -5.037   1.552  -2.825  0.00  0.00    +0.047 A 
ATOM     25  C   UNL     1      -4.673   0.773  -1.736  0.00  0.00    +0.119 A 
ATOM     26 BR   UNL     1      -2.104   0.700  -5.621  0.00  0.00    -0.050 Br
BRANCH  25  27
ATOM     27  O   UNL     1      -5.422   0.794  -0.603  0.00  0.00    -0.507 OA
ATOM     28  H   UNL     1      -5.199   1.514   0.003  0.00  0.00    +0.292 HD
ENDBRANCH  25  27
ENDBRANCH   5  20
BRANCH   6  29
ATOM     29  C   UNL     1      -3.596  -3.970   1.026  0.00  0.00    +0.346 C 
ATOM     30  O   UNL     1      -2.908  -4.339   1.948  0.00  0.00    -0.248 OA
ATOM     31  O   UNL     1      -4.914  -4.221   1.030  0.00  0.00    -0.248 OA
ENDBRANCH   6  29
BRANCH   6  32
ATOM     32  C   UNL     1      -2.625  -4.195  -1.261  0.00  0.00    +0.002 C 
BRANCH  32  33
ATOM     33  C   UNL     1      -3.875  -4.981  -1.663  0.00  0.00    -0.018 C 
ATOM     34  C   UNL     1      -4.899  -4.029  -2.283  0.00  0.00    +0.007 C 
ATOM     35  C   UNL     1      -3.495  -6.056  -2.683  0.00  0.00    +0.007 C 
ENDBRANCH  32  33
ENDBRANCH   6  32
TORSDOF 6
