REMARK  Name = ZINC36748815
REMARK  10 active torsions:
REMARK  status: ('A' for Active; 'I' for Inactive)
REMARK    1  A    between atoms: C_1  and  C_2
REMARK    2  A    between atoms: C_2  and  N_3
REMARK    3  A    between atoms: C_6  and  C_19
REMARK    4  A    between atoms: C_7  and  N_18
REMARK    5  A    between atoms: N_8  and  C_11
REMARK    6  A    between atoms: C_11  and  C_12
REMARK    7  A    between atoms: C_19  and  C_21
REMARK    8  A    between atoms: C_21  and  N_22
REMARK    9  A    between atoms: N_25  and  C_28
REMARK   10  A    between atoms: C_31  and  N_34
REMARK                            x       y       z     vdW  Elec       q    Type
REMARK                         _______ _______ _______ _____ _____    ______ ____
ROOT
ATOM      1  N   UNL     1       0.994  -0.732  -0.943  0.00  0.00    -0.260 N 
ATOM      2  C   UNL     1       0.079  -0.865  -1.925  0.00  0.00    +0.269 A 
ATOM      3  O   UNL     1      -1.102  -0.672  -1.705  0.00  0.00    -0.267 OA
ATOM      4  C   UNL     1       0.539  -1.248  -3.266  0.00  0.00    +0.121 A 
ATOM      5  C   UNL     1       1.917  -1.456  -3.454  0.00  0.00    +0.116 A 
ATOM      6  N   UNL     1       2.760  -1.294  -2.393  0.00  0.00    -0.277 N 
ATOM      7  C   UNL     1       2.299  -0.938  -1.183  0.00  0.00    +0.334 A 
ATOM      8  O   UNL     1       3.091  -0.802  -0.272  0.00  0.00    -0.246 OA
ENDROOT
BRANCH   5   9
ATOM      9  N   UNL     1       2.402  -1.812  -4.675  0.00  0.00    -0.344 N 
ATOM     10  H   UNL     1       1.808  -1.846  -5.441  0.00  0.00    +0.144 HD
ATOM     11  H   UNL     1       3.341  -2.031  -4.778  0.00  0.00    +0.144 HD
ENDBRANCH   5   9
BRANCH   1  13
ATOM     12  C   UNL     1       0.564   1.174   0.529  0.00  0.00    +0.027 C 
ATOM     13  C   UNL     1       0.559  -0.351   0.404  0.00  0.00    +0.126 C 
ENDBRANCH   1  13
BRANCH   4  14
ATOM     14  C   UNL     1      -0.373  -1.403  -4.332  0.00  0.00    +0.185 C 
ATOM     15  O   UNL     1       0.036  -1.616  -5.456  0.00  0.00    -0.290 OA
BRANCH  14  16
ATOM     16  C   UNL     1      -1.855  -1.302  -4.077  0.00  0.00    +0.164 C 
BRANCH  16  17
ATOM     17  N   UNL     1      -2.583  -1.498  -5.337  0.00  0.00    -0.292 NA
ATOM     18  C   UNL     1      -2.309  -0.405  -6.279  0.00  0.00    +0.104 C 
ATOM     19  C   UNL     1      -2.938  -0.735  -7.637  0.00  0.00    +0.120 C 
ATOM     20  N   UNL     1      -4.363  -1.036  -7.431  0.00  0.00    -0.327 N 
ATOM     21  C   UNL     1      -4.724  -2.025  -6.404  0.00  0.00    +0.120 C 
ATOM     22  C   UNL     1      -4.025  -1.644  -5.094  0.00  0.00    +0.104 C 
BRANCH  20  23
ATOM     23  C   UNL     1      -5.347  -0.400  -8.191  0.00  0.00    +0.030 A 
ATOM     24  C   UNL     1      -4.985   0.434  -9.241  0.00  0.00    +0.025 A 
ATOM     25  C   UNL     1      -5.961   1.062  -9.990  0.00  0.00    +0.034 A 
ATOM     26  C   UNL     1      -7.297   0.860  -9.697  0.00  0.00    +0.126 A 
ATOM     27  C   UNL     1      -7.661   0.029  -8.652  0.00  0.00    +0.034 A 
ATOM     28  C   UNL     1      -6.690  -0.605  -7.902  0.00  0.00    +0.025 A 
BRANCH  26  29
ATOM     29  N   UNL     1      -8.340   1.534 -10.502  0.00  0.00    +0.056 N 
ATOM     30  O   UNL     1      -8.023   2.260 -11.415  0.00  0.00    -0.126 OA
ATOM     31  O   UNL     1      -9.508   1.358 -10.247  0.00  0.00    -0.126 OA
ENDBRANCH  26  29
ENDBRANCH  20  23
ENDBRANCH  16  17
ENDBRANCH  14  16
ENDBRANCH   4  14
BRANCH   6  32
ATOM     32  C   UNL     1       4.197  -1.508  -2.578  0.00  0.00    +0.163 C 
BRANCH  32  33
ATOM     33  C   UNL     1       4.851  -0.210  -2.978  0.00  0.00    -0.028 A 
ATOM     34  C   UNL     1       4.958   0.127  -4.314  0.00  0.00    +0.005 A 
ATOM     35  C   UNL     1       5.557   1.317  -4.681  0.00  0.00    +0.000 A 
ATOM     36  C   UNL     1       6.050   2.171  -3.711  0.00  0.00    +0.000 A 
ATOM     37  C   UNL     1       5.942   1.834  -2.375  0.00  0.00    +0.000 A 
ATOM     38  C   UNL     1       5.338   0.645  -2.008  0.00  0.00    +0.005 A 
ENDBRANCH  32  33
ENDBRANCH   6  32
TORSDOF 9
