REMARK  Name = ZINC40915607
REMARK  12 active torsions:
REMARK  status: ('A' for Active; 'I' for Inactive)
REMARK    1  A    between atoms: C_1  and  C_2
REMARK    2  A    between atoms: C_3  and  C_30
REMARK    3  A    between atoms: C_4  and  C_12
REMARK    4  A    between atoms: C_15  and  O_18
REMARK    5  A    between atoms: O_18  and  C_19
REMARK    6  A    between atoms: C_19  and  C_20
REMARK    7  A    between atoms: C_23  and  C_26
REMARK    8  A    between atoms: C_26  and  C_27
REMARK    9  A    between atoms: C_26  and  C_28
REMARK   10  A    between atoms: C_26  and  C_29
REMARK   11  A    between atoms: C_30  and  O_32
REMARK   12  A    between atoms: O_32  and  C_33
REMARK                            x       y       z     vdW  Elec       q    Type
REMARK                         _______ _______ _______ _____ _____    ______ ____
ROOT
ATOM      1  C   UNL     1      -1.716  -2.644   1.362  0.00  0.00    -0.018 A 
ATOM      2  C   UNL     1      -0.972  -2.345   2.488  0.00  0.00    +0.009 A 
ATOM      3  C   UNL     1      -1.393  -2.778   3.731  0.00  0.00    +0.046 A 
ATOM      4  C   UNL     1      -2.565  -3.511   3.848  0.00  0.00    +0.121 A 
ATOM      5  C   UNL     1      -3.310  -3.809   2.716  0.00  0.00    +0.046 A 
ATOM      6  C   UNL     1      -2.887  -3.370   1.477  0.00  0.00    +0.009 A 
ENDROOT
BRANCH   1  10
ATOM      7  C   UNL     1      -0.018   1.503   0.010  0.00  0.00    +0.061 C 
ATOM      8  C   UNL     1       0.002  -0.004   0.002  0.00  0.00    +0.020 C 
ATOM      9  C   UNL     1      -1.164  -0.668   0.004  0.00  0.00    +0.082 C 
ATOM     10  C   UNL     1      -1.253  -2.171   0.008  0.00  0.00    +0.179 C 
ATOM     11  N   UNL     1       0.061  -2.737  -0.283  0.00  0.00    -0.221 N 
ATOM     12  C   UNL     1       1.207  -2.012  -0.280  0.00  0.00    +0.218 A 
ATOM     13  N   UNL     1       2.193  -2.817  -0.570  0.00  0.00    -0.201 NA
ATOM     14  C   UNL     1       1.720  -4.051  -0.766  0.00  0.00    +0.247 A 
ATOM     15  N   UNL     1       0.420  -4.046  -0.602  0.00  0.00    -0.156 NA
ATOM     16  N   UNL     1       1.212  -0.651  -0.013  0.00  0.00    -0.287 N 
ATOM     17  H   UNL     1       2.040  -0.175   0.160  0.00  0.00    +0.155 HD
BRANCH   9  18
ATOM     18  C   UNL     1      -2.364   0.077   0.003  0.00  0.00    +0.339 C 
ATOM     19  O   UNL     1      -2.324   1.294   0.000  0.00  0.00    -0.245 OA
BRANCH  18  20
ATOM     20  O   UNL     1      -3.554  -0.559   0.005  0.00  0.00    -0.465 OA
ATOM     21  C   UNL     1      -4.726   0.258   0.004  0.00  0.00    +0.280 C 
ENDBRANCH  18  20
ENDBRANCH   9  18
ENDBRANCH   1  10
BRANCH   4  22
ATOM     22  O   UNL     1      -2.981  -3.938   5.069  0.00  0.00    -0.487 OA
BRANCH  22  23
ATOM     23  C   UNL     1      -4.197  -4.689   5.114  0.00  0.00    +0.264 C 
BRANCH  23  24
ATOM     24  C   UNL     1      -4.497  -5.073   6.540  0.00  0.00    -0.010 A 
ATOM     25  C   UNL     1      -4.009  -6.261   7.053  0.00  0.00    +0.007 A 
ATOM     26  C   UNL     1      -4.285  -6.613   8.361  0.00  0.00    +0.004 A 
ATOM     27  C   UNL     1      -5.048  -5.778   9.156  0.00  0.00    -0.042 A 
ATOM     28  C   UNL     1      -5.534  -4.590   8.643  0.00  0.00    +0.004 A 
ATOM     29  C   UNL     1      -5.255  -4.236   7.337  0.00  0.00    +0.007 A 
BRANCH  27  30
ATOM     30  C   UNL     1      -5.349  -6.163  10.582  0.00  0.00    -0.013 C 
ATOM     31  C   UNL     1      -4.038  -6.316  11.357  0.00  0.00    +0.015 C 
ATOM     32  C   UNL     1      -6.203  -5.075  11.234  0.00  0.00    +0.015 C 
ATOM     33  C   UNL     1      -6.110  -7.490  10.602  0.00  0.00    +0.015 C 
ENDBRANCH  27  30
ENDBRANCH  23  24
ENDBRANCH  22  23
ENDBRANCH   4  22
TORSDOF 7
