REMARK  Name = ZINC63985913
REMARK  6 active torsions:
REMARK  status: ('A' for Active; 'I' for Inactive)
REMARK    1  A    between atoms: C_1  and  N_2
REMARK    2  A    between atoms: C_5  and  C_7
REMARK    3  A    between atoms: N_9  and  C_10
REMARK    4  A    between atoms: C_10  and  C_11
REMARK    5  A    between atoms: N_18  and  C_21
REMARK    6  A    between atoms: C_21  and  C_22
REMARK                            x       y       z     vdW  Elec       q    Type
REMARK                         _______ _______ _______ _____ _____    ______ ____
ROOT
ATOM      1  C   UNL     1      -0.884   1.969  -0.825  0.00  0.00    +0.172 C 
ATOM      2  N   UNL     1      -0.614   0.545  -0.618  0.00  0.00    -0.270 N 
ATOM      3  C   UNL     1      -0.490  -0.364  -1.595  0.00  0.00    +0.045 A 
ATOM      4  C   UNL     1      -0.247  -1.563  -1.004  0.00  0.00    +0.020 A 
ATOM      5  C   UNL     1      -0.230  -1.313   0.377  0.00  0.00    +0.152 A 
ATOM      6  N   UNL     1      -0.454  -0.019   0.531  0.00  0.00    -0.166 NA
ATOM      7  C   UNL     1      -0.053  -2.847  -1.760  0.00  0.00    +0.124 C 
ATOM      8  N   UNL     1      -0.546  -2.650  -3.135  0.00  0.00    -0.294 NA
ATOM      9  C   UNL     1       0.026  -1.442  -3.744  0.00  0.00    +0.091 C 
ATOM     10  C   UNL     1      -0.582  -0.193  -3.090  0.00  0.00    +0.071 C 
ENDROOT
BRANCH   5  11
ATOM     11  C   UNL     1      -0.001  -2.303   1.449  0.00  0.00    +0.265 C 
ATOM     12  O   UNL     1       0.198  -3.469   1.168  0.00  0.00    -0.268 OA
ATOM     13  N   UNL     1      -0.013  -1.913   2.739  0.00  0.00    -0.306 N 
ATOM     14  H   UNL     1      -0.172  -0.983   2.964  0.00  0.00    +0.149 HD
BRANCH  13  15
ATOM     15  C   UNL     1       0.214  -2.895   3.803  0.00  0.00    +0.140 C 
BRANCH  15  16
ATOM     16  C   UNL     1       0.150  -2.208   5.143  0.00  0.00    -0.030 A 
ATOM     17  C   UNL     1       1.296  -1.673   5.701  0.00  0.00    +0.005 A 
ATOM     18  C   UNL     1       1.237  -1.043   6.930  0.00  0.00    +0.000 A 
ATOM     19  C   UNL     1       0.032  -0.946   7.600  0.00  0.00    +0.000 A 
ATOM     20  C   UNL     1      -1.115  -1.480   7.041  0.00  0.00    +0.000 A 
ATOM     21  C   UNL     1      -1.056  -2.107   5.811  0.00  0.00    +0.005 A 
ENDBRANCH  15  16
ENDBRANCH  13  15
ENDBRANCH   5  11
BRANCH   8  22
ATOM     22  C   UNL     1      -0.280  -3.834  -3.964  0.00  0.00    +0.131 C 
BRANCH  22  23
ATOM     23  C   UNL     1      -1.292  -4.931  -3.626  0.00  0.00    +0.188 C 
ATOM     24  N   UNL     1      -2.657  -4.392  -3.682  0.00  0.00    -0.362 N 
ATOM     25  C   UNL     1      -3.179  -4.527  -2.498  0.00  0.00    +0.060 A 
ATOM     26  C   UNL     1      -4.494  -4.181  -1.940  0.00  0.00    +0.027 A 
ATOM     27  C   UNL     1      -4.758  -4.446  -0.645  0.00  0.00    +0.002 A 
ATOM     28  C   UNL     1      -3.819  -5.047   0.212  0.00  0.00    +0.002 A 
ATOM     29  C   UNL     1      -2.585  -5.403  -0.197  0.00  0.00    +0.027 A 
ATOM     30  C   UNL     1      -2.186  -5.163  -1.590  0.00  0.00    +0.060 A 
ATOM     31  N   UNL     1      -1.088  -5.398  -2.249  0.00  0.00    -0.362 N 
ATOM     32  H   UNL     1      -3.090  -4.007  -4.460  0.00  0.00    +0.162 HD
ATOM     33  H   UNL     1      -0.282  -5.806  -1.895  0.00  0.00    +0.162 HD
ENDBRANCH  22  23
ENDBRANCH   8  22
TORSDOF 5
