REMARK  Name = ZINC09518482
REMARK  7 active torsions:
REMARK  status: ('A' for Active; 'I' for Inactive)
REMARK    1  A    between atoms: C_1  and  C_2
REMARK    2  A    between atoms: C_2  and  C_4
REMARK    3  A    between atoms: C_2  and  O_28
REMARK    4  A    between atoms: N_6  and  C_7
REMARK    5  A    between atoms: C_15  and  C_16
REMARK    6  A    between atoms: N_18  and  C_19
REMARK    7  A    between atoms: O_28  and  C_29
REMARK                            x       y       z     vdW  Elec       q    Type
REMARK                         _______ _______ _______ _____ _____    ______ ____
ROOT
ATOM      1  C   UNL     1      -6.617   1.062  -1.912  0.00  0.00    +0.092 A 
ATOM      2  C   UNL     1      -7.846   1.613  -2.496  0.00  0.00    +0.042 A 
ATOM      3  C   UNL     1      -8.477   2.856  -2.434  0.00  0.00    +0.013 A 
ATOM      4  C   UNL     1      -9.643   3.059  -3.119  0.00  0.00    +0.001 A 
ATOM      5  C   UNL     1     -10.197   2.039  -3.880  0.00  0.00    +0.004 A 
ATOM      6  C   UNL     1      -9.585   0.807  -3.959  0.00  0.00    +0.047 A 
ATOM      7  C   UNL     1      -8.399   0.578  -3.270  0.00  0.00    +0.138 A 
ATOM      8  O   UNL     1      -7.593  -0.496  -3.159  0.00  0.00    -0.448 OA
ATOM      9  C   UNL     1      -6.535  -0.228  -2.361  0.00  0.00    +0.212 A 
ENDROOT
BRANCH   1  12
ATOM     10  C   UNL     1      -6.146   2.737  -0.302  0.00  0.00    +0.258 C 
ATOM     11  O   UNL     1      -7.319   3.045  -0.293  0.00  0.00    -0.271 OA
ATOM     12  N   UNL     1      -5.723   1.714  -1.071  0.00  0.00    -0.279 N 
ATOM     13  H   UNL     1      -4.795   1.434  -1.038  0.00  0.00    +0.155 HD
BRANCH  10  15
ATOM     14  C   UNL     1      -4.167   4.230  -0.358  0.00  0.00    +0.062 C 
ATOM     15  C   UNL     1      -5.161   3.499   0.547  0.00  0.00    +0.256 C 
BRANCH  15  16
ATOM     16  O   UNL     1      -5.861   4.449   1.352  0.00  0.00    -0.480 OA
BRANCH  16  17
ATOM     17  C   UNL     1      -5.242   4.872   2.486  0.00  0.00    +0.122 A 
ATOM     18  C   UNL     1      -4.023   4.324   2.858  0.00  0.00    +0.045 A 
ATOM     19  C   UNL     1      -3.394   4.758   4.009  0.00  0.00    +0.004 A 
ATOM     20  C   UNL     1      -3.981   5.734   4.792  0.00  0.00    +0.000 A 
ATOM     21  C   UNL     1      -5.199   6.278   4.427  0.00  0.00    +0.004 A 
ATOM     22  C   UNL     1      -5.832   5.847   3.277  0.00  0.00    +0.045 A 
ENDBRANCH  16  17
ENDBRANCH  15  16
ENDBRANCH  10  15
ENDBRANCH   1  12
BRANCH   9  23
ATOM     23  C   UNL     1      -5.469  -1.170  -2.028  0.00  0.00    +0.285 C 
ATOM     24  O   UNL     1      -4.610  -0.859  -1.223  0.00  0.00    -0.266 OA
ATOM     25  N   UNL     1      -5.436  -2.384  -2.613  0.00  0.00    -0.279 N 
ATOM     26  H   UNL     1      -6.073  -2.604  -3.310  0.00  0.00    +0.155 HD
BRANCH  25  27
ATOM     27  C   UNL     1      -4.481  -3.328  -2.214  0.00  0.00    +0.037 A 
ATOM     28  C   UNL     1      -3.952  -4.215  -3.142  0.00  0.00    +0.027 A 
ATOM     29  C   UNL     1      -3.006  -5.144  -2.751  0.00  0.00    +0.051 A 
ATOM     30  C   UNL     1      -2.591  -5.199  -1.430  0.00  0.00    +0.166 A 
ATOM     31  C   UNL     1      -3.123  -4.313  -0.496  0.00  0.00    +0.168 A 
ATOM     32  C   UNL     1      -4.067  -3.380  -0.890  0.00  0.00    +0.072 A 
ATOM     33  O   UNL     1      -2.558  -4.569   0.720  0.00  0.00    -0.453 OA
ATOM     34  C   UNL     1      -1.979  -5.883   0.606  0.00  0.00    +0.466 C 
ATOM     35  O   UNL     1      -1.690  -6.009  -0.799  0.00  0.00    -0.453 OA
ENDBRANCH  25  27
ENDBRANCH   9  23
TORSDOF 6
