REMARK  Name = ZINC52245931
REMARK  5 active torsions:
REMARK  status: ('A' for Active; 'I' for Inactive)
REMARK    1  A    between atoms: C_1  and  C_2
REMARK    2  A    between atoms: C_12  and  C_15
REMARK    3  A    between atoms: C_15  and  N_16
REMARK    4  A    between atoms: N_16  and  C_17
REMARK    5  A    between atoms: C_20  and  N_24
REMARK                            x       y       z     vdW  Elec       q    Type
REMARK                         _______ _______ _______ _____ _____    ______ ____
ROOT
ATOM      1  C   UNL     1       3.274  -2.149   1.783  0.00  0.00    +0.039 C 
ATOM      2  C   UNL     1       2.763  -1.746   0.398  0.00  0.00    +0.132 C 
ATOM      3  C   UNL     1       1.461  -2.497   0.095  0.00  0.00    +0.137 C 
ATOM      4  N   UNL     1       0.894  -1.957  -1.151  0.00  0.00    -0.312 N 
ATOM      5  C   UNL     1       0.744  -0.498  -1.267  0.00  0.00    +0.134 C 
ATOM      6  C   UNL     1       2.080   0.156  -0.897  0.00  0.00    +0.179 C 
ATOM      7  O   UNL     1       2.512  -0.339   0.373  0.00  0.00    -0.374 OA
ATOM      8  C   UNL     1       0.510  -2.800  -2.187  0.00  0.00    +0.099 A 
ATOM      9  C   UNL     1      -0.134  -2.274  -3.302  0.00  0.00    +0.042 A 
ATOM     10  C   UNL     1      -0.510  -3.124  -4.326  0.00  0.00    +0.010 A 
ATOM     11  C   UNL     1      -0.228  -4.478  -4.200  0.00  0.00    -0.014 A 
ATOM     12  C   UNL     1       0.415  -4.933  -3.066  0.00  0.00    +0.089 A 
ATOM     13  N   UNL     1       0.767  -4.097  -2.107  0.00  0.00    -0.349 N 
ATOM     14  H   UNL     1       1.221  -4.442  -1.322  0.00  0.00    +0.167 HD
ENDROOT
BRANCH  11  15
ATOM     15  C   UNL     1      -0.619  -5.442  -5.290  0.00  0.00    +0.138 C 
BRANCH  15  16
ATOM     16  N   UNL     1       0.475  -5.557  -6.257  0.00  0.00    -0.337 N 
ATOM     17  H   UNL     1       1.291  -5.048  -6.128  0.00  0.00    +0.146 HD
BRANCH  16  18
ATOM     18  C   UNL     1       0.344  -6.399  -7.365  0.00  0.00    +0.063 A 
ATOM     19  C   UNL     1      -0.825  -7.124  -7.554  0.00  0.00    +0.028 A 
ATOM     20  C   UNL     1      -0.952  -7.955  -8.650  0.00  0.00    +0.035 A 
ATOM     21  C   UNL     1       0.083  -8.067  -9.560  0.00  0.00    +0.129 A 
ATOM     22  C   UNL     1       1.250  -7.348  -9.376  0.00  0.00    +0.073 A 
ATOM     23  C   UNL     1       1.382  -6.510  -8.284  0.00  0.00    +0.146 A 
ATOM     24  F   UNL     1       2.520  -5.803  -8.108  0.00  0.00    -0.203 F 
BRANCH  21  25
ATOM     25  N   UNL     1      -0.057  -8.959 -10.732  0.00  0.00    +0.057 N 
ATOM     26  O   UNL     1      -1.076  -9.589 -10.894  0.00  0.00    -0.126 OA
ATOM     27  O   UNL     1       0.847  -9.058 -11.528  0.00  0.00    -0.126 OA
ENDBRANCH  21  25
ENDBRANCH  16  18
ENDBRANCH  15  16
ENDBRANCH  11  15
TORSDOF 4
