REMARK  Name = ZINC43188289
REMARK  5 active torsions:
REMARK  status: ('A' for Active; 'I' for Inactive)
REMARK    1  A    between atoms: C_1  and  C_2
REMARK    2  A    between atoms: C_5  and  N_9
REMARK    3  A    between atoms: N_12  and  C_13
REMARK    4  A    between atoms: N_12  and  C_14
REMARK    5  A    between atoms: C_14  and  C_15
REMARK                            x       y       z     vdW  Elec       q    Type
REMARK                         _______ _______ _______ _____ _____    ______ ____
ROOT
ATOM      1  N   UNL     1       0.059  -4.171  -0.023  0.00  0.00    -0.268 N 
ATOM      2  C   UNL     1      -0.040  -4.839  -1.190  0.00  0.00    +0.307 C 
ATOM      3  O   UNL     1      -0.054  -4.229  -2.241  0.00  0.00    -0.252 OA
ATOM      4  N   UNL     1      -0.124  -6.184  -1.190  0.00  0.00    -0.284 N 
ATOM      5  C   UNL     1      -0.107  -6.920   0.076  0.00  0.00    +0.134 C 
ATOM      6  H   UNL     1       0.135  -4.660   0.811  0.00  0.00    +0.156 HD
ENDROOT
BRANCH   1  11
ATOM      7  C   UNL     1       0.029   1.503   0.005  0.00  0.00    +0.044 C 
ATOM      8  C   UNL     1       0.036  -0.004  -0.002  0.00  0.00    -0.049 A 
ATOM      9  C   UNL     1       0.634  -0.686  -1.046  0.00  0.00    +0.005 A 
ATOM     10  C   UNL     1       0.643  -2.067  -1.056  0.00  0.00    +0.025 A 
ATOM     11  C   UNL     1       0.051  -2.771  -0.016  0.00  0.00    +0.053 A 
ATOM     12  C   UNL     1      -0.548  -2.084   1.033  0.00  0.00    +0.062 A 
ATOM     13  C   UNL     1      -0.549  -0.701   1.039  0.00  0.00    +0.025 A 
ATOM     14 CL   UNL     1      -1.289  -2.959   2.336  0.00  0.00    -0.082 Cl
ENDBRANCH   1  11
BRANCH   4  15
ATOM     15  C   UNL     1      -0.232  -6.911  -2.458  0.00  0.00    +0.144 C 
BRANCH  15  16
ATOM     16  C   UNL     1       1.148  -7.248  -2.963  0.00  0.00    -0.026 A 
ATOM     17  C   UNL     1       1.817  -6.362  -3.787  0.00  0.00    +0.009 A 
ATOM     18  C   UNL     1       3.082  -6.666  -4.251  0.00  0.00    +0.050 A 
ATOM     19  C   UNL     1       3.684  -7.862  -3.893  0.00  0.00    +0.166 A 
ATOM     20  C   UNL     1       3.010  -8.754  -3.063  0.00  0.00    +0.167 A 
ATOM     21  C   UNL     1       1.744  -8.440  -2.596  0.00  0.00    +0.054 A 
ATOM     22  O   UNL     1       3.805  -9.845  -2.859  0.00  0.00    -0.453 OA
ATOM     23  C   UNL     1       4.800  -9.796  -3.898  0.00  0.00    +0.466 C 
ATOM     24  O   UNL     1       4.901  -8.393  -4.208  0.00  0.00    -0.453 OA
ENDBRANCH  15  16
ENDBRANCH   4  15
TORSDOF 3
