REMARK  Name = ZINC44772072
REMARK  6 active torsions:
REMARK  status: ('A' for Active; 'I' for Inactive)
REMARK    1  A    between atoms: C_1  and  N_2
REMARK    2  A    between atoms: C_4  and  S_10
REMARK    3  A    between atoms: C_6  and  C_7
REMARK    4  A    between atoms: S_10  and  N_13
REMARK    5  A    between atoms: N_13  and  C_14
REMARK    6  A    between atoms: C_19  and  N_20
REMARK                            x       y       z     vdW  Elec       q    Type
REMARK                         _______ _______ _______ _____ _____    ______ ____
ROOT
ATOM      1  N   UNL     1       1.437  -3.841  -2.246  0.00  0.00    -0.214 N 
ATOM      2  H   UNL     1       1.701  -3.757  -3.175  0.00  0.00    +0.174 HD
ENDROOT
BRANCH   1   3
ATOM      3  C   UNL     1       2.390  -4.167  -1.274  0.00  0.00    +0.070 A 
ATOM      4  C   UNL     1       2.041  -4.973  -0.201  0.00  0.00    +0.046 A 
ATOM      5  C   UNL     1       2.985  -5.294   0.758  0.00  0.00    +0.043 A 
ATOM      6  C   UNL     1       4.278  -4.814   0.650  0.00  0.00    +0.022 A 
ATOM      7  C   UNL     1       4.634  -4.010  -0.417  0.00  0.00    +0.026 A 
ATOM      8  C   UNL     1       3.695  -3.687  -1.385  0.00  0.00    +0.052 A 
ATOM      9 CL   UNL     1       2.546  -6.303   2.101  0.00  0.00    -0.083 Cl
BRANCH   8  10
ATOM     10  N   UNL     1       4.055  -2.877  -2.470  0.00  0.00    -0.328 N 
ATOM     11  C   UNL     1       3.931  -1.416  -2.387  0.00  0.00    +0.105 C 
ATOM     12  C   UNL     1       5.279  -0.785  -2.750  0.00  0.00    +0.019 C 
ATOM     13  C   UNL     1       5.727  -1.301  -4.119  0.00  0.00    +0.003 C 
ATOM     14  C   UNL     1       5.904  -2.820  -4.061  0.00  0.00    +0.019 C 
ATOM     15  C   UNL     1       4.569  -3.473  -3.711  0.00  0.00    +0.105 C 
ENDBRANCH   8  10
ENDBRANCH   1   3
BRANCH   1  16
ATOM     16  S   UNL     1      -0.142  -3.598  -1.808  0.00  0.00    +0.074 S 
ATOM     17  O   UNL     1      -0.543  -4.750  -1.079  0.00  0.00    -0.150 OA
ATOM     18  O   UNL     1      -0.824  -3.159  -2.975  0.00  0.00    -0.150 OA
BRANCH  16  22
ATOM     19  C   UNL     1      -0.390   1.252   0.225  0.00  0.00    +0.149 C 
ATOM     20  N   UNL     1      -0.275  -0.206   0.145  0.00  0.00    -0.344 N 
ATOM     21  C   UNL     1      -0.302  -0.941  -0.993  0.00  0.00    +0.114 A 
ATOM     22  C   UNL     1      -0.167  -2.250  -0.673  0.00  0.00    +0.127 A 
ATOM     23  C   UNL     1      -0.051  -2.342   0.717  0.00  0.00    +0.061 A 
ATOM     24  C   UNL     1      -0.115  -1.058   1.215  0.00  0.00    +0.106 A 
BRANCH  24  25
ATOM     25  C   UNL     1      -0.030  -0.671   2.627  0.00  0.00    +0.258 C 
ATOM     26  O   UNL     1      -0.191   0.492   2.949  0.00  0.00    -0.269 OA
ATOM     27  N   UNL     1       0.225  -1.602   3.567  0.00  0.00    -0.324 N 
ATOM     28  H   UNL     1       0.424  -2.514   3.305  0.00  0.00    +0.145 HD
ATOM     29  H   UNL     1       0.208  -1.360   4.506  0.00  0.00    +0.145 HD
ENDBRANCH  24  25
ENDBRANCH  16  22
ENDBRANCH   1  16
TORSDOF 5
