REMARK  Name = ZINC22937905
REMARK  10 active torsions:
REMARK  status: ('A' for Active; 'I' for Inactive)
REMARK    1  A    between atoms: C_1  and  C_2
REMARK    2  A    between atoms: C_2  and  N_3
REMARK    3  A    between atoms: C_10  and  S_12
REMARK    4  A    between atoms: S_12  and  N_15
REMARK    5  A    between atoms: C_18  and  C_21
REMARK    6  A    between atoms: N_23  and  C_24
REMARK    7  A    between atoms: C_24  and  C_25
REMARK    8  A    between atoms: C_25  and  N_26
REMARK    9  A    between atoms: N_29  and  C_32
REMARK   10  A    between atoms: C_32  and  C_33
REMARK                            x       y       z     vdW  Elec       q    Type
REMARK                         _______ _______ _______ _____ _____    ______ ____
ROOT
ATOM      1  N   UNL     1       6.637  -3.022  -2.340  0.00  0.00    -0.177 NA
ATOM      2  C   UNL     1       7.214  -3.377  -1.036  0.00  0.00    +0.110 C 
ATOM      3  C   UNL     1       8.487  -4.197  -1.267  0.00  0.00    +0.030 C 
ATOM      4  C   UNL     1       8.160  -5.398  -2.158  0.00  0.00    +0.077 C 
ATOM      5  C   UNL     1       7.650  -4.907  -3.514  0.00  0.00    +0.030 C 
ATOM      6  C   UNL     1       6.362  -4.095  -3.306  0.00  0.00    +0.110 C 
ENDROOT
BRANCH   4   7
ATOM      7  C   UNL     1       9.403  -6.227  -2.359  0.00  0.00    +0.216 C 
ATOM      8  O   UNL     1      10.447  -5.890  -1.841  0.00  0.00    -0.276 OA
ATOM      9  N   UNL     1       9.355  -7.342  -3.114  0.00  0.00    -0.314 N 
ATOM     10  H   UNL     1       8.520  -7.612  -3.528  0.00  0.00    +0.149 HD
BRANCH   9  11
ATOM     11  C   UNL     1      10.563  -8.147  -3.310  0.00  0.00    +0.119 C 
BRANCH  11  12
ATOM     12  C   UNL     1      10.236  -9.348  -4.199  0.00  0.00    +0.103 C 
BRANCH  12  13
ATOM     13  N   UNL     1      11.448 -10.156  -4.396  0.00  0.00    -0.304 NA
ATOM     14  C   UNL     1      12.454  -9.416  -5.171  0.00  0.00    +0.066 C 
ATOM     15  C   UNL     1      13.719 -10.267  -5.302  0.00  0.00    -0.063 C 
ATOM     16  N   UNL     1      13.392 -11.531  -5.973  0.00  0.00    +0.381 N 
ATOM     17  C   UNL     1      12.405 -12.270  -5.175  0.00  0.00    -0.063 C 
ATOM     18  C   UNL     1      11.128 -11.436  -5.043  0.00  0.00    +0.066 C 
ATOM     19  H   UNL     1      13.009 -11.338  -6.886  0.00  0.00    -0.082 HD
BRANCH  16  20
ATOM     20  C   UNL     1      14.610 -12.340  -6.114  0.00  0.00    -0.082 C 
ATOM     21  C   UNL     1      14.295 -13.600  -6.923  0.00  0.00    -0.017 C 
ENDBRANCH  16  20
ENDBRANCH  12  13
ENDBRANCH  11  12
ENDBRANCH   9  11
ENDBRANCH   4   7
BRANCH   1  22
ATOM     22  S   UNL     1       6.296  -1.445  -2.711  0.00  0.00    +0.061 S 
ATOM     23  O   UNL     1       6.296  -1.352  -4.129  0.00  0.00    -0.153 OA
ATOM     24  O   UNL     1       7.140  -0.644  -1.896  0.00  0.00    -0.153 OA
BRANCH  22  32
ATOM     25  N   UNL     1       0.688  -0.476  -1.203  0.00  0.00    -0.347 N 
ATOM     26  C   UNL     1       0.070  -0.827  -2.373  0.00  0.00    +0.087 A 
ATOM     27  C   UNL     1       0.985  -1.215  -3.276  0.00  0.00    +0.027 A 
ATOM     28  C   UNL     1       2.296  -1.103  -2.631  0.00  0.00    +0.002 A 
ATOM     29  C   UNL     1       2.050  -0.628  -1.330  0.00  0.00    +0.049 A 
ATOM     30  C   UNL     1       3.122  -0.415  -0.469  0.00  0.00    +0.028 A 
ATOM     31  C   UNL     1       4.406  -0.667  -0.900  0.00  0.00    +0.030 A 
ATOM     32  C   UNL     1       4.643  -1.132  -2.186  0.00  0.00    +0.106 A 
ATOM     33  C   UNL     1       3.605  -1.356  -3.045  0.00  0.00    +0.038 A 
BRANCH  25  35
ATOM     34  C   UNL     1      -0.019   1.526   0.010  0.00  0.00    +0.027 C 
ATOM     35  C   UNL     1       0.002  -0.004   0.002  0.00  0.00    +0.118 C 
ENDBRANCH  25  35
ENDBRANCH  22  32
ENDBRANCH   1  22
TORSDOF 8
