REMARK  Name = ZINC63135183
REMARK  11 active torsions:
REMARK  status: ('A' for Active; 'I' for Inactive)
REMARK    1  A    between atoms: C_1  and  C_2
REMARK    2  A    between atoms: C_3  and  N_15
REMARK    3  A    between atoms: N_6  and  C_9
REMARK    4  A    between atoms: N_7  and  C_8
REMARK    5  A    between atoms: C_16  and  C_18
REMARK    6  A    between atoms: C_18  and  C_20
REMARK    7  A    between atoms: C_18  and  O_21
REMARK    8  A    between atoms: O_21  and  C_22
REMARK    9  A    between atoms: C_22  and  C_24
REMARK   10  A    between atoms: C_24  and  C_25
REMARK   11  A    between atoms: C_25  and  C_26
REMARK                            x       y       z     vdW  Elec       q    Type
REMARK                         _______ _______ _______ _____ _____    ______ ____
ROOT
ATOM      1  N   UNL     1       0.112  -0.215  -2.459  0.00  0.00    -0.277 N 
ATOM      2  C   UNL     1       0.629  -0.886  -3.507  0.00  0.00    +0.258 C 
ATOM      3  O   UNL     1       1.145  -1.971  -3.338  0.00  0.00    -0.271 OA
ATOM      4  H   UNL     1      -0.236   0.682  -2.582  0.00  0.00    +0.155 HD
ENDROOT
BRANCH   1   7
ATOM      5  C   UNL     1      -2.435  -0.673  -0.811  0.00  0.00    +0.067 C 
ATOM      6  C   UNL     1      -1.023  -1.034  -0.431  0.00  0.00    +0.059 A 
ATOM      7  C   UNL     1       0.078  -0.816  -1.185  0.00  0.00    +0.121 A 
ATOM      8  C   UNL     1       1.227  -1.321  -0.432  0.00  0.00    +0.293 A 
ATOM      9  O   UNL     1       2.392  -1.301  -0.787  0.00  0.00    -0.264 OA
ATOM     10  N   UNL     1       0.749  -1.813   0.730  0.00  0.00    -0.216 N 
ATOM     11  N   UNL     1      -0.639  -1.634   0.740  0.00  0.00    -0.282 N 
ATOM     12  C   UNL     1      -1.538  -2.027   1.827  0.00  0.00    +0.171 C 
BRANCH  10  13
ATOM     13  C   UNL     1       1.509  -2.395   1.749  0.00  0.00    +0.067 A 
ATOM     14  C   UNL     1       1.114  -3.603   2.308  0.00  0.00    +0.028 A 
ATOM     15  C   UNL     1       1.867  -4.175   3.315  0.00  0.00    +0.002 A 
ATOM     16  C   UNL     1       3.013  -3.546   3.766  0.00  0.00    +0.000 A 
ATOM     17  C   UNL     1       3.409  -2.343   3.212  0.00  0.00    +0.002 A 
ATOM     18  C   UNL     1       2.664  -1.768   2.201  0.00  0.00    +0.028 A 
ENDBRANCH  10  13
ENDBRANCH   1   7
BRANCH   2  19
ATOM     19  C   UNL     1       0.565  -0.289  -4.890  0.00  0.00    +0.259 C 
ATOM     20  C   UNL     1       1.414   0.983  -4.935  0.00  0.00    +0.062 C 
BRANCH  19  21
ATOM     21  O   UNL     1       1.068  -1.232  -5.839  0.00  0.00    -0.452 OA
BRANCH  21  22
ATOM     22  C   UNL     1       0.557  -1.179  -7.079  0.00  0.00    +0.308 C 
ATOM     23  O   UNL     1      -0.289  -0.360  -7.349  0.00  0.00    -0.251 OA
BRANCH  22  24
ATOM     24  C   UNL     1       1.039  -2.142  -8.134  0.00  0.00    +0.125 C 
BRANCH  24  25
ATOM     25  C   UNL     1       0.301  -1.870  -9.447  0.00  0.00    +0.044 C 
BRANCH  25  26
ATOM     26  C   UNL     1       0.783  -2.833 -10.502  0.00  0.00    -0.041 C 
ATOM     27  C   UNL     1       0.214  -4.009 -10.850  0.00  0.00    -0.001 A 
ATOM     28  C   UNL     1      -0.978  -4.718 -10.369  0.00  0.00    +0.010 A 
ATOM     29  C   UNL     1      -1.303  -5.907 -10.925  0.00  0.00    +0.001 A 
ATOM     30  C   UNL     1      -0.531  -6.479 -11.946  0.00  0.00    +0.002 A 
ATOM     31  C   UNL     1       0.577  -5.888 -12.440  0.00  0.00    +0.026 A 
ATOM     32  C   UNL     1       1.011  -4.634 -11.930  0.00  0.00    +0.043 A 
ATOM     33  N   UNL     1       2.034  -3.873 -12.236  0.00  0.00    -0.380 N 
ATOM     34  C   UNL     1       1.997  -2.676 -11.389  0.00  0.00    +0.144 C 
ATOM     35  H   UNL     1       2.701  -4.067 -12.913  0.00  0.00    +0.160 HD
ENDBRANCH  25  26
ENDBRANCH  24  25
ENDBRANCH  22  24
ENDBRANCH  21  22
ENDBRANCH  19  21
ENDBRANCH   2  19
TORSDOF 8
