REMARK  Name = ZINC66557377
REMARK  7 active torsions:
REMARK  status: ('A' for Active; 'I' for Inactive)
REMARK    1  A    between atoms: C_1  and  C_2
REMARK    2  A    between atoms: C_6  and  C_7
REMARK    3  A    between atoms: N_9  and  N_10
REMARK    4  A    between atoms: C_11  and  C_13
REMARK    5  A    between atoms: C_14  and  C_26
REMARK    6  A    between atoms: C_16  and  N_18
REMARK    7  A    between atoms: C_19  and  C_21
REMARK                            x       y       z     vdW  Elec       q    Type
REMARK                         _______ _______ _______ _____ _____    ______ ____
ROOT
ATOM      1  C   UNL     1       0.087  -1.161   7.295  0.00  0.00    +0.080 A 
ATOM      2  C   UNL     1       0.114  -1.909   8.465  0.00  0.00    -0.029 A 
ATOM      3  C   UNL     1       0.114  -1.193   9.634  0.00  0.00    +0.035 A 
ATOM      4  C   UNL     1       0.087   0.181   9.566  0.00  0.00    +0.073 A 
ATOM      5  S   UNL     1       0.071   0.508   7.918  0.00  0.00    -0.069 S 
ATOM      6  C   UNL     1       0.141  -3.415   8.450  0.00  0.00    +0.045 C 
ENDROOT
BRANCH   1   8
ATOM      7  N   UNL     1       0.058  -0.732   4.900  0.00  0.00    -0.230 N 
ATOM      8  C   UNL     1       0.080  -1.625   5.909  0.00  0.00    +0.267 C 
ATOM      9  O   UNL     1       0.094  -2.818   5.666  0.00  0.00    -0.268 OA
ATOM     10  H   UNL     1       0.047   0.219   5.094  0.00  0.00    +0.173 HD
BRANCH   7  13
ATOM     11  C   UNL     1       0.030  -0.283   2.562  0.00  0.00    +0.267 C 
ATOM     12  O   UNL     1       0.016   0.910   2.805  0.00  0.00    -0.268 OA
ATOM     13  N   UNL     1       0.052  -1.176   3.571  0.00  0.00    -0.230 N 
ATOM     14  H   UNL     1       0.063  -2.126   3.378  0.00  0.00    +0.173 HD
BRANCH  11  20
ATOM     15  C   UNL     1      -0.018   1.503   0.010  0.00  0.00    +0.045 C 
ATOM     16  C   UNL     1       0.002  -0.004   0.002  0.00  0.00    -0.031 A 
ATOM     17  C   UNL     1       0.007  -0.729  -1.166  0.00  0.00    +0.011 A 
ATOM     18  C   UNL     1       0.026  -2.083  -1.101  0.00  0.00    +0.046 A 
ATOM     19  S   UNL     1       0.038  -2.416   0.545  0.00  0.00    -0.092 S 
ATOM     20  C   UNL     1       0.023  -0.748   1.172  0.00  0.00    +0.078 A 
ENDBRANCH  11  20
ENDBRANCH   7  13
ENDBRANCH   1   8
BRANCH   4  21
ATOM     21  N   UNL     1       0.082   1.088  10.616  0.00  0.00    -0.273 N 
ATOM     22  C   UNL     1       0.055   2.412  10.364  0.00  0.00    +0.284 C 
ATOM     23  O   UNL     1       0.035   2.812   9.215  0.00  0.00    -0.266 OA
ATOM     24  H   UNL     1       0.098   0.769  11.532  0.00  0.00    +0.156 HD
BRANCH  22  25
ATOM     25  C   UNL     1       0.049   3.369  11.474  0.00  0.00    +0.189 A 
ATOM     26  C   UNL     1       0.017   4.730  11.360  0.00  0.00    +0.054 A 
ATOM     27  C   UNL     1       0.025   5.245  12.665  0.00  0.00    +0.042 A 
ATOM     28  C   UNL     1       0.060   4.190  13.509  0.00  0.00    +0.196 A 
ATOM     29  O   UNL     1       0.069   3.061  12.787  0.00  0.00    -0.458 OA
ENDBRANCH  22  25
ENDBRANCH   4  21
TORSDOF 5
