REMARK  Name = ZINC27533729
REMARK  13 active torsions:
REMARK  status: ('A' for Active; 'I' for Inactive)
REMARK    1  A    between atoms: N_9  and  C_12
REMARK    2  A    between atoms: C_12  and  C_13
REMARK    3  A    between atoms: C_13  and  C_14
REMARK    4  A    between atoms: N_16  and  C_17
REMARK    5  A    between atoms: C_17  and  C_18
REMARK    6  A    between atoms: C_18  and  C_19
REMARK    7  A    between atoms: C_19  and  C_20
REMARK    8  A    between atoms: C_20  and  C_21
REMARK    9  A    between atoms: C_21  and  C_22
REMARK   10  A    between atoms: C_22  and  N_23
REMARK   11  A    between atoms: C_24  and  C_26
REMARK   12  A    between atoms: C_26  and  C_27
REMARK   13  A    between atoms: C_27  and  N_28
REMARK                            x       y       z     vdW  Elec       q    Type
REMARK                         _______ _______ _______ _____ _____    ______ ____
ROOT
ATOM      1  C   UNL     1       3.950   7.711   0.006  0.00  0.00    +0.002 C 
ENDROOT
BRANCH   1   2
ATOM      2  C   UNL     1       3.971   6.181  -0.003  0.00  0.00    +0.019 C 
BRANCH   2   3
ATOM      3  C   UNL     1       2.535   5.652   0.008  0.00  0.00    +0.104 C 
BRANCH   3   6
ATOM      4  C   UNL     1       1.397   3.497   0.007  0.00  0.00    +0.215 C 
ATOM      5  O   UNL     1       0.339   4.089   0.021  0.00  0.00    -0.276 OA
ATOM      6  N   UNL     1       2.555   4.187   0.000  0.00  0.00    -0.315 N 
ATOM      7  H   UNL     1       3.515   3.650  -0.012  0.00  0.00    +0.149 HD
BRANCH   4   8
ATOM      8  C   UNL     1       1.418   1.990  -0.001  0.00  0.00    +0.115 C 
BRANCH   8   9
ATOM      9  C   UNL     1      -0.018   1.461   0.010  0.00  0.00    +0.126 C 
BRANCH   9  18
ATOM     10  C   UNL     1       0.069  -4.587   0.668  0.00  0.00    +0.001 A 
ATOM     11  C   UNL     1       0.055  -4.580  -0.714  0.00  0.00    +0.001 A 
ATOM     12  C   UNL     1       0.032  -3.381  -1.410  0.00  0.00    +0.014 A 
ATOM     13  C   UNL     1       0.024  -2.183  -0.715  0.00  0.00    +0.049 A 
ATOM     14  C   UNL     1       0.037  -2.191   0.695  0.00  0.00    +0.049 A 
ATOM     15  C   UNL     1       0.060  -3.396   1.377  0.00  0.00    +0.014 A 
ATOM     16  C   UNL     1       0.023  -0.771   1.107  0.00  0.00    +0.254 C 
ATOM     17  O   UNL     1       0.029  -0.365   2.252  0.00  0.00    -0.270 OA
ATOM     18  N   UNL     1       0.002  -0.004   0.002  0.00  0.00    -0.234 N 
ATOM     19  C   UNL     1      -0.004  -0.759  -1.111  0.00  0.00    +0.254 C 
ATOM     20  O   UNL     1      -0.026  -0.341  -2.251  0.00  0.00    -0.270 OA
ENDBRANCH   9  18
ENDBRANCH   8   9
ENDBRANCH   4   8
ENDBRANCH   3   6
ENDBRANCH   2   3
ENDBRANCH   1   2
BRANCH   1  21
ATOM     21  C   UNL     1       5.385   8.241  -0.005  0.00  0.00    +0.002 C 
BRANCH  21  22
ATOM     22  C   UNL     1       5.364   9.771   0.003  0.00  0.00    +0.019 C 
BRANCH  22  23
ATOM     23  C   UNL     1       6.800  10.300  -0.008  0.00  0.00    +0.104 C 
BRANCH  23  24
ATOM     24  N   UNL     1       6.780  11.765   0.001  0.00  0.00    -0.315 N 
ATOM     25  C   UNL     1       7.938  12.455  -0.007  0.00  0.00    +0.215 C 
ATOM     26  O   UNL     1       8.996  11.863  -0.020  0.00  0.00    -0.276 OA
ATOM     27  H   UNL     1       5.820  12.302   0.013  0.00  0.00    +0.149 HD
BRANCH  25  28
ATOM     28  C   UNL     1       7.917  13.961   0.001  0.00  0.00    +0.115 C 
BRANCH  28  29
ATOM     29  C   UNL     1       9.353  14.491  -0.009  0.00  0.00    +0.126 C 
BRANCH  29  30
ATOM     30  N   UNL     1       9.333  15.956  -0.001  0.00  0.00    -0.234 N 
ATOM     31  C   UNL     1       9.318  16.723  -1.106  0.00  0.00    +0.254 C 
ATOM     32  O   UNL     1       9.318  16.317  -2.251  0.00  0.00    -0.270 OA
ATOM     33  C   UNL     1       9.298  18.142  -0.694  0.00  0.00    +0.049 A 
ATOM     34  C   UNL     1       9.276  19.348  -1.377  0.00  0.00    +0.014 A 
ATOM     35  C   UNL     1       9.267  20.539  -0.667  0.00  0.00    +0.001 A 
ATOM     36  C   UNL     1       9.280  20.532   0.715  0.00  0.00    +0.001 A 
ATOM     37  C   UNL     1       9.302  19.333   1.411  0.00  0.00    +0.014 A 
ATOM     38  C   UNL     1       9.311  18.135   0.715  0.00  0.00    +0.049 A 
ATOM     39  C   UNL     1       9.333  16.711   1.112  0.00  0.00    +0.254 C 
ATOM     40  O   UNL     1       9.349  16.293   2.252  0.00  0.00    -0.270 OA
ENDBRANCH  29  30
ENDBRANCH  28  29
ENDBRANCH  25  28
ENDBRANCH  23  24
ENDBRANCH  22  23
ENDBRANCH  21  22
ENDBRANCH   1  21
TORSDOF 13
