REMARK  Name = ZINC13401035
REMARK  9 active torsions:
REMARK  status: ('A' for Active; 'I' for Inactive)
REMARK    1  A    between atoms: C_1  and  C_2
REMARK    2  A    between atoms: C_4  and  C_16
REMARK    3  A    between atoms: C_12  and  C_13
REMARK    4  A    between atoms: C_16  and  S_17
REMARK    5  A    between atoms: S_17  and  C_18
REMARK    6  A    between atoms: N_22  and  C_23
REMARK    7  A    between atoms: C_26  and  C_29
REMARK    8  A    between atoms: C_29  and  C_30
REMARK    9  A    between atoms: C_29  and  C_31
REMARK                            x       y       z     vdW  Elec       q    Type
REMARK                         _______ _______ _______ _____ _____    ______ ____
ROOT
ATOM      1  C   UNL     1      -0.270   1.274  -2.754  0.00  0.00    +0.113 C 
ENDROOT
BRANCH   1   5
ATOM      2  C   UNL     1       0.677   1.499  -0.145  0.00  0.00    +0.046 C 
ATOM      3  C   UNL     1       0.638  -0.008  -0.140  0.00  0.00    -0.020 A 
ATOM      4  C   UNL     1       0.212  -0.733  -1.264  0.00  0.00    +0.014 A 
ATOM      5  C   UNL     1      -0.228  -0.215  -2.524  0.00  0.00    -0.022 A 
ATOM      6  C   UNL     1      -0.607  -1.061  -3.509  0.00  0.00    +0.075 A 
ATOM      7  C   UNL     1      -0.574  -2.454  -3.312  0.00  0.00    +0.250 A 
ATOM      8  O   UNL     1      -0.919  -3.206  -4.209  0.00  0.00    -0.268 OA
ATOM      9  N   UNL     1      -0.162  -2.957  -2.132  0.00  0.00    -0.317 N 
ATOM     10  H   UNL     1      -0.141  -3.917  -1.999  0.00  0.00    +0.169 HD
ATOM     11  C   UNL     1       0.224  -2.130  -1.126  0.00  0.00    +0.089 A 
ATOM     12  S   UNL     1       0.777  -2.410   0.428  0.00  0.00    -0.064 S 
ATOM     13  C   UNL     1       1.020  -0.727   0.957  0.00  0.00    +0.106 A 
BRANCH  13  14
ATOM     14  C   UNL     1       1.492  -0.251   2.207  0.00  0.00    +0.393 C 
ATOM     15  O   UNL     1       1.597   0.954   2.403  0.00  0.00    -0.240 OA
ATOM     16  O   UNL     1       1.794  -1.044   3.090  0.00  0.00    -0.240 OA
ENDBRANCH  13  14
ENDBRANCH   1   5
BRANCH   1  17
ATOM     17  S   UNL     1      -1.835   1.939  -2.123  0.00  0.00    -0.080 S 
BRANCH  17  18
ATOM     18  C   UNL     1      -1.732   3.666  -2.460  0.00  0.00    +0.214 A 
ATOM     19  N   UNL     1      -0.733   4.290  -3.045  0.00  0.00    -0.101 NA
ATOM     20  N   UNL     1      -0.979   5.546  -3.137  0.00  0.00    -0.022 NA
ATOM     21  N   UNL     1      -2.132   5.817  -2.628  0.00  0.00    -0.038 NA
ATOM     22  N   UNL     1      -2.671   4.602  -2.172  0.00  0.00    -0.187 N 
BRANCH  22  23
ATOM     23  C   UNL     1      -3.912   4.400  -1.550  0.00  0.00    +0.070 A 
ATOM     24  C   UNL     1      -4.625   3.232  -1.782  0.00  0.00    +0.028 A 
ATOM     25  C   UNL     1      -5.846   3.036  -1.167  0.00  0.00    +0.006 A 
ATOM     26  C   UNL     1      -6.359   4.003  -0.322  0.00  0.00    -0.045 A 
ATOM     27  C   UNL     1      -5.651   5.167  -0.088  0.00  0.00    +0.006 A 
ATOM     28  C   UNL     1      -4.426   5.366  -0.696  0.00  0.00    +0.028 A 
BRANCH  26  29
ATOM     29  C   UNL     1      -7.692   3.787   0.346  0.00  0.00    +0.013 C 
ATOM     30  C   UNL     1      -7.512   3.812   1.865  0.00  0.00    +0.012 C 
ATOM     31  C   UNL     1      -8.658   4.898  -0.071  0.00  0.00    +0.012 C 
ENDBRANCH  26  29
ENDBRANCH  22  23
ENDBRANCH  17  18
ENDBRANCH   1  17
TORSDOF 6
