REMARK  Name = ZINC60512010
REMARK  10 active torsions:
REMARK  status: ('A' for Active; 'I' for Inactive)
REMARK    1  A    between atoms: C_1  and  C_2
REMARK    2  A    between atoms: C_2  and  O_3
REMARK    3  A    between atoms: O_3  and  C_4
REMARK    4  A    between atoms: N_6  and  C_7
REMARK    5  A    between atoms: C_11  and  N_14
REMARK    6  A    between atoms: C_12  and  C_13
REMARK    7  A    between atoms: N_14  and  C_15
REMARK    8  A    between atoms: C_15  and  C_16
REMARK    9  A    between atoms: C_15  and  C_17
REMARK   10  A    between atoms: N_19  and  C_20
REMARK                            x       y       z     vdW  Elec       q    Type
REMARK                         _______ _______ _______ _____ _____    ______ ____
ROOT
ATOM      1  N   UNL     1       3.162  -6.184  -4.673  0.00  0.00    -0.333 N 
ATOM      2  H   UNL     1       3.552  -5.614  -5.354  0.00  0.00    +0.147 HD
ENDROOT
BRANCH   1   7
ATOM      3  C   UNL     1       1.559  -3.686  -2.499  0.00  0.00    +0.041 A 
ATOM      4  C   UNL     1       1.003  -4.507  -1.526  0.00  0.00    +0.024 A 
ATOM      5  C   UNL     1       1.164  -5.877  -1.601  0.00  0.00    +0.004 A 
ATOM      6  C   UNL     1       1.879  -6.435  -2.644  0.00  0.00    +0.023 A 
ATOM      7  C   UNL     1       2.438  -5.620  -3.620  0.00  0.00    +0.032 A 
ATOM      8  C   UNL     1       2.273  -4.243  -3.550  0.00  0.00    -0.008 A 
ATOM      9  C   UNL     1       2.872  -3.356  -4.610  0.00  0.00    +0.047 C 
BRANCH   3  12
ATOM     10  C   UNL     1       0.343  -1.780  -1.758  0.00  0.00    +0.405 C 
ATOM     11  O   UNL     1      -0.518  -2.515  -1.315  0.00  0.00    -0.226 OA
ATOM     12  N   UNL     1       1.395  -2.298  -2.422  0.00  0.00    -0.251 N 
ATOM     13  H   UNL     1       2.039  -1.710  -2.846  0.00  0.00    +0.158 HD
BRANCH  10  14
ATOM     14  O   UNL     1       0.244  -0.448  -1.587  0.00  0.00    -0.450 OA
BRANCH  14  16
ATOM     15  C   UNL     1      -0.836   1.557  -0.780  0.00  0.00    +0.048 C 
ATOM     16  C   UNL     1      -0.897   0.032  -0.874  0.00  0.00    +0.230 C 
ENDBRANCH  14  16
ENDBRANCH  10  14
ENDBRANCH   3  12
ENDBRANCH   1   7
BRANCH   1  17
ATOM     17  C   UNL     1       3.331  -7.638  -4.749  0.00  0.00    +0.154 C 
ATOM     18  C   UNL     1       2.117  -8.257  -5.444  0.00  0.00    +0.038 C 
BRANCH  17  19
ATOM     19  C   UNL     1       4.577  -7.958  -5.534  0.00  0.00    +0.233 C 
ATOM     20  O   UNL     1       5.257  -7.061  -5.985  0.00  0.00    -0.274 OA
ATOM     21  N   UNL     1       4.936  -9.241  -5.734  0.00  0.00    -0.307 N 
ATOM     22  H   UNL     1       4.393  -9.959  -5.373  0.00  0.00    +0.149 HD
BRANCH  21  23
ATOM     23  C   UNL     1       6.147  -9.553  -6.497  0.00  0.00    +0.110 C 
ATOM     24  C   UNL     1       6.677 -10.925  -6.074  0.00  0.00    +0.068 C 
ATOM     25  C   UNL     1       7.754 -11.356  -7.078  0.00  0.00    +0.231 C 
ATOM     26  O   UNL     1       7.135 -11.533  -8.354  0.00  0.00    -0.492 OA
ATOM     27  C   UNL     1       6.330 -10.539  -8.811  0.00  0.00    +0.125 A 
ATOM     28  C   UNL     1       5.824  -9.564  -7.969  0.00  0.00    +0.014 A 
ATOM     29  C   UNL     1       5.002  -8.573  -8.479  0.00  0.00    +0.009 A 
ATOM     30  C   UNL     1       4.688  -8.551  -9.824  0.00  0.00    +0.001 A 
ATOM     31  C   UNL     1       5.194  -9.522 -10.668  0.00  0.00    +0.004 A 
ATOM     32  C   UNL     1       6.012 -10.513 -10.165  0.00  0.00    +0.046 A 
ENDBRANCH  21  23
ENDBRANCH  17  19
ENDBRANCH   1  17
TORSDOF 7
