REMARK  Name = ZINC12973815
REMARK  8 active torsions:
REMARK  status: ('A' for Active; 'I' for Inactive)
REMARK    1  A    between atoms: C_4  and  C_7
REMARK    2  A    between atoms: C_7  and  C_9
REMARK    3  A    between atoms: C_7  and  N_14
REMARK    4  A    between atoms: C_15  and  C_17
REMARK    5  A    between atoms: C_17  and  N_18
REMARK    6  A    between atoms: N_21  and  S_24
REMARK    7  A    between atoms: S_24  and  C_27
REMARK    8  A    between atoms: C_30  and  C_33
REMARK                            x       y       z     vdW  Elec       q    Type
REMARK                         _______ _______ _______ _____ _____    ______ ____
ROOT
ATOM      1  N   UNL     1       6.016  -3.945   2.759  0.00  0.00    -0.291 NA
ATOM      2  C   UNL     1       6.850  -4.402   1.640  0.00  0.00    +0.102 C 
ATOM      3  C   UNL     1       8.290  -4.594   2.125  0.00  0.00    +0.125 C 
ATOM      4  N   UNL     1       8.274  -5.487   3.294  0.00  0.00    -0.174 NA
ATOM      5  C   UNL     1       7.360  -5.168   4.401  0.00  0.00    +0.125 C 
ATOM      6  C   UNL     1       5.956  -4.953   3.826  0.00  0.00    +0.102 C 
ENDROOT
BRANCH   4   7
ATOM      7  S   UNL     1       9.260  -6.816   3.363  0.00  0.00    +0.061 S 
ATOM      8  O   UNL     1       8.650  -7.728   4.264  0.00  0.00    -0.153 OA
ATOM      9  O   UNL     1       9.568  -7.162   2.019  0.00  0.00    -0.153 OA
BRANCH   7  10
ATOM     10  C   UNL     1      10.772  -6.305   4.110  0.00  0.00    +0.106 A 
ATOM     11  C   UNL     1      11.803  -5.827   3.321  0.00  0.00    +0.029 A 
ATOM     12  C   UNL     1      12.989  -5.425   3.900  0.00  0.00    +0.015 A 
ATOM     13  C   UNL     1      13.148  -5.502   5.284  0.00  0.00    +0.037 A 
ATOM     14  C   UNL     1      12.104  -5.984   6.074  0.00  0.00    +0.015 A 
ATOM     15  C   UNL     1      10.920  -6.378   5.484  0.00  0.00    +0.029 A 
BRANCH  13  16
ATOM     16  C   UNL     1      14.416  -5.073   5.911  0.00  0.00    +0.242 C 
ATOM     17  O   UNL     1      15.324  -4.654   5.221  0.00  0.00    -0.270 OA
ATOM     18  N   UNL     1      14.566  -5.148   7.249  0.00  0.00    -0.325 N 
ATOM     19  H   UNL     1      13.842  -5.483   7.800  0.00  0.00    +0.145 HD
ATOM     20  H   UNL     1      15.398  -4.867   7.660  0.00  0.00    +0.145 HD
ENDBRANCH  13  16
ENDBRANCH   7  10
ENDBRANCH   4   7
BRANCH   1  21
ATOM     21  C   UNL     1       4.668  -3.585   2.299  0.00  0.00    +0.180 C 
BRANCH  21  23
ATOM     22  N   UNL     1       3.630  -1.873   0.845  0.00  0.00    -0.303 N 
ATOM     23  C   UNL     1       4.751  -2.385   1.391  0.00  0.00    +0.228 C 
ATOM     24  O   UNL     1       5.828  -1.880   1.151  0.00  0.00    -0.274 OA
ATOM     25  H   UNL     1       2.769  -2.277   1.038  0.00  0.00    +0.150 HD
BRANCH  22  26
ATOM     26  C   UNL     1       3.711  -0.707  -0.038  0.00  0.00    +0.140 C 
BRANCH  26  30
ATOM     27  C   UNL     1      -0.017   1.378   0.010  0.00  0.00    +0.000 A 
ATOM     28  C   UNL     1       1.171   2.086   0.002  0.00  0.00    +0.000 A 
ATOM     29  C   UNL     1       2.377   1.411  -0.013  0.00  0.00    +0.006 A 
ATOM     30  C   UNL     1       2.396   0.029  -0.020  0.00  0.00    -0.022 A 
ATOM     31  C   UNL     1       1.208  -0.679  -0.012  0.00  0.00    +0.006 A 
ATOM     32  C   UNL     1       0.002  -0.004   0.002  0.00  0.00    +0.000 A 
ENDBRANCH  26  30
BRANCH  26  33
ATOM     33  C   UNL     1       4.014  -1.161  -1.442  0.00  0.00    +0.014 A 
ATOM     34  C   UNL     1       4.843  -0.604  -2.359  0.00  0.00    +0.013 A 
ATOM     35  C   UNL     1       4.968  -1.200  -3.600  0.00  0.00    +0.008 A 
ATOM     36  C   UNL     1       4.257  -2.324  -3.864  0.00  0.00    +0.045 A 
ATOM     37  S   UNL     1       3.381  -2.575  -2.328  0.00  0.00    -0.099 S 
ENDBRANCH  26  33
ENDBRANCH  22  26
ENDBRANCH  21  23
ENDBRANCH   1  21
TORSDOF 8
