REMARK  Name = ZINC10750789
REMARK  7 active torsions:
REMARK  status: ('A' for Active; 'I' for Inactive)
REMARK    1  A    between atoms: C_1  and  C_2
REMARK    2  A    between atoms: N_11  and  C_15
REMARK    3  A    between atoms: C_15  and  C_16
REMARK    4  A    between atoms: C_16  and  O_18
REMARK    5  A    between atoms: O_18  and  C_19
REMARK    6  A    between atoms: C_19  and  C_20
REMARK    7  A    between atoms: C_23  and  C_25
REMARK                            x       y       z     vdW  Elec       q    Type
REMARK                         _______ _______ _______ _____ _____    ______ ____
ROOT
ATOM      1  C   UNL     1      -2.969   0.347   5.573  0.00  0.00    +0.326 C 
ATOM      2  O   UNL     1      -1.783   0.378   5.344  0.00  0.00    -0.249 OA
ENDROOT
BRANCH   1   3
ATOM      3  C   UNL     1      -3.956   0.343   4.435  0.00  0.00    +0.238 C 
BRANCH   3  13
ATOM      4  C   UNL     1      -0.002   1.056   2.507  0.00  0.00    +0.010 C 
ATOM      5  C   UNL     1      -0.730   1.580   1.267  0.00  0.00    +0.018 C 
ATOM      6  C   UNL     1      -0.013   1.086   0.008  0.00  0.00    +0.006 C 
ATOM      7  C   UNL     1      -0.753   1.593  -1.231  0.00  0.00    +0.000 C 
ATOM      8  C   UNL     1      -2.186   1.056  -1.227  0.00  0.00    +0.003 C 
ATOM      9  C   UNL     1      -2.911   1.550   0.027  0.00  0.00    +0.035 C 
ATOM     10  C   UNL     1      -2.167   1.069   1.268  0.00  0.00    +0.115 C 
ATOM     11  C   UNL     1      -2.885   1.517   2.521  0.00  0.00    +0.247 C 
ATOM     12  O   UNL     1      -3.102   2.655   2.875  0.00  0.00    -0.273 OA
ATOM     13  N   UNL     1      -3.233   0.381   3.161  0.00  0.00    -0.213 N 
ATOM     14  C   UNL     1      -2.836  -0.706   2.489  0.00  0.00    +0.310 C 
ATOM     15  O   UNL     1      -3.035  -1.844   2.866  0.00  0.00    -0.252 OA
ATOM     16  N   UNL     1      -2.191  -0.397   1.347  0.00  0.00    -0.285 N 
ATOM     17  H   UNL     1      -1.817  -1.020   0.705  0.00  0.00    +0.151 HD
ENDBRANCH   3  13
ENDBRANCH   1   3
BRANCH   1  18
ATOM     18  O   UNL     1      -3.407   0.315   6.841  0.00  0.00    -0.457 OA
BRANCH  18  19
ATOM     19  C   UNL     1      -2.399   0.321   7.887  0.00  0.00    +0.288 C 
BRANCH  19  20
ATOM     20  C   UNL     1      -3.073   0.283   9.234  0.00  0.00    +0.086 A 
ATOM     21  C   UNL     1      -4.430   0.255   9.316  0.00  0.00    +0.074 A 
ATOM     22  S   UNL     1      -4.652   0.215  11.091  0.00  0.00    -0.075 S 
ATOM     23  C   UNL     1      -2.919   0.248  11.528  0.00  0.00    +0.109 A 
ATOM     24  N   UNL     1      -2.352   0.281  10.331  0.00  0.00    -0.241 NA
BRANCH  23  25
ATOM     25  C   UNL     1      -2.289   0.241  12.866  0.00  0.00    +0.007 A 
ATOM     26  C   UNL     1      -0.898   0.266  12.985  0.00  0.00    +0.012 A 
ATOM     27  C   UNL     1      -0.316   0.264  14.235  0.00  0.00    +0.020 A 
ATOM     28  C   UNL     1      -1.108   0.227  15.370  0.00  0.00    +0.041 A 
ATOM     29  C   UNL     1      -2.488   0.196  15.258  0.00  0.00    +0.020 A 
ATOM     30  C   UNL     1      -3.082   0.203  14.013  0.00  0.00    +0.012 A 
ATOM     31 CL   UNL     1      -0.367   0.217  16.941  0.00  0.00    -0.084 Cl
ENDBRANCH  23  25
ENDBRANCH  19  20
ENDBRANCH  18  19
ENDBRANCH   1  18
TORSDOF 6
