REMARK  Name = ZINC61339778
REMARK  5 active torsions:
REMARK  status: ('A' for Active; 'I' for Inactive)
REMARK    1  A    between atoms: C_3  and  O_10
REMARK    2  A    between atoms: C_6  and  N_7
REMARK    3  A    between atoms: O_10  and  C_11
REMARK    4  A    between atoms: C_11  and  C_12
REMARK    5  A    between atoms: C_17  and  C_20
REMARK                            x       y       z     vdW  Elec       q    Type
REMARK                         _______ _______ _______ _____ _____    ______ ____
ROOT
ATOM      1  C   UNL     1       5.940   2.274  -0.043  0.00  0.00    +0.256 C 
ATOM      2  O   UNL     1       5.766   3.474  -0.036  0.00  0.00    -0.272 OA
ATOM      3  N   UNL     1       7.192   1.774  -0.058  0.00  0.00    -0.262 N 
ATOM      4  C   UNL     1       8.283   2.635  -0.065  0.00  0.00    +0.165 A 
ATOM      5  N   UNL     1       9.571   2.349  -0.084  0.00  0.00    -0.225 NA
ATOM      6  C   UNL     1      10.488   3.305  -0.088  0.00  0.00    +0.080 A 
ATOM      7  C   UNL     1      10.092   4.614  -0.071  0.00  0.00    +0.076 A 
ATOM      8  S   UNL     1       8.314   4.422  -0.056  0.00  0.00    -0.060 S 
ATOM      9  H   UNL     1       7.331   0.814  -0.064  0.00  0.00    +0.157 HD
ENDROOT
BRANCH   6  10
ATOM     10  C   UNL     1      11.930   2.960  -0.109  0.00  0.00    +0.001 A 
ATOM     11  C   UNL     1      12.891   3.970  -0.107  0.00  0.00    +0.010 A 
ATOM     12  C   UNL     1      14.232   3.644  -0.127  0.00  0.00    +0.007 A 
ATOM     13  C   UNL     1      14.622   2.319  -0.149  0.00  0.00    -0.017 A 
ATOM     14  C   UNL     1      13.670   1.310  -0.152  0.00  0.00    -0.016 A 
ATOM     15  C   UNL     1      12.329   1.624  -0.126  0.00  0.00    +0.016 A 
ATOM     16  C   UNL     1      14.412  -0.006  -0.178  0.00  0.00    +0.195 C 
ATOM     17  O   UNL     1      15.750   0.302  -0.610  0.00  0.00    -0.371 OA
ATOM     18  C   UNL     1      15.979   1.654  -0.173  0.00  0.00    +0.195 C 
ENDBRANCH   6  10
BRANCH   1  19
ATOM     19  C   UNL     1       4.756   1.341  -0.037  0.00  0.00    +0.324 C 
BRANCH  19  20
ATOM     20  O   UNL     1       3.548   2.104  -0.021  0.00  0.00    -0.483 OA
BRANCH  20  23
ATOM     21  C   UNL     1      -0.017   1.378   0.010  0.00  0.00    +0.036 A 
ATOM     22  C   UNL     1       1.169   2.087   0.002  0.00  0.00    +0.048 A 
ATOM     23  C   UNL     1       2.380   1.409  -0.013  0.00  0.00    +0.121 A 
ATOM     24  C   UNL     1       2.396   0.022  -0.021  0.00  0.00    +0.048 A 
ATOM     25  C   UNL     1       1.207  -0.681  -0.013  0.00  0.00    +0.036 A 
ATOM     26  C   UNL     1       0.002  -0.004   0.002  0.00  0.00    +0.126 A 
BRANCH  26  27
ATOM     27  N   UNL     1      -1.270  -0.760   0.011  0.00  0.00    +0.056 N 
ATOM     28  O   UNL     1      -2.325  -0.169   0.024  0.00  0.00    -0.126 OA
ATOM     29  O   UNL     1      -1.255  -1.969   0.004  0.00  0.00    -0.126 OA
ENDBRANCH  26  27
ENDBRANCH  20  23
ENDBRANCH  19  20
ENDBRANCH   1  19
TORSDOF 5
