REMARK  Name = ZINC39673573
REMARK  9 active torsions:
REMARK  status: ('A' for Active; 'I' for Inactive)
REMARK    1  A    between atoms: C_1  and  C_2
REMARK    2  A    between atoms: C_2  and  C_3
REMARK    3  A    between atoms: C_3  and  C_4
REMARK    4  A    between atoms: C_4  and  C_6
REMARK    5  A    between atoms: C_4  and  N_7
REMARK    6  A    between atoms: C_8  and  C_10
REMARK    7  A    between atoms: C_21  and  C_23
REMARK    8  A    between atoms: C_26  and  O_29
REMARK    9  A    between atoms: O_29  and  C_30
REMARK                            x       y       z     vdW  Elec       q    Type
REMARK                         _______ _______ _______ _____ _____    ______ ____
ROOT
ATOM      1  C   UNL     1      -3.013  -4.277  -1.170  0.00  0.00    +0.100 C 
ATOM      2  C   UNL     1      -3.114  -4.274  -2.712  0.00  0.00    +0.121 C 
ATOM      3  N   UNL     1      -2.769  -5.659  -3.112  0.00  0.00    -0.296 N 
ATOM      4  C   UNL     1      -3.416  -6.511  -2.086  0.00  0.00    +0.115 C 
ATOM      5  C   UNL     1      -3.215  -5.746  -0.763  0.00  0.00    -0.004 C 
ATOM      6  C   UNL     1      -4.452  -5.885   0.120  0.00  0.00    -0.010 C 
ATOM      7  C   UNL     1      -4.598  -7.344   0.559  0.00  0.00    -0.082 C 
ATOM      8  N   UNL     1      -3.398  -7.759   1.295  0.00  0.00    +0.379 N 
ATOM      9  C   UNL     1      -2.227  -7.711   0.411  0.00  0.00    -0.082 C 
ATOM     10  C   UNL     1      -1.980  -6.267  -0.035  0.00  0.00    -0.010 C 
ATOM     11  C   UNL     1      -2.032  -6.053  -4.169  0.00  0.00    +0.247 C 
ATOM     12  O   UNL     1      -1.461  -5.227  -4.854  0.00  0.00    -0.270 OA
ATOM     13  H   UNL     1      -3.253  -7.137   2.077  0.00  0.00    -0.086 HD
ATOM     14  H   UNL     1      -3.522  -8.700   1.636  0.00  0.00    -0.086 HD
ENDROOT
BRANCH  11  15
ATOM     15  C   UNL     1      -1.920  -7.488  -4.496  0.00  0.00    +0.037 A 
ATOM     16  C   UNL     1      -2.879  -8.390  -4.028  0.00  0.00    +0.016 A 
ATOM     17  C   UNL     1      -2.771  -9.728  -4.336  0.00  0.00    +0.047 A 
ATOM     18  C   UNL     1      -1.710 -10.182  -5.110  0.00  0.00    +0.130 A 
ATOM     19  C   UNL     1      -0.754  -9.288  -5.578  0.00  0.00    +0.047 A 
ATOM     20  C   UNL     1      -0.858  -7.947  -5.279  0.00  0.00    +0.016 A 
BRANCH  18  21
ATOM     21  O   UNL     1      -1.606 -11.501  -5.410  0.00  0.00    -0.406 OA
BRANCH  21  22
ATOM     22  C   UNL     1      -0.491 -11.899  -6.210  0.00  0.00    +0.575 C 
ATOM     23  F   UNL     1       0.697 -11.569  -5.550  0.00  0.00    -0.133 F 
ATOM     24  F   UNL     1      -0.539 -13.281  -6.423  0.00  0.00    -0.133 F 
ATOM     25  F   UNL     1      -0.540 -11.236  -7.441  0.00  0.00    -0.133 F 
ENDBRANCH  21  22
ENDBRANCH  18  21
ENDBRANCH  11  15
BRANCH   1  27
ATOM     26  N   UNL     1      -1.494  -3.247   0.489  0.00  0.00    -0.312 N 
ATOM     27  C   UNL     1      -1.654  -3.793  -0.733  0.00  0.00    +0.218 C 
ATOM     28  O   UNL     1      -0.705  -3.896  -1.480  0.00  0.00    -0.275 OA
ATOM     29  H   UNL     1      -2.254  -3.164   1.087  0.00  0.00    +0.149 HD
BRANCH  26  30
ATOM     30  C   UNL     1      -0.174  -2.777   0.914  0.00  0.00    +0.070 C 
ATOM     31  C   UNL     1       0.047  -1.350   0.408  0.00  0.00    +0.028 C 
BRANCH  30  32
ATOM     32  C   UNL     1      -0.094  -2.794   2.442  0.00  0.00    +0.022 C 
BRANCH  32  34
ATOM     33  C   UNL     1      -0.110  -4.254   4.469  0.00  0.00    +0.004 C 
ATOM     34  C   UNL     1      -0.190  -4.237   2.941  0.00  0.00    -0.002 C 
ENDBRANCH  32  34
ENDBRANCH  30  32
ENDBRANCH  26  30
ENDBRANCH   1  27
TORSDOF 7
