REMARK  Name = ZINC39580572
REMARK  9 active torsions:
REMARK  status: ('A' for Active; 'I' for Inactive)
REMARK    1  A    between atoms: C_1  and  C_2
REMARK    2  A    between atoms: C_2  and  C_4
REMARK    3  A    between atoms: C_2  and  O_16
REMARK    4  A    between atoms: N_9  and  C_10
REMARK    5  A    between atoms: O_16  and  C_17
REMARK    6  A    between atoms: C_17  and  C_19
REMARK    7  A    between atoms: C_21  and  S_26
REMARK    8  A    between atoms: S_26  and  N_29
REMARK    9  A    between atoms: N_29  and  C_30
REMARK                            x       y       z     vdW  Elec       q    Type
REMARK                         _______ _______ _______ _____ _____    ______ ____
ROOT
ATOM      1  C   UNL     1      -0.019   1.526   0.010  0.00  0.00    +0.062 C 
ATOM      2  C   UNL     1       0.002  -0.004   0.002  0.00  0.00    +0.259 C 
ENDROOT
BRANCH   2   3
ATOM      3  C   UNL     1       0.731  -0.503   1.223  0.00  0.00    +0.261 C 
ATOM      4  O   UNL     1       1.774  -1.109   1.101  0.00  0.00    -0.271 OA
ATOM      5  N   UNL     1       0.223  -0.277   2.451  0.00  0.00    -0.237 N 
ATOM      6  C   UNL     1       0.875  -0.723   3.542  0.00  0.00    +0.306 C 
ATOM      7  O   UNL     1       1.921  -1.330   3.420  0.00  0.00    -0.252 OA
ATOM      8  N   UNL     1       0.367  -0.496   4.770  0.00  0.00    -0.296 N 
ATOM      9  H   UNL     1      -0.611   0.208   2.548  0.00  0.00    +0.159 HD
ATOM     10  H   UNL     1      -0.467  -0.011   4.868  0.00  0.00    +0.151 HD
BRANCH   8  11
ATOM     11  C   UNL     1       1.076  -0.981   5.957  0.00  0.00    +0.074 C 
ATOM     12  C   UNL     1       2.139   0.039   6.369  0.00  0.00    +0.022 C 
ATOM     13  C   UNL     1       2.879  -0.468   7.608  0.00  0.00    +0.002 C 
ATOM     14  C   UNL     1       1.884  -0.658   8.755  0.00  0.00    +0.000 C 
ATOM     15  C   UNL     1       0.820  -1.678   8.343  0.00  0.00    +0.002 C 
ATOM     16  C   UNL     1       0.080  -1.171   7.103  0.00  0.00    +0.022 C 
ENDBRANCH   8  11
ENDBRANCH   2   3
BRANCH   2  17
ATOM     17  O   UNL     1       0.671  -0.465  -1.174  0.00  0.00    -0.449 OA
BRANCH  17  18
ATOM     18  C   UNL     1      -0.088  -0.673  -2.267  0.00  0.00    +0.343 C 
ATOM     19  O   UNL     1      -1.285  -0.469  -2.224  0.00  0.00    -0.245 OA
BRANCH  18  20
ATOM     20  C   UNL     1       0.534  -1.149  -3.518  0.00  0.00    +0.096 A 
ATOM     21  C   UNL     1       1.910  -1.391  -3.570  0.00  0.00    +0.046 A 
ATOM     22  C   UNL     1       2.485  -1.835  -4.741  0.00  0.00    +0.106 A 
ATOM     23  C   UNL     1       1.704  -2.044  -5.865  0.00  0.00    +0.031 A 
ATOM     24  C   UNL     1       0.343  -1.808  -5.824  0.00  0.00    +0.041 A 
ATOM     25  C   UNL     1      -0.250  -1.366  -4.655  0.00  0.00    +0.137 A 
ATOM     26  F   UNL     1      -1.581  -1.141  -4.614  0.00  0.00    -0.205 F 
BRANCH  22  27
ATOM     27  S   UNL     1       4.219  -2.139  -4.807  0.00  0.00    +0.058 S 
ATOM     28  O   UNL     1       4.599  -2.028  -6.172  0.00  0.00    -0.153 OA
ATOM     29  O   UNL     1       4.809  -1.348  -3.785  0.00  0.00    -0.153 OA
BRANCH  27  30
ATOM     30  N   UNL     1       4.456  -3.721  -4.377  0.00  0.00    -0.193 NA
ATOM     31  C   UNL     1       3.934  -4.796  -5.225  0.00  0.00    +0.127 C 
ATOM     32  H   UNL     1       4.939  -3.936  -3.564  0.00  0.00    +0.148 HD
ENDBRANCH  27  30
ENDBRANCH  22  27
ENDBRANCH  18  20
ENDBRANCH  17  18
ENDBRANCH   2  17
TORSDOF 7
