REMARK  Name = ZINC15906764
REMARK  8 active torsions:
REMARK  status: ('A' for Active; 'I' for Inactive)
REMARK    1  A    between atoms: C_3  and  C_7
REMARK    2  A    between atoms: C_7  and  C_9
REMARK    3  A    between atoms: C_11  and  C_23
REMARK    4  A    between atoms: C_17  and  C_18
REMARK    5  A    between atoms: C_17  and  O_22
REMARK    6  A    between atoms: C_25  and  N_33
REMARK    7  A    between atoms: C_28  and  O_29
REMARK    8  A    between atoms: O_29  and  C_30
REMARK                            x       y       z     vdW  Elec       q    Type
REMARK                         _______ _______ _______ _____ _____    ______ ____
ROOT
ATOM      1  C   UNL     1      -1.849  -0.818  -1.392  0.00  0.00    +0.144 C 
ATOM      2  C   UNL     1      -1.117  -0.763  -0.047  0.00  0.00    +0.124 C 
ATOM      3  N   UNL     1      -0.855  -2.128   0.415  0.00  0.00    -0.292 N 
ATOM      4  C   UNL     1      -1.663  -3.145   0.077  0.00  0.00    +0.302 C 
ATOM      5  O   UNL     1      -1.406  -4.258   0.494  0.00  0.00    -0.253 OA
ATOM      6  N   UNL     1      -2.743  -2.983  -0.702  0.00  0.00    -0.264 N 
ATOM      7  C   UNL     1      -3.114  -1.667  -1.226  0.00  0.00    +0.243 C 
ATOM      8  H   UNL     1      -0.082  -2.300   0.975  0.00  0.00    +0.151 HD
ATOM      9  H   UNL     1      -3.290  -3.753  -0.922  0.00  0.00    +0.153 HD
ENDROOT
BRANCH   2  10
ATOM     10  C   UNL     1       0.188  -0.028  -0.213  0.00  0.00    +0.018 A 
ATOM     11  C   UNL     1       1.340  -0.726  -0.520  0.00  0.00    +0.041 A 
ATOM     12  C   UNL     1       2.538  -0.053  -0.672  0.00  0.00    +0.127 A 
ATOM     13  C   UNL     1       2.586   1.321  -0.517  0.00  0.00    +0.036 A 
ATOM     14  C   UNL     1       1.437   2.023  -0.210  0.00  0.00    +0.048 A 
ATOM     15  C   UNL     1       0.234   1.349  -0.057  0.00  0.00    +0.132 A 
BRANCH  12  16
ATOM     16  N   UNL     1       3.771  -0.803  -1.001  0.00  0.00    +0.056 N 
ATOM     17  O   UNL     1       3.729  -2.012  -1.138  0.00  0.00    -0.126 OA
ATOM     18  O   UNL     1       4.826  -0.210  -1.136  0.00  0.00    -0.126 OA
ENDBRANCH  12  16
BRANCH  15  19
ATOM     19  O   UNL     1      -0.899   2.038   0.240  0.00  0.00    -0.434 OA
BRANCH  19  20
ATOM     20  C   UNL     1      -0.778   3.455   0.386  0.00  0.00    +0.541 C 
ATOM     21  F   UNL     1       0.118   3.741   1.421  0.00  0.00    -0.166 F 
ATOM     22  F   UNL     1      -0.303   4.008  -0.808  0.00  0.00    -0.166 F 
ENDBRANCH  19  20
ENDBRANCH  15  19
ENDBRANCH   2  10
BRANCH   7  23
ATOM     23  C   UNL     1      -3.801  -1.832  -2.583  0.00  0.00    +0.436 C 
ATOM     24  F   UNL     1      -2.891  -2.358  -3.505  0.00  0.00    -0.166 F 
ATOM     25  F   UNL     1      -4.889  -2.702  -2.451  0.00  0.00    -0.166 F 
ATOM     26  F   UNL     1      -4.252  -0.586  -3.031  0.00  0.00    -0.166 F 
ENDBRANCH   7  23
BRANCH   1  27
ATOM     27  C   UNL     1      -2.228   0.577  -1.819  0.00  0.00    +0.174 C 
ATOM     28  O   UNL     1      -2.981   1.237  -1.134  0.00  0.00    -0.291 OA
BRANCH  27  31
ATOM     29  C   UNL     1      -1.396   2.952  -4.597  0.00  0.00    +0.020 A 
ATOM     30  C   UNL     1      -1.934   2.473  -3.416  0.00  0.00    +0.014 A 
ATOM     31  C   UNL     1      -1.685   1.138  -3.066  0.00  0.00    +0.036 A 
ATOM     32  C   UNL     1      -0.918   0.347  -3.927  0.00  0.00    +0.122 A 
ATOM     33  N   UNL     1      -0.433   0.850  -5.043  0.00  0.00    -0.263 NA
ATOM     34  C   UNL     1      -0.647   2.105  -5.393  0.00  0.00    +0.111 A 
ENDBRANCH  27  31
ENDBRANCH   1  27
BRANCH   7  35
ATOM     35  O   UNL     1      -4.005  -1.023  -0.313  0.00  0.00    -0.364 OA
ATOM     36  H   UNL     1      -4.828  -1.506  -0.160  0.00  0.00    +0.212 HD
ENDBRANCH   7  35
TORSDOF 8
