REMARK  Name = ZINC14037959
REMARK  11 active torsions:
REMARK  status: ('A' for Active; 'I' for Inactive)
REMARK    1  A    between atoms: C_1  and  C_2
REMARK    2  A    between atoms: C_2  and  C_4
REMARK    3  A    between atoms: C_2  and  O_22
REMARK    4  A    between atoms: N_6  and  N_7
REMARK    5  A    between atoms: C_8  and  C_10
REMARK    6  A    between atoms: C_10  and  C_11
REMARK    7  A    between atoms: C_11  and  C_12
REMARK    8  A    between atoms: C_12  and  O_13
REMARK    9  A    between atoms: O_13  and  C_14
REMARK   10  A    between atoms: O_22  and  C_23
REMARK   11  A    between atoms: C_26  and  N_29
REMARK                            x       y       z     vdW  Elec       q    Type
REMARK                         _______ _______ _______ _____ _____    ______ ____
ROOT
ATOM      1  C   UNL     1      -0.490   1.105  -6.085  0.00  0.00    +0.270 C 
ATOM      2  O   UNL     1      -1.571   1.641  -6.213  0.00  0.00    -0.270 OA
ATOM      3  N   UNL     1      -0.052   0.756  -4.859  0.00  0.00    -0.231 N 
ATOM      4  H   UNL     1       0.812   0.328  -4.757  0.00  0.00    +0.173 HD
ENDROOT
BRANCH   3   5
ATOM      5  N   UNL     1      -0.844   1.013  -3.732  0.00  0.00    -0.234 N 
ATOM      6  C   UNL     1      -0.405   0.665  -2.506  0.00  0.00    +0.229 C 
ATOM      7  O   UNL     1       0.675   0.129  -2.379  0.00  0.00    -0.274 OA
ATOM      8  H   UNL     1      -1.708   1.442  -3.835  0.00  0.00    +0.173 HD
BRANCH   6   9
ATOM      9  C   UNL     1      -1.258   0.942  -1.295  0.00  0.00    +0.100 C 
BRANCH   9  10
ATOM     10  C   UNL     1      -0.533   0.452  -0.039  0.00  0.00    +0.050 C 
BRANCH  10  11
ATOM     11  C   UNL     1      -1.398   0.733   1.191  0.00  0.00    +0.229 C 
BRANCH  11  12
ATOM     12  O   UNL     1      -0.722   0.276   2.364  0.00  0.00    -0.490 OA
BRANCH  12  13
ATOM     13  C   UNL     1      -1.359   0.451   3.552  0.00  0.00    +0.139 A 
ATOM     14  C   UNL     1      -2.608   1.051   3.588  0.00  0.00    +0.048 A 
ATOM     15  C   UNL     1      -3.254   1.228   4.796  0.00  0.00    +0.023 A 
ATOM     16  C   UNL     1      -2.655   0.808   5.970  0.00  0.00    +0.043 A 
ATOM     17  C   UNL     1      -1.408   0.210   5.938  0.00  0.00    +0.043 A 
ATOM     18  C   UNL     1      -0.761   0.025   4.730  0.00  0.00    +0.084 A 
ATOM     19 CL   UNL     1       0.800  -0.733   4.688  0.00  0.00    -0.080 Cl
ATOM     20 CL   UNL     1      -3.470   1.033   7.487  0.00  0.00    -0.083 Cl
ENDBRANCH  12  13
ENDBRANCH  11  12
ENDBRANCH  10  11
ENDBRANCH   9  10
ENDBRANCH   6   9
ENDBRANCH   3   5
BRANCH   1  22
ATOM     21  C   UNL     1       0.513  -0.684  -7.480  0.00  0.00    +0.062 C 
ATOM     22  C   UNL     1       0.362   0.828  -7.297  0.00  0.00    +0.257 C 
BRANCH  22  23
ATOM     23  O   UNL     1      -0.260   1.388  -8.455  0.00  0.00    -0.480 OA
BRANCH  23  24
ATOM     24  C   UNL     1       0.549   1.697  -9.502  0.00  0.00    +0.122 A 
ATOM     25  C   UNL     1       1.896   1.369  -9.459  0.00  0.00    +0.048 A 
ATOM     26  C   UNL     1       2.716   1.680 -10.526  0.00  0.00    +0.036 A 
ATOM     27  C   UNL     1       2.197   2.326 -11.633  0.00  0.00    +0.126 A 
ATOM     28  C   UNL     1       0.856   2.659 -11.676  0.00  0.00    +0.036 A 
ATOM     29  C   UNL     1       0.031   2.346 -10.613  0.00  0.00    +0.048 A 
BRANCH  27  30
ATOM     30  N   UNL     1       3.079   2.663 -12.773  0.00  0.00    +0.056 N 
ATOM     31  O   UNL     1       2.623   3.233 -13.748  0.00  0.00    -0.126 OA
ATOM     32  O   UNL     1       4.261   2.371 -12.736  0.00  0.00    -0.126 OA
ENDBRANCH  27  30
ENDBRANCH  23  24
ENDBRANCH  22  23
ENDBRANCH   1  22
TORSDOF 10
