REMARK  Name = ZINC58962507
REMARK  11 active torsions:
REMARK  status: ('A' for Active; 'I' for Inactive)
REMARK    1  A    between atoms: C_5  and  C_7
REMARK    2  A    between atoms: C_7  and  O_8
REMARK    3  A    between atoms: O_8  and  C_9
REMARK    4  A    between atoms: C_14  and  C_15
REMARK    5  A    between atoms: C_16  and  C_17
REMARK    6  A    between atoms: C_16  and  C_19
REMARK    7  A    between atoms: C_20  and  C_28
REMARK    8  A    between atoms: C_21  and  N_27
REMARK    9  A    between atoms: N_22  and  C_24
REMARK   10  A    between atoms: C_24  and  C_25
REMARK   11  A    between atoms: C_25  and  O_26
REMARK                            x       y       z     vdW  Elec       q    Type
REMARK                         _______ _______ _______ _____ _____    ______ ____
ROOT
ATOM      1  C   UNL     1      -2.742  -3.716   0.010  0.00  0.00    +0.032 C 
ATOM      2  C   UNL     1      -3.869  -4.083  -0.662  0.00  0.00    +0.081 C 
ENDROOT
BRANCH   1   8
ATOM      3  C   UNL     1      -0.323  -4.257   0.241  0.00  0.00    +0.128 A 
ATOM      4  C   UNL     1       0.690  -5.182   0.440  0.00  0.00    +0.047 A 
ATOM      5  C   UNL     1       0.386  -6.519   0.604  0.00  0.00    +0.019 A 
ATOM      6  C   UNL     1      -0.932  -6.949   0.572  0.00  0.00    +0.019 A 
ATOM      7  C   UNL     1      -1.954  -6.045   0.375  0.00  0.00    +0.026 A 
ATOM      8  C   UNL     1      -1.660  -4.686   0.213  0.00  0.00    +0.019 A 
ATOM      9 BR   UNL     1      -1.329  -8.784   0.797  0.00  0.00    -0.050 Br
BRANCH   3  10
ATOM     10  O   UNL     1      -0.024  -2.943   0.080  0.00  0.00    -0.487 OA
BRANCH  10  11
ATOM     11  C   UNL     1       1.358  -2.582   0.120  0.00  0.00    +0.266 C 
BRANCH  11  16
ATOM     12  C   UNL     1       0.492   1.050  -0.438  0.00  0.00    +0.000 A 
ATOM     13  C   UNL     1       1.744   1.636  -0.437  0.00  0.00    +0.001 A 
ATOM     14  C   UNL     1       2.872   0.858  -0.256  0.00  0.00    +0.020 A 
ATOM     15  C   UNL     1       2.747  -0.508  -0.075  0.00  0.00    +0.047 A 
ATOM     16  C   UNL     1       1.494  -1.094  -0.076  0.00  0.00    +0.008 A 
ATOM     17  C   UNL     1       0.367  -0.315  -0.258  0.00  0.00    +0.008 A 
ATOM     18 CL   UNL     1       4.163  -1.487   0.151  0.00  0.00    -0.083 Cl
ENDBRANCH  11  16
ENDBRANCH  10  11
ENDBRANCH   3  10
ENDBRANCH   1   8
BRANCH   2  19
ATOM     19  C   UNL     1      -5.020  -3.157  -0.737  0.00  0.00    +0.122 A 
ATOM     20  C   UNL     1      -6.298  -3.408  -1.414  0.00  0.00    +0.119 A 
ATOM     21  C   UNL     1      -7.071  -2.267  -1.222  0.00  0.00    +0.133 A 
ATOM     22  N   UNL     1      -6.339  -1.397  -0.497  0.00  0.00    -0.247 N 
ATOM     23  N   UNL     1      -5.093  -1.958  -0.205  0.00  0.00    -0.167 NA
BRANCH  21  24
ATOM     24  N   UNL     1      -8.354  -2.062  -1.690  0.00  0.00    -0.342 N 
ATOM     25  H   UNL     1      -8.798  -2.753  -2.207  0.00  0.00    +0.144 HD
ATOM     26  H   UNL     1      -8.811  -1.227  -1.503  0.00  0.00    +0.144 HD
ENDBRANCH  21  24
BRANCH  20  27
ATOM     27  C   UNL     1      -6.674  -4.590  -2.129  0.00  0.00    +0.105 C 
ATOM     28  N   UNL     1      -6.973  -5.528  -2.697  0.00  0.00    -0.191 NA
ENDBRANCH  20  27
BRANCH  22  29
ATOM     29  C   UNL     1      -6.786  -0.067  -0.074  0.00  0.00    +0.173 C 
BRANCH  29  30
ATOM     30  C   UNL     1      -7.474  -0.169   1.289  0.00  0.00    +0.179 C 
BRANCH  30  31
ATOM     31  O   UNL     1      -7.909   1.128   1.701  0.00  0.00    -0.393 OA
ATOM     32  H   UNL     1      -8.356   1.139   2.559  0.00  0.00    +0.209 HD
ENDBRANCH  30  31
ENDBRANCH  29  30
ENDBRANCH  22  29
ENDBRANCH   2  19
BRANCH   2  33
ATOM     33  C   UNL     1      -3.938  -5.366  -1.295  0.00  0.00    +0.101 C 
ATOM     34  N   UNL     1      -3.994  -6.383  -1.798  0.00  0.00    -0.191 NA
ENDBRANCH   2  33
TORSDOF 11
