REMARK  Name = ZINC63648724
REMARK  4 active torsions:
REMARK  status: ('A' for Active; 'I' for Inactive)
REMARK    1  A    between atoms: C_7  and  C_10
REMARK    2  A    between atoms: C_10  and  C_11
REMARK    3  A    between atoms: C_11  and  N_12
REMARK    4  A    between atoms: N_16  and  C_20
REMARK                            x       y       z     vdW  Elec       q    Type
REMARK                         _______ _______ _______ _____ _____    ______ ____
ROOT
ATOM      1  N   UNL     1      -0.071  -5.106  -1.475  0.00  0.00    -0.324 N 
ATOM      2  C   UNL     1      -0.633  -5.548  -2.666  0.00  0.00    +0.185 A 
ATOM      3  C   UNL     1      -1.544  -6.698  -2.677  0.00  0.00    +0.296 A 
ATOM      4  O   UNL     1      -1.823  -7.282  -1.643  0.00  0.00    -0.264 OA
ATOM      5  N   UNL     1      -2.067  -7.093  -3.858  0.00  0.00    -0.280 N 
ATOM      6  C   UNL     1      -1.732  -6.414  -4.994  0.00  0.00    +0.114 A 
ATOM      7  C   UNL     1      -0.890  -5.360  -4.947  0.00  0.00    +0.131 A 
ATOM      8  N   UNL     1      -0.359  -4.938  -3.800  0.00  0.00    -0.234 NA
ATOM      9  H   UNL     1      -0.278  -5.561  -0.644  0.00  0.00    +0.148 HD
ENDROOT
BRANCH   5  10
ATOM     10  C   UNL     1      -2.941  -8.185  -3.917  0.00  0.00    +0.053 A 
ATOM     11  C   UNL     1      -2.548  -9.357  -4.551  0.00  0.00    +0.030 A 
ATOM     12  C   UNL     1      -3.410 -10.434  -4.611  0.00  0.00    +0.051 A 
ATOM     13  C   UNL     1      -4.671 -10.350  -4.037  0.00  0.00    +0.162 A 
ATOM     14  C   UNL     1      -5.066  -9.180  -3.399  0.00  0.00    +0.164 A 
ATOM     15  C   UNL     1      -4.199  -8.100  -3.336  0.00  0.00    +0.075 A 
ATOM     16  O   UNL     1      -6.296  -9.082  -2.824  0.00  0.00    -0.485 OA
ATOM     17  C   UNL     1      -7.273 -10.049  -3.224  0.00  0.00    +0.270 C 
ATOM     18  C   UNL     1      -6.615 -11.435  -3.201  0.00  0.00    +0.270 C 
ATOM     19  O   UNL     1      -5.509 -11.421  -4.110  0.00  0.00    -0.485 OA
ENDBRANCH   5  10
BRANCH   1  20
ATOM     20  C   UNL     1       0.833  -3.954  -1.475  0.00  0.00    +0.107 C 
BRANCH  20  21
ATOM     21  C   UNL     1       1.307  -3.678  -0.047  0.00  0.00    +0.052 C 
BRANCH  21  28
ATOM     22  C   UNL     1       0.627   0.795   0.717  0.00  0.00    +0.001 A 
ATOM     23  C   UNL     1       1.793   1.567   0.614  0.00  0.00    +0.002 A 
ATOM     24  C   UNL     1       2.997   1.033   0.318  0.00  0.00    +0.026 A 
ATOM     25  C   UNL     1       3.127  -0.365   0.094  0.00  0.00    +0.043 A 
ATOM     26  N   UNL     1       4.166  -1.109  -0.202  0.00  0.00    -0.380 N 
ATOM     27  C   UNL     1       3.724  -2.503  -0.321  0.00  0.00    +0.144 C 
ATOM     28  C   UNL     1       2.237  -2.492  -0.047  0.00  0.00    -0.040 C 
ATOM     29  C   UNL     1       1.911  -1.202   0.197  0.00  0.00    -0.001 A 
ATOM     30  C   UNL     1       0.641  -0.543   0.524  0.00  0.00    +0.010 A 
ATOM     31  H   UNL     1       5.074  -0.790  -0.323  0.00  0.00    +0.160 HD
ENDBRANCH  21  28
ENDBRANCH  20  21
ENDBRANCH   1  20
TORSDOF 4
