REMARK  Name = ZINC08964022
REMARK  11 active torsions:
REMARK  status: ('A' for Active; 'I' for Inactive)
REMARK    1  A    between atoms: C_1  and  C_2
REMARK    2  A    between atoms: N_4  and  C_5
REMARK    3  A    between atoms: C_8  and  N_11
REMARK    4  A    between atoms: C_12  and  C_14
REMARK    5  A    between atoms: N_16  and  C_17
REMARK    6  A    between atoms: C_17  and  C_18
REMARK    7  A    between atoms: C_18  and  C_20
REMARK    8  A    between atoms: C_18  and  N_60
REMARK    9  A    between atoms: N_28  and  C_29
REMARK   10  A    between atoms: C_30  and  N_60
REMARK   11  A    between atoms: C_31  and  N_60
REMARK                            x       y       z     vdW  Elec       q    Type
REMARK                         _______ _______ _______ _____ _____    ______ ____
ROOT
ATOM      1  C   UNL     1      -6.687   6.567  -1.187  0.00  0.00    +0.299 C 
ATOM      2  O   UNL     1      -7.250   5.650  -0.626  0.00  0.00    -0.265 OA
ATOM      3  N   UNL     1      -5.342   6.584  -1.267  0.00  0.00    -0.309 N 
ATOM      4  H   UNL     1      -4.892   7.317  -1.715  0.00  0.00    +0.149 HD
ENDROOT
BRANCH   1   6
ATOM      5  N   UNL     1      -8.830   7.661  -1.707  0.00  0.00    -0.278 N 
ATOM      6  C   UNL     1      -7.485   7.678  -1.788  0.00  0.00    +0.303 C 
ATOM      7  O   UNL     1      -6.922   8.595  -2.348  0.00  0.00    -0.265 OA
ATOM      8  H   UNL     1      -9.277   6.969  -1.195  0.00  0.00    +0.155 HD
BRANCH   5  12
ATOM      9  C   UNL     1     -11.070  10.583  -3.659  0.00  0.00    +0.033 A 
ATOM     10  C   UNL     1      -9.895  10.113  -4.230  0.00  0.00    +0.025 A 
ATOM     11  C   UNL     1      -9.153   9.145  -3.584  0.00  0.00    +0.025 A 
ATOM     12  C   UNL     1      -9.582   8.641  -2.362  0.00  0.00    +0.034 A 
ATOM     13  C   UNL     1     -10.761   9.108  -1.794  0.00  0.00    +0.025 A 
ATOM     14  C   UNL     1     -11.500  10.080  -2.438  0.00  0.00    +0.025 A 
BRANCH   9  18
ATOM     15  C   UNL     1     -13.382  13.486  -4.296  0.00  0.00    +0.109 C 
ATOM     16  C   UNL     1     -12.479  12.501  -3.600  0.00  0.00    +0.214 C 
ATOM     17  O   UNL     1     -12.343  12.550  -2.395  0.00  0.00    -0.276 OA
ATOM     18  N   UNL     1     -11.823  11.566  -4.315  0.00  0.00    -0.286 N 
ATOM     19  H   UNL     1     -11.872  11.573  -5.284  0.00  0.00    +0.155 HD
ENDBRANCH   9  18
ENDBRANCH   5  12
ENDBRANCH   1   6
BRANCH   3  20
ATOM     20  C   UNL     1      -4.559   5.495  -0.677  0.00  0.00    +0.094 C 
BRANCH  20  21
ATOM     21  C   UNL     1      -3.068   5.816  -0.796  0.00  0.00    -0.021 C 
BRANCH  21  22
ATOM     22  C   UNL     1      -2.264   4.700  -0.181  0.00  0.00    -0.059 A 
ATOM     23  C   UNL     1      -2.020   4.691   1.181  0.00  0.00    +0.004 A 
ATOM     24  C   UNL     1      -1.287   3.670   1.748  0.00  0.00    +0.023 A 
ATOM     25  C   UNL     1      -0.786   2.640   0.954  0.00  0.00    +0.033 A 
ATOM     26  C   UNL     1      -1.032   2.662  -0.414  0.00  0.00    -0.025 A 
ATOM     27  C   UNL     1      -1.768   3.684  -0.977  0.00  0.00    +0.007 A 
ATOM     28  C   UNL     1      -0.371   1.443  -1.026  0.00  0.00    +0.056 C 
ATOM     29  C   UNL     1       0.600   0.983   0.086  0.00  0.00    +0.109 C 
ATOM     30  N   UNL     1      -0.034   1.512   1.313  0.00  0.00    -0.332 N 
ATOM     31  C   UNL     1       0.976   1.846   2.325  0.00  0.00    +0.129 C 
ENDBRANCH  21  22
BRANCH  21  34
ATOM     32  C   UNL     1      -3.639   7.223   1.090  0.00  0.00    -0.096 C 
ATOM     33  C   UNL     1      -1.361   7.158   0.274  0.00  0.00    -0.096 C 
ATOM     34  N   UNL     1      -2.786   7.095  -0.111  0.00  0.00    +0.382 N 
ATOM     35  H   UNL     1      -2.993   7.870  -0.751  0.00  0.00    -0.082 HD
ENDBRANCH  21  34
ENDBRANCH  20  21
ENDBRANCH   3  20
TORSDOF 7
