REMARK  Name = ZINC12658184
REMARK  8 active torsions:
REMARK  status: ('A' for Active; 'I' for Inactive)
REMARK    1  A    between atoms: C_1  and  C_2
REMARK    2  A    between atoms: C_5  and  N_8
REMARK    3  A    between atoms: C_9  and  C_11
REMARK    4  A    between atoms: C_11  and  N_22
REMARK    5  A    between atoms: C_12  and  C_13
REMARK    6  A    between atoms: C_17  and  N_19
REMARK    7  A    between atoms: C_23  and  C_25
REMARK    8  A    between atoms: C_26  and  C_27
REMARK                            x       y       z     vdW  Elec       q    Type
REMARK                         _______ _______ _______ _____ _____    ______ ____
ROOT
ATOM      1  C   UNL     1      -1.214   5.972  -0.102  0.00  0.00    +0.097 C 
ATOM      2  C   UNL     1      -0.009   5.377   0.056  0.00  0.00    +0.036 C 
ENDROOT
BRANCH   2   3
ATOM      3  C   UNL     1       0.084   3.910   0.122  0.00  0.00    -0.021 A 
ATOM      4  C   UNL     1      -0.931   3.116  -0.422  0.00  0.00    +0.008 A 
ATOM      5  C   UNL     1      -0.833   1.743  -0.362  0.00  0.00    +0.003 A 
ATOM      6  C   UNL     1       0.260   1.149   0.245  0.00  0.00    +0.033 A 
ATOM      7  C   UNL     1       1.268   1.927   0.785  0.00  0.00    +0.127 A 
ATOM      8  C   UNL     1       1.188   3.303   0.728  0.00  0.00    +0.040 A 
BRANCH   7   9
ATOM      9  N   UNL     1       2.436   1.282   1.427  0.00  0.00    +0.056 N 
ATOM     10  O   UNL     1       2.509   0.067   1.478  0.00  0.00    -0.126 OA
ATOM     11  O   UNL     1       3.324   1.966   1.903  0.00  0.00    -0.126 OA
ENDBRANCH   7   9
ENDBRANCH   2   3
BRANCH   1  13
ATOM     12  N   UNL     1      -0.166   8.158  -0.387  0.00  0.00    -0.280 N 
ATOM     13  C   UNL     1      -1.293   7.422  -0.332  0.00  0.00    +0.262 C 
ATOM     14  O   UNL     1      -2.377   7.957  -0.474  0.00  0.00    -0.268 OA
ATOM     15  H   UNL     1       0.693   7.745  -0.205  0.00  0.00    +0.155 HD
BRANCH  12  20
ATOM     16  C   UNL     1      -0.441  13.675  -1.674  0.00  0.00    +0.044 C 
ATOM     17  C   UNL     1      -0.368  12.210  -1.332  0.00  0.00    -0.050 A 
ATOM     18  C   UNL     1      -1.373  11.625  -0.584  0.00  0.00    +0.005 A 
ATOM     19  C   UNL     1      -1.309  10.282  -0.269  0.00  0.00    +0.023 A 
ATOM     20  C   UNL     1      -0.234   9.518  -0.704  0.00  0.00    +0.034 A 
ATOM     21  C   UNL     1       0.777  10.110  -1.451  0.00  0.00    +0.023 A 
ATOM     22  C   UNL     1       0.704  11.452  -1.767  0.00  0.00    +0.005 A 
ENDBRANCH  12  20
ENDBRANCH   1  13
BRANCH   1  23
ATOM     23  N   UNL     1      -2.383   5.209  -0.045  0.00  0.00    -0.278 N 
ATOM     24  C   UNL     1      -3.254   5.234  -1.073  0.00  0.00    +0.241 C 
ATOM     25  O   UNL     1      -2.983   5.853  -2.087  0.00  0.00    -0.270 OA
ATOM     26  H   UNL     1      -2.567   4.661   0.734  0.00  0.00    +0.155 HD
BRANCH  24  27
ATOM     27  C   UNL     1      -4.484   4.540  -0.975  0.00  0.00    +0.071 C 
ATOM     28  C   UNL     1      -5.314   4.478  -2.046  0.00  0.00    +0.051 C 
BRANCH  28  29
ATOM     29  C   UNL     1      -6.591   3.878  -1.918  0.00  0.00    +0.128 A 
ATOM     30  C   UNL     1      -7.534   3.753  -2.917  0.00  0.00    +0.049 A 
ATOM     31  C   UNL     1      -8.636   3.098  -2.345  0.00  0.00    +0.042 A 
ATOM     32  C   UNL     1      -8.333   2.862  -1.050  0.00  0.00    +0.195 A 
ATOM     33  O   UNL     1      -7.104   3.332  -0.795  0.00  0.00    -0.464 OA
ENDBRANCH  28  29
ENDBRANCH  24  27
ENDBRANCH   1  23
TORSDOF 7
