REMARK  Name = ZINC32593992
REMARK  7 active torsions:
REMARK  status: ('A' for Active; 'I' for Inactive)
REMARK    1  A    between atoms: C_1  and  C_2
REMARK    2  A    between atoms: C_5  and  C_8
REMARK    3  A    between atoms: C_8  and  N_9
REMARK    4  A    between atoms: C_11  and  C_16
REMARK    5  A    between atoms: N_18  and  C_19
REMARK    6  A    between atoms: C_24  and  C_25
REMARK    7  A    between atoms: C_27  and  C_30
REMARK                            x       y       z     vdW  Elec       q    Type
REMARK                         _______ _______ _______ _____ _____    ______ ____
ROOT
ATOM      1  C   UNL     1      -1.501  -3.587  -0.103  0.00  0.00    +0.222 C 
ATOM      2  O   UNL     1      -1.134  -4.743  -0.113  0.00  0.00    -0.275 OA
ATOM      3  N   UNL     1      -0.595  -2.593  -0.005  0.00  0.00    -0.285 N 
ATOM      4  H   UNL     1      -0.931  -1.549   0.080  0.00  0.00    +0.155 HD
ENDROOT
BRANCH   1   7
ATOM      5  N   UNL     1      -5.039  -4.276   0.458  0.00  0.00    -0.296 N 
ATOM      6  C   UNL     1      -3.815  -4.549  -0.304  0.00  0.00    +0.121 C 
ATOM      7  C   UNL     1      -2.969  -3.261  -0.201  0.00  0.00    +0.101 C 
ATOM      8  C   UNL     1      -3.489  -2.647   1.119  0.00  0.00    +0.110 C 
ATOM      9  C   UNL     1      -4.883  -3.216   1.270  0.00  0.00    +0.217 C 
ATOM     10  O   UNL     1      -5.734  -2.779   2.014  0.00  0.00    -0.276 OA
BRANCH   5  11
ATOM     11  C   UNL     1      -6.274  -5.057   0.347  0.00  0.00    +0.142 C 
BRANCH  11  16
ATOM     12  C   UNL     1      -6.164  -9.386   4.173  0.00  0.00    +0.044 C 
ATOM     13  C   UNL     1      -6.193  -8.257   3.175  0.00  0.00    -0.050 A 
ATOM     14  C   UNL     1      -6.725  -7.032   3.533  0.00  0.00    +0.003 A 
ATOM     15  C   UNL     1      -6.752  -5.997   2.617  0.00  0.00    +0.005 A 
ATOM     16  C   UNL     1      -6.245  -6.186   1.345  0.00  0.00    -0.030 A 
ATOM     17  C   UNL     1      -5.717  -7.412   0.986  0.00  0.00    +0.005 A 
ATOM     18  C   UNL     1      -5.687  -8.446   1.903  0.00  0.00    +0.003 A 
ENDBRANCH  11  16
ENDBRANCH   5  11
ENDBRANCH   1   7
BRANCH   3  19
ATOM     19  C   UNL     1       0.768  -2.889  -0.012  0.00  0.00    +0.046 A 
ATOM     20  C   UNL     1       1.232  -4.053   0.585  0.00  0.00    +0.024 A 
ATOM     21  C   UNL     1       2.582  -4.344   0.577  0.00  0.00    +0.002 A 
ATOM     22  C   UNL     1       3.481  -3.479  -0.024  0.00  0.00    +0.001 A 
ATOM     23  C   UNL     1       3.037  -2.321  -0.626  0.00  0.00    +0.015 A 
ATOM     24  C   UNL     1       1.676  -2.011  -0.621  0.00  0.00    +0.061 A 
BRANCH  24  25
ATOM     25  C   UNL     1       1.195  -0.770  -1.260  0.00  0.00    +0.261 A 
ATOM     26  N   UNL     1       1.934   0.141  -1.866  0.00  0.00    -0.187 NA
ATOM     27  C   UNL     1       1.068   1.085  -2.288  0.00  0.00    +0.202 A 
ATOM     28  N   UNL     1      -0.131   0.708  -1.923  0.00  0.00    -0.056 NA
ATOM     29  O   UNL     1      -0.078  -0.351  -1.334  0.00  0.00    -0.332 OA
BRANCH  27  30
ATOM     30  C   UNL     1       1.411   2.324  -3.030  0.00  0.00    +0.022 A 
ATOM     31  C   UNL     1       2.739   2.603  -3.349  0.00  0.00    +0.012 A 
ATOM     32  C   UNL     1       3.052   3.754  -4.043  0.00  0.00    +0.001 A 
ATOM     33  C   UNL     1       2.052   4.635  -4.413  0.00  0.00    +0.000 A 
ATOM     34  C   UNL     1       0.734   4.366  -4.094  0.00  0.00    +0.001 A 
ATOM     35  C   UNL     1       0.408   3.216  -3.404  0.00  0.00    +0.012 A 
ENDBRANCH  27  30
ENDBRANCH  24  25
ENDBRANCH   3  19
TORSDOF 6
