REMARK  Name = ZINC28127802
REMARK  17 active torsions:
REMARK  status: ('A' for Active; 'I' for Inactive)
REMARK    1  A    between atoms: C_1  and  C_2
REMARK    2  A    between atoms: C_3  and  C_36
REMARK    3  A    between atoms: C_4  and  C_35
REMARK    4  A    between atoms: C_7  and  C_8
REMARK    5  A    between atoms: C_8  and  C_10
REMARK    6  A    between atoms: C_10  and  C_12
REMARK    7  A    between atoms: C_10  and  O_13
REMARK    8  A    between atoms: O_13  and  C_14
REMARK    9  A    between atoms: C_14  and  C_16
REMARK   10  A    between atoms: C_18  and  O_33
REMARK   11  A    between atoms: C_19  and  O_31
REMARK   12  A    between atoms: C_21  and  N_22
REMARK   13  A    between atoms: C_23  and  C_25
REMARK   14  A    between atoms: C_28  and  C_30
REMARK   15  A    between atoms: O_31  and  C_32
REMARK   16  A    between atoms: O_33  and  C_34
REMARK   17  A    between atoms: C_36  and  C_38
REMARK                            x       y       z     vdW  Elec       q    Type
REMARK                         _______ _______ _______ _____ _____    ______ ____
ROOT
ATOM      1  C   UNL     1       1.085  -1.509   5.735  0.00  0.00    +0.342 C 
ATOM      2  O   UNL     1       1.365  -2.663   5.474  0.00  0.00    -0.245 OA
ENDROOT
BRANCH   1   3
ATOM      3  C   UNL     1       1.468  -0.934   7.034  0.00  0.00    +0.084 A 
ATOM      4  C   UNL     1       1.054   0.358   7.380  0.00  0.00    +0.066 A 
ATOM      5  C   UNL     1       1.416   0.892   8.598  0.00  0.00    +0.162 A 
ATOM      6  C   UNL     1       2.193   0.148   9.488  0.00  0.00    +0.163 A 
ATOM      7  C   UNL     1       2.607  -1.131   9.153  0.00  0.00    +0.073 A 
ATOM      8  C   UNL     1       2.244  -1.681   7.934  0.00  0.00    +0.051 A 
BRANCH   8   9
ATOM      9  N   UNL     1       2.655  -2.971   7.599  0.00  0.00    -0.284 N 
ATOM     10  C   UNL     1       3.865  -3.416   7.992  0.00  0.00    +0.221 C 
ATOM     11  O   UNL     1       4.563  -2.725   8.704  0.00  0.00    -0.275 OA
ATOM     12  H   UNL     1       2.070  -3.548   7.084  0.00  0.00    +0.155 HD
BRANCH  10  13
ATOM     13  C   UNL     1       4.350  -4.771   7.547  0.00  0.00    +0.078 C 
ATOM     14  C   UNL     1       5.522  -4.814   6.563  0.00  0.00    +0.017 C 
ATOM     15  C   UNL     1       5.733  -5.218   8.024  0.00  0.00    -0.002 C 
ATOM     16  C   UNL     1       5.930  -6.706   8.325  0.00  0.00    +0.008 C 
ENDBRANCH  10  13
ENDBRANCH   8   9
BRANCH   6  17
ATOM     17  O   UNL     1       2.546   0.681  10.686  0.00  0.00    -0.491 OA
ATOM     18  C   UNL     1       3.342  -0.133  11.549  0.00  0.00    +0.277 C 
ENDBRANCH   6  17
BRANCH   5  19
ATOM     19  O   UNL     1       1.014   2.148   8.935  0.00  0.00    -0.491 OA
ATOM     20  C   UNL     1       0.221   2.853   7.978  0.00  0.00    +0.277 C 
ENDBRANCH   5  19
ENDBRANCH   1   3
BRANCH   1  21
ATOM     21  O   UNL     1       0.423  -0.756   4.833  0.00  0.00    -0.450 OA
BRANCH  21  22
ATOM     22  C   UNL     1       0.083  -1.379   3.593  0.00  0.00    +0.246 C 
ATOM     23  C   UNL     1      -1.295  -2.033   3.711  0.00  0.00    +0.061 C 
BRANCH  22  24
ATOM     24  C   UNL     1       0.054  -0.340   2.501  0.00  0.00    +0.219 C 
ATOM     25  O   UNL     1       0.028   0.840   2.786  0.00  0.00    -0.287 OA
BRANCH  24  32
ATOM     26  C   UNL     1      -0.003   1.606   0.079  0.00  0.00    +0.047 C 
ATOM     27  C   UNL     1       0.032   0.100   0.052  0.00  0.00    -0.012 A 
ATOM     28  C   UNL     1       0.053  -0.722  -1.098  0.00  0.00    +0.041 A 
ATOM     29  C   UNL     1       0.084  -2.038  -0.658  0.00  0.00    +0.024 A 
ATOM     30  N   UNL     1       0.082  -2.042   0.682  0.00  0.00    -0.355 N 
ATOM     31  H   UNL     1       0.100  -2.835   1.240  0.00  0.00    +0.166 HD
ATOM     32  C   UNL     1       0.057  -0.741   1.143  0.00  0.00    +0.090 A 
ATOM     33  C   UNL     1       0.113  -3.259  -1.541  0.00  0.00    +0.064 C 
BRANCH  28  34
ATOM     34  C   UNL     1       0.043  -0.270  -2.493  0.00  0.00    +0.162 C 
ATOM     35  O   UNL     1      -1.005  -0.195  -3.099  0.00  0.00    -0.292 OA
ATOM     36  C   UNL     1       1.335   0.102  -3.173  0.00  0.00    +0.091 C 
ENDBRANCH  28  34
ENDBRANCH  24  32
ENDBRANCH  22  24
ENDBRANCH  21  22
ENDBRANCH   1  21
TORSDOF 10
