REMARK  Name = ZINC63596249
REMARK  6 active torsions:
REMARK  status: ('A' for Active; 'I' for Inactive)
REMARK    1  A    between atoms: C_11  and  C_27
REMARK    2  A    between atoms: C_12  and  N_14
REMARK    3  A    between atoms: C_15  and  C_17
REMARK    4  A    between atoms: C_17  and  C_18
REMARK    5  A    between atoms: C_18  and  N_19
REMARK    6  A    between atoms: C_21  and  N_24
REMARK                            x       y       z     vdW  Elec       q    Type
REMARK                         _______ _______ _______ _____ _____    ______ ____
ROOT
ATOM      1  C   UNL     1      -0.017   1.378   0.010  0.00  0.00    +0.000 A 
ATOM      2  C   UNL     1       1.164   2.100   0.002  0.00  0.00    +0.001 A 
ATOM      3  C   UNL     1       2.375   1.435  -0.031  0.00  0.00    +0.009 A 
ATOM      4  C   UNL     1       2.393   0.049  -0.056  0.00  0.00    -0.013 A 
ATOM      5  C   UNL     1       1.207  -0.684  -0.013  0.00  0.00    -0.039 A 
ATOM      6  C   UNL     1       0.002  -0.004   0.002  0.00  0.00    +0.004 A 
ATOM      7  C   UNL     1       1.210  -2.187   0.066  0.00  0.00    +0.041 C 
ATOM      8  C   UNL     1       2.373  -2.797  -0.719  0.00  0.00    +0.048 C 
ATOM      9  C   UNL     1       3.625  -2.038  -0.426  0.00  0.00    +0.001 A 
ATOM     10  C   UNL     1       3.683  -0.703  -0.124  0.00  0.00    +0.012 A 
ATOM     11  C   UNL     1       5.009  -0.156   0.102  0.00  0.00    +0.088 A 
ATOM     12  C   UNL     1       6.089  -1.026   0.010  0.00  0.00    +0.090 A 
ATOM     13  S   UNL     1       5.305  -2.581  -0.385  0.00  0.00    -0.077 S 
ENDROOT
BRANCH  12  14
ATOM     14  N   UNL     1       7.439  -0.754   0.182  0.00  0.00    -0.279 N 
ATOM     15  C   UNL     1       8.347  -1.741   0.051  0.00  0.00    +0.219 C 
ATOM     16  O   UNL     1       7.984  -2.867  -0.218  0.00  0.00    -0.275 OA
ATOM     17  H   UNL     1       7.728   0.146   0.397  0.00  0.00    +0.155 HD
BRANCH  15  18
ATOM     18  C   UNL     1       9.813  -1.446   0.238  0.00  0.00    +0.119 C 
BRANCH  18  19
ATOM     19  C   UNL     1      10.621  -2.729   0.035  0.00  0.00    +0.153 C 
BRANCH  19  20
ATOM     20  N   UNL     1      12.046  -2.442   0.217  0.00  0.00    -0.269 N 
ATOM     21  C   UNL     1      12.881  -3.075   1.068  0.00  0.00    +0.141 A 
ATOM     22  C   UNL     1      14.107  -2.516   0.935  0.00  0.00    +0.163 A 
ATOM     23  C   UNL     1      14.018  -1.508  -0.031  0.00  0.00    +0.167 A 
ATOM     24  N   UNL     1      12.784  -1.467  -0.466  0.00  0.00    -0.177 NA
BRANCH  22  25
ATOM     25  N   UNL     1      15.326  -2.904   1.679  0.00  0.00    +0.059 N 
ATOM     26  O   UNL     1      15.279  -3.795   2.494  0.00  0.00    -0.126 OA
ATOM     27  O   UNL     1      16.369  -2.328   1.473  0.00  0.00    -0.126 OA
ENDBRANCH  22  25
ENDBRANCH  19  20
ENDBRANCH  18  19
ENDBRANCH  15  18
ENDBRANCH  12  14
BRANCH  11  28
ATOM     28  C   UNL     1       5.197   1.230   0.409  0.00  0.00    +0.102 C 
ATOM     29  N   UNL     1       5.346   2.329   0.652  0.00  0.00    -0.191 NA
ENDBRANCH  11  28
TORSDOF 6
