REMARK  Name = ZINC12483661
REMARK  11 active torsions:
REMARK  status: ('A' for Active; 'I' for Inactive)
REMARK    1  A    between atoms: C_1  and  C_2
REMARK    2  A    between atoms: C_5  and  C_8
REMARK    3  A    between atoms: C_8  and  C_10
REMARK    4  A    between atoms: C_8  and  N_19
REMARK    5  A    between atoms: N_12  and  C_13
REMARK    6  A    between atoms: C_13  and  C_14
REMARK    7  A    between atoms: N_19  and  C_20
REMARK    8  A    between atoms: C_20  and  C_21
REMARK    9  A    between atoms: C_28  and  C_30
REMARK   10  A    between atoms: C_30  and  N_31
REMARK   11  A    between atoms: C_32  and  C_34
REMARK                            x       y       z     vdW  Elec       q    Type
REMARK                         _______ _______ _______ _____ _____    ______ ____
ROOT
ATOM      1  N   UNL     1       0.896  -0.425  -0.739  0.00  0.00    -0.280 N 
ATOM      2  C   UNL     1      -0.101  -0.226   0.145  0.00  0.00    +0.234 C 
ATOM      3  O   UNL     1      -1.250  -0.169  -0.240  0.00  0.00    -0.274 OA
ENDROOT
BRANCH   1   4
ATOM      4  C   UNL     1       0.600  -0.507  -2.171  0.00  0.00    +0.193 C 
BRANCH   4   9
ATOM      5  C   UNL     1      -2.519  -5.256  -3.227  0.00  0.00    +0.044 C 
ATOM      6  C   UNL     1      -1.706  -4.018  -2.951  0.00  0.00    -0.050 A 
ATOM      7  C   UNL     1      -2.094  -2.803  -3.485  0.00  0.00    +0.004 A 
ATOM      8  C   UNL     1      -1.348  -1.667  -3.233  0.00  0.00    +0.006 A 
ATOM      9  C   UNL     1      -0.213  -1.745  -2.446  0.00  0.00    -0.018 A 
ATOM     10  C   UNL     1       0.178  -2.961  -1.917  0.00  0.00    +0.006 A 
ATOM     11  C   UNL     1      -0.571  -4.096  -2.165  0.00  0.00    +0.004 A 
ENDBRANCH   4   9
BRANCH   4  12
ATOM     12  C   UNL     1       1.890  -0.571  -2.948  0.00  0.00    +0.238 C 
ATOM     13  O   UNL     1       2.889  -0.043  -2.509  0.00  0.00    -0.273 OA
ATOM     14  N   UNL     1       1.935  -1.220  -4.129  0.00  0.00    -0.306 N 
ATOM     15  H   UNL     1       1.136  -1.646  -4.478  0.00  0.00    +0.149 HD
BRANCH  14  16
ATOM     16  C   UNL     1       3.188  -1.282  -4.884  0.00  0.00    +0.178 C 
BRANCH  16  17
ATOM     17  C   UNL     1       2.970  -2.058  -6.157  0.00  0.00    +0.122 A 
ATOM     18  C   UNL     1       2.591  -1.540  -7.339  0.00  0.00    +0.046 A 
ATOM     19  C   UNL     1       2.509  -2.617  -8.251  0.00  0.00    +0.041 A 
ATOM     20  C   UNL     1       2.844  -3.729  -7.572  0.00  0.00    +0.195 A 
ATOM     21  O   UNL     1       3.128  -3.383  -6.305  0.00  0.00    -0.466 OA
ENDBRANCH  16  17
ENDBRANCH  14  16
ENDBRANCH   4  12
ENDBRANCH   1   4
BRANCH   1  22
ATOM     22  C   UNL     1       2.277  -0.560  -0.268  0.00  0.00    +0.144 C 
BRANCH  22  23
ATOM     23  C   UNL     1       2.790   0.786   0.176  0.00  0.00    -0.030 A 
ATOM     24  C   UNL     1       2.226   1.941  -0.332  0.00  0.00    +0.008 A 
ATOM     25  C   UNL     1       2.692   3.176   0.078  0.00  0.00    +0.038 A 
ATOM     26  C   UNL     1       3.732   3.256   0.988  0.00  0.00    +0.123 A 
ATOM     27  C   UNL     1       4.300   2.098   1.492  0.00  0.00    +0.038 A 
ATOM     28  C   UNL     1       3.828   0.864   1.085  0.00  0.00    +0.008 A 
ATOM     29  F   UNL     1       4.192   4.462   1.385  0.00  0.00    -0.205 F 
ENDBRANCH  22  23
ENDBRANCH   1  22
BRANCH   2  30
ATOM     30  C   UNL     1       0.210  -0.074   1.611  0.00  0.00    +0.200 C 
BRANCH  30  31
ATOM     31  N   UNL     1      -1.040  -0.015   2.373  0.00  0.00    -0.300 N 
ATOM     32  C   UNL     1      -1.006   0.121   3.713  0.00  0.00    +0.280 C 
ATOM     33  O   UNL     1       0.062   0.194   4.291  0.00  0.00    -0.267 OA
ATOM     34  H   UNL     1      -1.891  -0.073   1.913  0.00  0.00    +0.150 HD
BRANCH  32  35
ATOM     35  C   UNL     1      -2.258   0.180   4.476  0.00  0.00    +0.189 A 
ATOM     36  C   UNL     1      -2.366   0.315   5.830  0.00  0.00    +0.054 A 
ATOM     37  C   UNL     1      -3.739   0.326   6.126  0.00  0.00    +0.042 A 
ATOM     38  C   UNL     1      -4.399   0.199   4.954  0.00  0.00    +0.196 A 
ATOM     39  O   UNL     1      -3.503   0.117   3.961  0.00  0.00    -0.458 OA
ENDBRANCH  32  35
ENDBRANCH  30  31
ENDBRANCH   2  30
TORSDOF 10
