REMARK  Name = ZINC63426745
REMARK  8 active torsions:
REMARK  status: ('A' for Active; 'I' for Inactive)
REMARK    1  A    between atoms: C_1  and  C_2
REMARK    2  A    between atoms: C_2  and  N_20
REMARK    3  A    between atoms: N_9  and  C_12
REMARK    4  A    between atoms: C_15  and  O_18
REMARK    5  A    between atoms: O_18  and  C_19
REMARK    6  A    between atoms: N_20  and  C_21
REMARK    7  A    between atoms: C_21  and  C_22
REMARK    8  A    between atoms: C_22  and  C_23
REMARK                            x       y       z     vdW  Elec       q    Type
REMARK                         _______ _______ _______ _____ _____    ______ ____
ROOT
ATOM      1  C   UNL     1       1.894   1.209   0.218  0.00  0.00    +0.061 C 
ATOM      2  C   UNL     1       1.180  -0.104   0.029  0.00  0.00    +0.018 C 
ATOM      3  C   UNL     1       0.671  -0.779   1.123  0.00  0.00    +0.116 C 
ATOM      4  C   UNL     1       0.089  -2.127   0.993  0.00  0.00    +0.258 C 
ATOM      5  O   UNL     1       0.041  -2.685  -0.087  0.00  0.00    -0.270 OA
ATOM      6  N   UNL     1      -0.388  -2.725   2.104  0.00  0.00    -0.235 N 
ATOM      7  C   UNL     1      -0.341  -2.122   3.300  0.00  0.00    +0.320 C 
ATOM      8  O   UNL     1      -0.788  -2.715   4.261  0.00  0.00    -0.251 OA
ATOM      9  N   UNL     1       0.174  -0.899   3.491  0.00  0.00    -0.190 N 
ATOM     10  C   UNL     1       0.693  -0.185   2.471  0.00  0.00    +0.265 C 
ATOM     11  O   UNL     1       1.162   0.922   2.658  0.00  0.00    -0.269 OA
ATOM     12  H   UNL     1      -0.774  -3.613   2.035  0.00  0.00    +0.159 HD
ENDROOT
BRANCH   9  13
ATOM     13  C   UNL     1       0.177  -0.352   4.783  0.00  0.00    +0.046 A 
ATOM     14  C   UNL     1      -0.863   0.471   5.191  0.00  0.00    +0.027 A 
ATOM     15  C   UNL     1      -0.859   1.010   6.463  0.00  0.00    +0.047 A 
ATOM     16  C   UNL     1       0.185   0.728   7.332  0.00  0.00    +0.120 A 
ATOM     17  C   UNL     1       1.225  -0.094   6.924  0.00  0.00    +0.047 A 
ATOM     18  C   UNL     1       1.219  -0.637   5.655  0.00  0.00    +0.027 A 
BRANCH  16  19
ATOM     19  O   UNL     1       0.189   1.258   8.584  0.00  0.00    -0.495 OA
ATOM     20  C   UNL     1       1.294   0.926   9.426  0.00  0.00    +0.277 C 
ENDBRANCH  16  19
ENDBRANCH   9  13
BRANCH   2  21
ATOM     21  N   UNL     1       1.036  -0.621  -1.208  0.00  0.00    -0.346 N 
ATOM     22  H   UNL     1       0.529  -1.438  -1.337  0.00  0.00    +0.146 HD
BRANCH  21  23
ATOM     23  C   UNL     1       1.646   0.051  -2.358  0.00  0.00    +0.105 C 
BRANCH  23  24
ATOM     24  C   UNL     1       1.335  -0.735  -3.633  0.00  0.00    +0.052 C 
BRANCH  24  25
ATOM     25  C   UNL     1       1.962  -0.043  -4.816  0.00  0.00    -0.040 C 
ATOM     26  C   UNL     1       3.161  -0.319  -5.377  0.00  0.00    -0.001 A 
ATOM     27  C   UNL     1       4.202  -1.306  -5.065  0.00  0.00    +0.010 A 
ATOM     28  C   UNL     1       5.321  -1.342  -5.824  0.00  0.00    +0.001 A 
ATOM     29  C   UNL     1       5.512  -0.461  -6.897  0.00  0.00    +0.002 A 
ATOM     30  C   UNL     1       4.602   0.473  -7.245  0.00  0.00    +0.026 A 
ATOM     31  C   UNL     1       3.387   0.600  -6.516  0.00  0.00    +0.043 A 
ATOM     32  N   UNL     1       2.367   1.411  -6.654  0.00  0.00    -0.380 N 
ATOM     33  C   UNL     1       1.375   1.095  -5.620  0.00  0.00    +0.144 C 
ATOM     34  H   UNL     1       2.281   2.103  -7.329  0.00  0.00    +0.160 HD
ENDBRANCH  24  25
ENDBRANCH  23  24
ENDBRANCH  21  23
ENDBRANCH   2  21
TORSDOF 6
