REMARK  Name = ZINC57406238
REMARK  7 active torsions:
REMARK  status: ('A' for Active; 'I' for Inactive)
REMARK    1  A    between atoms: C_1  and  C_2
REMARK    2  A    between atoms: C_2  and  C_4
REMARK    3  A    between atoms: C_2  and  N_17
REMARK    4  A    between atoms: N_6  and  C_7
REMARK    5  A    between atoms: C_10  and  S_13
REMARK    6  A    between atoms: S_13  and  N_16
REMARK    7  A    between atoms: N_20  and  C_23
REMARK                            x       y       z     vdW  Elec       q    Type
REMARK                         _______ _______ _______ _____ _____    ______ ____
ROOT
ATOM      1  C   UNL     1      -1.474  -0.392   0.094  0.00  0.00    +0.234 C 
ATOM      2  O   UNL     1      -1.913  -0.969   1.067  0.00  0.00    -0.274 OA
ATOM      3  N   UNL     1      -2.256  -0.206  -0.988  0.00  0.00    -0.284 N 
ATOM      4  H   UNL     1      -1.932   0.321  -1.736  0.00  0.00    +0.155 HD
ENDROOT
BRANCH   3   5
ATOM      5  C   UNL     1      -3.534  -0.773  -1.034  0.00  0.00    +0.034 A 
ATOM      6  C   UNL     1      -4.562  -0.119  -1.699  0.00  0.00    +0.025 A 
ATOM      7  C   UNL     1      -5.823  -0.682  -1.742  0.00  0.00    +0.030 A 
ATOM      8  C   UNL     1      -6.061  -1.895  -1.124  0.00  0.00    +0.105 A 
ATOM      9  C   UNL     1      -5.040  -2.549  -0.461  0.00  0.00    +0.030 A 
ATOM     10  C   UNL     1      -3.775  -1.995  -0.419  0.00  0.00    +0.025 A 
BRANCH   8  11
ATOM     11  S   UNL     1      -7.671  -2.610  -1.182  0.00  0.00    +0.056 S 
ATOM     12  O   UNL     1      -7.769  -3.482  -0.064  0.00  0.00    -0.153 OA
ATOM     13  O   UNL     1      -8.582  -1.541  -1.396  0.00  0.00    -0.153 OA
BRANCH  11  14
ATOM     14  N   UNL     1      -7.735  -3.564  -2.534  0.00  0.00    -0.204 NA
ATOM     15  H   UNL     1      -6.961  -3.637  -3.113  0.00  0.00    +0.144 HD
ATOM     16  H   UNL     1      -8.547  -4.050  -2.746  0.00  0.00    +0.144 HD
ENDBRANCH  11  14
ENDBRANCH   8  11
ENDBRANCH   3   5
BRANCH   1  18
ATOM     17  C   UNL     1      -0.058   1.635  -0.103  0.00  0.00    +0.034 C 
ATOM     18  C   UNL     1      -0.056   0.117   0.096  0.00  0.00    +0.140 C 
BRANCH  18  19
ATOM     19  N   UNL     1       0.580  -0.207   1.379  0.00  0.00    -0.289 NA
ATOM     20  C   UNL     1      -0.135   0.426   2.496  0.00  0.00    +0.104 C 
ATOM     21  C   UNL     1       0.444  -0.080   3.821  0.00  0.00    +0.120 C 
ATOM     22  N   UNL     1       1.899   0.139   3.809  0.00  0.00    -0.326 N 
ATOM     23  C   UNL     1       2.666  -0.348   2.653  0.00  0.00    +0.120 C 
ATOM     24  C   UNL     1       2.000   0.168   1.374  0.00  0.00    +0.104 C 
BRANCH  22  25
ATOM     25  C   UNL     1       2.534   0.793   4.869  0.00  0.00    +0.048 A 
ATOM     26  C   UNL     1       3.019   0.063   5.947  0.00  0.00    +0.024 A 
ATOM     27  C   UNL     1       3.647   0.712   6.991  0.00  0.00    +0.002 A 
ATOM     28  C   UNL     1       3.793   2.087   6.966  0.00  0.00    +0.002 A 
ATOM     29  C   UNL     1       3.312   2.817   5.895  0.00  0.00    +0.022 A 
ATOM     30  C   UNL     1       2.688   2.174   4.843  0.00  0.00    +0.062 A 
ATOM     31 CL   UNL     1       2.090   3.090   3.495  0.00  0.00    -0.082 Cl
ENDBRANCH  22  25
ENDBRANCH  18  19
ENDBRANCH   1  18
TORSDOF 6
