REMARK  Name = ZINC39898198
REMARK  13 active torsions:
REMARK  status: ('A' for Active; 'I' for Inactive)
REMARK    1  A    between atoms: C_1  and  C_2
REMARK    2  A    between atoms: C_2  and  O_3
REMARK    3  A    between atoms: O_3  and  C_4
REMARK    4  A    between atoms: C_7  and  C_13
REMARK    5  A    between atoms: C_9  and  O_10
REMARK    6  A    between atoms: O_10  and  C_11
REMARK    7  A    between atoms: C_11  and  C_12
REMARK    8  A    between atoms: C_16  and  C_28
REMARK    9  A    between atoms: N_23  and  C_24
REMARK   10  A    between atoms: C_24  and  C_25
REMARK   11  A    between atoms: C_25  and  O_26
REMARK   12  A    between atoms: O_26  and  C_27
REMARK   13  A    between atoms: C_33  and  O_34
REMARK                            x       y       z     vdW  Elec       q    Type
REMARK                         _______ _______ _______ _____ _____    ______ ____
ROOT
ATOM      1  C   UNL     1       1.826  -5.908  -1.309  0.00  0.00    +0.141 C 
ATOM      2  C   UNL     1       3.031  -6.208  -0.460  0.00  0.00    +0.035 A 
ATOM      3  C   UNL     1       4.392  -5.987  -0.224  0.00  0.00    +0.102 A 
ATOM      4  N   UNL     1       4.731  -6.702   0.830  0.00  0.00    -0.173 NA
ATOM      5  N   UNL     1       3.719  -7.353   1.283  0.00  0.00    -0.272 N 
ATOM      6  H   UNL     1       3.735  -7.943   2.053  0.00  0.00    +0.189 HD
ATOM      7  C   UNL     1       2.617  -7.089   0.520  0.00  0.00    +0.126 A 
ATOM      8  C   UNL     1       1.188  -7.363   0.328  0.00  0.00    +0.266 C 
ATOM      9  O   UNL     1       0.523  -8.102   1.028  0.00  0.00    -0.268 OA
ATOM     10  N   UNL     1       0.718  -6.682  -0.734  0.00  0.00    -0.283 N 
ENDROOT
BRANCH   3  11
ATOM     11  C   UNL     1       5.290  -5.109  -1.016  0.00  0.00    +0.045 A 
ATOM     12  C   UNL     1       4.829  -4.511  -2.186  0.00  0.00    +0.033 A 
ATOM     13  C   UNL     1       5.668  -3.695  -2.919  0.00  0.00    +0.042 A 
ATOM     14  C   UNL     1       6.967  -3.470  -2.495  0.00  0.00    +0.023 A 
ATOM     15  C   UNL     1       7.433  -4.061  -1.336  0.00  0.00    +0.047 A 
ATOM     16  C   UNL     1       6.599  -4.876  -0.588  0.00  0.00    +0.126 A 
ATOM     17 CL   UNL     1       5.093  -2.949  -4.377  0.00  0.00    -0.084 Cl
BRANCH  16  18
ATOM     18  O   UNL     1       7.055  -5.452   0.555  0.00  0.00    -0.506 OA
ATOM     19  H   UNL     1       7.463  -6.319   0.423  0.00  0.00    +0.292 HD
ENDBRANCH  16  18
ENDBRANCH   3  11
BRANCH   1  23
ATOM     20  C   UNL     1       0.930  -1.728  -1.174  0.00  0.00    +0.162 A 
ATOM     21  C   UNL     1       1.410  -2.299  -2.341  0.00  0.00    +0.050 A 
ATOM     22  C   UNL     1       1.699  -3.651  -2.382  0.00  0.00    +0.009 A 
ATOM     23  C   UNL     1       1.510  -4.435  -1.259  0.00  0.00    -0.019 A 
ATOM     24  C   UNL     1       1.031  -3.871  -0.091  0.00  0.00    +0.055 A 
ATOM     25  C   UNL     1       0.745  -2.516  -0.042  0.00  0.00    +0.162 A 
BRANCH  20  26
ATOM     26  O   UNL     1       0.646  -0.399  -1.133  0.00  0.00    -0.489 OA
BRANCH  26  28
ATOM     27  C   UNL     1       0.488   1.813  -2.094  0.00  0.00    +0.048 C 
ATOM     28  C   UNL     1       0.861   0.348  -2.332  0.00  0.00    +0.226 C 
ENDBRANCH  26  28
ENDBRANCH  20  26
BRANCH  25  29
ATOM     29  O   UNL     1       0.280  -1.959   1.108  0.00  0.00    -0.489 OA
BRANCH  29  30
ATOM     30  C   UNL     1       0.159  -2.819   2.243  0.00  0.00    +0.226 C 
ATOM     31  C   UNL     1      -0.319  -2.008   3.448  0.00  0.00    +0.048 C 
ENDBRANCH  29  30
ENDBRANCH  25  29
ENDBRANCH   1  23
BRANCH  10  32
ATOM     32  C   UNL     1      -0.660  -6.707  -1.230  0.00  0.00    +0.137 C 
BRANCH  32  33
ATOM     33  C   UNL     1      -0.810  -7.826  -2.262  0.00  0.00    +0.178 C 
BRANCH  33  34
ATOM     34  O   UNL     1      -0.614  -9.091  -1.626  0.00  0.00    -0.381 OA
ATOM     35  C   UNL     1      -0.734 -10.209  -2.507  0.00  0.00    +0.194 C 
ENDBRANCH  33  34
ENDBRANCH  32  33
ENDBRANCH  10  32
TORSDOF 10
