REMARK  Name = ZINC12544250
REMARK  4 active torsions:
REMARK  status: ('A' for Active; 'I' for Inactive)
REMARK    1  A    between atoms: C_4  and  C_7
REMARK    2  A    between atoms: C_18  and  C_20
REMARK    3  A    between atoms: C_20  and  N_60
REMARK    4  A    between atoms: C_23  and  C_26
REMARK                            x       y       z     vdW  Elec       q    Type
REMARK                         _______ _______ _______ _____ _____    ______ ____
ROOT
ATOM      1  C   UNL     1      -1.057   3.678  -0.099  0.00  0.00    +0.149 C 
ATOM      2  C   UNL     1      -2.174   2.857  -0.759  0.00  0.00    +0.256 C 
ATOM      3  O   UNL     1      -1.737   1.503  -0.895  0.00  0.00    -0.488 OA
ATOM      4  C   UNL     1      -1.202   0.898   0.198  0.00  0.00    +0.142 A 
ATOM      5  C   UNL     1      -1.152  -0.487   0.260  0.00  0.00    +0.047 A 
ATOM      6  C   UNL     1      -0.607  -1.111   1.366  0.00  0.00    +0.004 A 
ATOM      7  C   UNL     1      -0.109  -0.361   2.416  0.00  0.00    +0.002 A 
ATOM      8  C   UNL     1      -0.156   1.020   2.363  0.00  0.00    +0.027 A 
ATOM      9  C   UNL     1      -0.703   1.650   1.257  0.00  0.00    +0.079 A 
ATOM     10  N   UNL     1      -0.756   3.054   1.201  0.00  0.00    -0.259 N 
ATOM     11  C   UNL     1      -0.541   3.804   2.300  0.00  0.00    +0.204 C 
ATOM     12  O   UNL     1      -0.401   3.272   3.380  0.00  0.00    -0.277 OA
ENDROOT
BRANCH   1  16
ATOM     13  C   UNL     1       2.431   3.625  -2.565  0.00  0.00    +0.000 A 
ATOM     14  C   UNL     1       1.586   4.719  -2.586  0.00  0.00    +0.000 A 
ATOM     15  C   UNL     1       0.457   4.736  -1.788  0.00  0.00    +0.005 A 
ATOM     16  C   UNL     1       0.173   3.659  -0.969  0.00  0.00    -0.023 A 
ATOM     17  C   UNL     1       1.021   2.567  -0.944  0.00  0.00    +0.005 A 
ATOM     18  C   UNL     1       2.147   2.548  -1.746  0.00  0.00    +0.000 A 
ENDBRANCH   1  16
BRANCH  11  19
ATOM     19  C   UNL     1      -0.474   5.306   2.186  0.00  0.00    +0.020 C 
BRANCH  19  25
ATOM     20  C   UNL     1      -0.222   7.345   3.471  0.00  0.00    -0.073 C 
ATOM     21  C   UNL     1      -0.124   7.853   4.912  0.00  0.00    +0.017 C 
ATOM     22  C   UNL     1       1.078   7.249   5.582  0.00  0.00    -0.046 C 
ATOM     23  C   UNL     1       1.702   6.193   5.104  0.00  0.00    -0.041 C 
ATOM     24  C   UNL     1       1.281   5.494   3.843  0.00  0.00    -0.050 C 
ATOM     25  N   UNL     1      -0.103   5.873   3.502  0.00  0.00    +0.388 N 
ATOM     26  H   UNL     1      -0.739   5.500   4.217  0.00  0.00    -0.081 HD
BRANCH  22  27
ATOM     27  C   UNL     1       1.580   7.865   6.826  0.00  0.00    +0.004 A 
ATOM     28  C   UNL     1       2.285   9.020   6.934  0.00  0.00    +0.093 A 
ATOM     29  N   UNL     1       2.569   9.265   8.246  0.00  0.00    -0.345 N 
ATOM     30  H   UNL     1       3.062  10.035   8.572  0.00  0.00    +0.167 HD
ATOM     31  C   UNL     1       2.060   8.265   9.041  0.00  0.00    +0.139 A 
ATOM     32  C   UNL     1       1.419   7.344   8.193  0.00  0.00    +0.026 A 
ATOM     33  C   UNL     1       0.808   6.216   8.739  0.00  0.00    +0.013 A 
ATOM     34  C   UNL     1       0.858   6.049  10.111  0.00  0.00    +0.020 A 
ATOM     35  C   UNL     1       1.506   6.996  10.888  0.00  0.00    +0.113 A 
ATOM     36  N   UNL     1       2.077   8.053  10.351  0.00  0.00    -0.237 NA
ENDBRANCH  22  27
ENDBRANCH  19  25
ENDBRANCH  11  19
TORSDOF 4
