REMARK  Name = ZINC32527967
REMARK  6 active torsions:
REMARK  status: ('A' for Active; 'I' for Inactive)
REMARK    1  A    between atoms: C_1  and  C_2
REMARK    2  A    between atoms: C_2  and  C_4
REMARK    3  A    between atoms: C_2  and  S_21
REMARK    4  A    between atoms: C_9  and  C_12
REMARK    5  A    between atoms: C_16  and  N_18
REMARK    6  A    between atoms: S_21  and  C_22
REMARK                            x       y       z     vdW  Elec       q    Type
REMARK                         _______ _______ _______ _____ _____    ______ ____
ROOT
ATOM      1  C   UNL     1       4.649   0.390  -0.040  0.00  0.00    +0.232 C 
ATOM      2  O   UNL     1       4.452   1.586  -0.032  0.00  0.00    -0.274 OA
ATOM      3  N   UNL     1       3.607  -0.465  -0.035  0.00  0.00    -0.264 N 
ATOM      4  C   UNL     1       2.307   0.024  -0.020  0.00  0.00    +0.165 A 
ATOM      5  N   UNL     1       1.165  -0.638  -0.013  0.00  0.00    -0.225 NA
ATOM      6  C   UNL     1       0.002  -0.004   0.002  0.00  0.00    +0.080 A 
ATOM      7  C   UNL     1      -0.017   1.363   0.009  0.00  0.00    +0.076 A 
ATOM      8  S   UNL     1       1.736   1.718  -0.005  0.00  0.00    -0.060 S 
ATOM      9  H   UNL     1       3.786  -1.551  -0.043  0.00  0.00    +0.157 HD
ENDROOT
BRANCH   6  10
ATOM     10  C   UNL     1      -1.268  -0.770   0.011  0.00  0.00    +0.003 A 
ATOM     11  C   UNL     1      -2.488  -0.102  -0.079  0.00  0.00    +0.010 A 
ATOM     12  C   UNL     1      -3.667  -0.820  -0.070  0.00  0.00    +0.003 A 
ATOM     13  C   UNL     1      -3.639  -2.200   0.026  0.00  0.00    +0.033 A 
ATOM     14  C   UNL     1      -2.431  -2.868   0.115  0.00  0.00    +0.127 A 
ATOM     15  C   UNL     1      -1.246  -2.160   0.102  0.00  0.00    +0.042 A 
BRANCH  14  16
ATOM     16  N   UNL     1      -2.409  -4.344   0.219  0.00  0.00    +0.056 N 
ATOM     17  O   UNL     1      -3.454  -4.970   0.226  0.00  0.00    -0.126 OA
ATOM     18  O   UNL     1      -1.346  -4.933   0.297  0.00  0.00    -0.126 OA
ENDBRANCH  14  16
ENDBRANCH   6  10
BRANCH   1  20
ATOM     19  C   UNL     1       6.462  -0.563   1.358  0.00  0.00    +0.029 C 
ATOM     20  C   UNL     1       6.059  -0.141  -0.057  0.00  0.00    +0.136 C 
BRANCH  20  21
ATOM     21  S   UNL     1       7.183   1.150  -0.644  0.00  0.00    -0.093 S 
BRANCH  21  22
ATOM     22  C   UNL     1       8.690   0.239  -0.707  0.00  0.00    +0.098 A 
ATOM     23  C   UNL     1       9.862   0.881  -1.133  0.00  0.00    +0.035 A 
ATOM     24  C   UNL     1      11.035   0.191  -1.181  0.00  0.00    +0.012 A 
ATOM     25  C   UNL     1      11.027  -1.169  -0.806  0.00  0.00    +0.000 A 
ATOM     26  C   UNL     1      12.198  -1.940  -0.839  0.00  0.00    +0.010 A 
ATOM     27  C   UNL     1      12.152  -3.251  -0.470  0.00  0.00    +0.001 A 
ATOM     28  C   UNL     1      10.957  -3.836  -0.061  0.00  0.00    +0.002 A 
ATOM     29  C   UNL     1       9.802  -3.117  -0.018  0.00  0.00    +0.028 A 
ATOM     30  C   UNL     1       9.810  -1.762  -0.391  0.00  0.00    +0.072 A 
ATOM     31  N   UNL     1       8.688  -1.032  -0.358  0.00  0.00    -0.240 NA
ENDBRANCH  21  22
ENDBRANCH  20  21
ENDBRANCH   1  20
TORSDOF 5
