REMARK  Name = ZINC22018667
REMARK  16 active torsions:
REMARK  status: ('A' for Active; 'I' for Inactive)
REMARK    1  A    between atoms: C_1  and  C_2
REMARK    2  A    between atoms: C_2  and  O_3
REMARK    3  A    between atoms: O_3  and  C_4
REMARK    4  A    between atoms: C_4  and  C_6
REMARK    5  A    between atoms: C_9  and  O_12
REMARK    6  A    between atoms: O_12  and  C_13
REMARK    7  A    between atoms: C_13  and  C_14
REMARK    8  A    between atoms: C_14  and  C_16
REMARK    9  A    between atoms: C_14  and  O_35
REMARK   10  A    between atoms: C_16  and  N_17
REMARK   11  A    between atoms: C_20  and  C_24
REMARK   12  A    between atoms: C_20  and  C_25
REMARK   13  A    between atoms: C_25  and  C_26
REMARK   14  A    between atoms: C_26  and  C_27
REMARK   15  A    between atoms: C_30  and  O_33
REMARK   16  A    between atoms: O_33  and  C_34
REMARK                            x       y       z     vdW  Elec       q    Type
REMARK                         _______ _______ _______ _____ _____    ______ ____
ROOT
ATOM      1  N   UNL     1      -0.929   0.314   3.158  0.00  0.00    -0.222 N 
ATOM      2  C   UNL     1      -0.026   1.077   2.512  0.00  0.00    +0.246 C 
ATOM      3  O   UNL     1       1.113   1.312   2.855  0.00  0.00    -0.273 OA
ATOM      4  C   UNL     1      -0.729   1.579   1.267  0.00  0.00    +0.110 C 
ATOM      5  N   UNL     1      -2.073   0.985   1.365  0.00  0.00    -0.285 N 
ATOM      6  C   UNL     1      -2.094   0.265   2.501  0.00  0.00    +0.309 C 
ATOM      7  O   UNL     1      -3.062  -0.361   2.886  0.00  0.00    -0.252 OA
ATOM      8  C   UNL     1      -0.013   1.086   0.008  0.00  0.00    +0.041 C 
ATOM      9  H   UNL     1      -2.820   1.181   0.581  0.00  0.00    +0.151 HD
ENDROOT
BRANCH   1  10
ATOM     10  C   UNL     1      -0.669  -0.377   4.424  0.00  0.00    +0.152 C 
BRANCH  10  11
ATOM     11  C   UNL     1      -1.038   0.542   5.590  0.00  0.00    +0.170 C 
BRANCH  11  12
ATOM     12  O   UNL     1      -2.446   0.788   5.576  0.00  0.00    -0.387 OA
ATOM     13  H   UNL     1      -2.912   1.268   4.703  0.00  0.00    +0.210 HD
ENDBRANCH  11  12
BRANCH  11  14
ATOM     14  C   UNL     1      -0.651  -0.129   6.910  0.00  0.00    +0.261 C 
BRANCH  14  15
ATOM     15  O   UNL     1      -0.888   0.774   7.991  0.00  0.00    -0.489 OA
BRANCH  15  19
ATOM     16  C   UNL     1       0.004  -0.574  11.789  0.00  0.00    +0.059 A 
ATOM     17  C   UNL     1      -0.506   0.715  11.605  0.00  0.00    +0.018 A 
ATOM     18  C   UNL     1      -0.802   1.161  10.336  0.00  0.00    +0.046 A 
ATOM     19  C   UNL     1      -0.595   0.331   9.240  0.00  0.00    +0.121 A 
ATOM     20  C   UNL     1      -0.093  -0.953   9.420  0.00  0.00    +0.046 A 
ATOM     21  C   UNL     1       0.211  -1.404  10.684  0.00  0.00    +0.018 A 
BRANCH  16  22
ATOM     22  C   UNL     1       0.322  -1.056  13.146  0.00  0.00    +0.339 C 
ATOM     23  O   UNL     1       0.141  -0.333  14.106  0.00  0.00    -0.245 OA
BRANCH  22  24
ATOM     24  O   UNL     1       0.813  -2.298  13.322  0.00  0.00    -0.461 OA
BRANCH  24  26
ATOM     25  C   UNL     1       1.648  -4.135  14.686  0.00  0.00    +0.048 C 
ATOM     26  C   UNL     1       1.103  -2.705  14.685  0.00  0.00    +0.229 C 
ENDBRANCH  24  26
ENDBRANCH  22  24
ENDBRANCH  16  22
ENDBRANCH  15  19
ENDBRANCH  14  15
ENDBRANCH  11  14
ENDBRANCH  10  11
ENDBRANCH   1  10
BRANCH   4  27
ATOM     27  C   UNL     1      -0.810   3.107   1.274  0.00  0.00    +0.039 C 
BRANCH  27  28
ATOM     28  C   UNL     1      -1.675   3.577   0.103  0.00  0.00    +0.038 C 
BRANCH  28  29
ATOM     29  C   UNL     1      -1.755   5.082   0.110  0.00  0.00    -0.047 A 
ATOM     30  C   UNL     1      -2.768   5.716   0.805  0.00  0.00    +0.007 A 
ATOM     31  C   UNL     1      -2.840   7.096   0.818  0.00  0.00    +0.046 A 
ATOM     32  C   UNL     1      -1.902   7.845   0.123  0.00  0.00    +0.120 A 
ATOM     33  C   UNL     1      -0.890   7.206  -0.579  0.00  0.00    +0.046 A 
ATOM     34  C   UNL     1      -0.819   5.826  -0.583  0.00  0.00    +0.007 A 
BRANCH  32  35
ATOM     35  O   UNL     1      -1.975   9.202   0.129  0.00  0.00    -0.495 OA
ATOM     36  C   UNL     1      -3.043   9.791   0.872  0.00  0.00    +0.277 C 
ENDBRANCH  32  35
ENDBRANCH  28  29
ENDBRANCH  27  28
ENDBRANCH   4  27
TORSDOF 13
