REMARK  Name = ZINC02406957
REMARK  7 active torsions:
REMARK  status: ('A' for Active; 'I' for Inactive)
REMARK    1  A    between atoms: C_1  and  O_2
REMARK    2  A    between atoms: O_2  and  C_3
REMARK    3  A    between atoms: C_7  and  N_9
REMARK    4  A    between atoms: C_10  and  C_20
REMARK    5  A    between atoms: C_15  and  C_18
REMARK    6  A    between atoms: C_24  and  C_25
REMARK    7  A    between atoms: C_28  and  N_31
REMARK                            x       y       z     vdW  Elec       q    Type
REMARK                         _______ _______ _______ _____ _____    ______ ____
ROOT
ATOM      1  N   UNL     1       1.983   2.707  -0.156  0.00  0.00    -0.270 N 
ATOM      2  C   UNL     1       3.391   2.865  -0.535  0.00  0.00    +0.201 C 
ATOM      3  N   UNL     1       4.121   1.628  -0.255  0.00  0.00    -0.288 N 
ATOM      4  C   UNL     1       3.499   0.434  -0.324  0.00  0.00    +0.258 C 
ATOM      5  O   UNL     1       4.124  -0.594  -0.131  0.00  0.00    -0.269 OA
ATOM      6  C   UNL     1       2.067   0.378  -0.627  0.00  0.00    +0.142 C 
ATOM      7  C   UNL     1       1.321   1.565  -0.531  0.00  0.00    +0.103 C 
ATOM      8  S   UNL     1      -0.407   1.584  -0.873  0.00  0.00    -0.033 SA
ATOM      9  H   UNL     1       5.187   1.667   0.014  0.00  0.00    +0.151 HD
ENDROOT
BRANCH   1  14
ATOM     10  C   UNL     1       0.232   4.427   2.585  0.00  0.00    +0.122 A 
ATOM     11  C   UNL     1       0.028   5.678   2.019  0.00  0.00    +0.046 A 
ATOM     12  C   UNL     1       0.474   5.939   0.737  0.00  0.00    +0.005 A 
ATOM     13  C   UNL     1       1.126   4.958   0.016  0.00  0.00    +0.024 A 
ATOM     14  C   UNL     1       1.327   3.702   0.575  0.00  0.00    +0.040 A 
ATOM     15  C   UNL     1       0.881   3.438   1.863  0.00  0.00    +0.069 A 
BRANCH  10  17
ATOM     16  C   UNL     1      -0.868   5.238   4.530  0.00  0.00    +0.277 C 
ATOM     17  O   UNL     1      -0.207   4.172   3.845  0.00  0.00    -0.495 OA
ENDBRANCH  10  17
ENDBRANCH   1  14
BRANCH   2  18
ATOM     18  C   UNL     1       3.482   3.177  -2.007  0.00  0.00    +0.037 A 
ATOM     19  C   UNL     1       2.465   3.725  -2.814  0.00  0.00    +0.049 A 
ATOM     20  C   UNL     1       2.969   3.842  -4.059  0.00  0.00    +0.196 A 
ATOM     21  O   UNL     1       4.232   3.386  -4.055  0.00  0.00    -0.463 OA
ATOM     22  C   UNL     1       4.558   2.978  -2.814  0.00  0.00    +0.141 A 
BRANCH  22  23
ATOM     23  C   UNL     1       5.859   2.414  -2.400  0.00  0.00    +0.018 A 
ATOM     24  C   UNL     1       6.515   2.916  -1.274  0.00  0.00    +0.014 A 
ATOM     25  C   UNL     1       7.727   2.380  -0.890  0.00  0.00    +0.033 A 
ATOM     26  C   UNL     1       8.298   1.356  -1.624  0.00  0.00    +0.126 A 
ATOM     27  C   UNL     1       7.656   0.858  -2.744  0.00  0.00    +0.033 A 
ATOM     28  C   UNL     1       6.441   1.380  -3.136  0.00  0.00    +0.014 A 
BRANCH  26  29
ATOM     29  N   UNL     1       9.602   0.790  -1.210  0.00  0.00    +0.056 N 
ATOM     30  O   UNL     1      10.107  -0.111  -1.854  0.00  0.00    -0.126 OA
ATOM     31  O   UNL     1      10.170   1.227  -0.225  0.00  0.00    -0.126 OA
ENDBRANCH  26  29
ENDBRANCH  22  23
ENDBRANCH   2  18
BRANCH   6  32
ATOM     32  C   UNL     1       1.445  -0.852  -1.015  0.00  0.00    +0.107 C 
ATOM     33  N   UNL     1       0.952  -1.828  -1.322  0.00  0.00    -0.191 NA
ENDBRANCH   6  32
TORSDOF 6
