REMARK  Name = ZINC16932648
REMARK  7 active torsions:
REMARK  status: ('A' for Active; 'I' for Inactive)
REMARK    1  A    between atoms: C_1  and  C_2
REMARK    2  A    between atoms: C_5  and  N_9
REMARK    3  A    between atoms: C_6  and  O_8
REMARK    4  A    between atoms: N_11  and  C_23
REMARK    5  A    between atoms: C_15  and  C_16
REMARK    6  A    between atoms: C_19  and  C_21
REMARK    7  A    between atoms: C_23  and  C_24
REMARK                            x       y       z     vdW  Elec       q    Type
REMARK                         _______ _______ _______ _____ _____    ______ ____
ROOT
ATOM      1  N   UNL     1      -0.016   1.310   0.009  0.00  0.00    -0.222 NA
ATOM      2  C   UNL     1       0.029  -0.000   0.098  0.00  0.00    +0.169 C 
ATOM      3  N   UNL     1      -1.017  -0.887   0.231  0.00  0.00    -0.242 N 
ATOM      4  C   UNL     1      -0.792  -2.188   0.302  0.00  0.00    +0.259 C 
ATOM      5  O   UNL     1      -1.705  -2.986   0.415  0.00  0.00    -0.269 OA
ATOM      6  C   UNL     1       0.611  -2.629   0.247  0.00  0.00    +0.081 C 
ATOM      7  C   UNL     1       1.124  -3.891   0.304  0.00  0.00    +0.066 C 
ATOM      8  S   UNL     1       1.462  -1.066   0.085  0.00  0.00    -0.049 S 
ENDROOT
BRANCH   1  13
ATOM      9  C   UNL     1       4.713   4.235  -0.989  0.00  0.00    +0.044 C 
ATOM     10  C   UNL     1       3.451   3.456  -0.721  0.00  0.00    -0.047 A 
ATOM     11  C   UNL     1       3.131   2.369  -1.515  0.00  0.00    +0.005 A 
ATOM     12  C   UNL     1       1.978   1.649  -1.276  0.00  0.00    +0.032 A 
ATOM     13  C   UNL     1       1.130   2.019  -0.232  0.00  0.00    +0.108 A 
ATOM     14  C   UNL     1       1.455   3.124   0.566  0.00  0.00    +0.142 A 
ATOM     15  C   UNL     1       2.618   3.832   0.318  0.00  0.00    +0.051 A 
BRANCH  14  16
ATOM     16  O   UNL     1       0.633   3.497   1.583  0.00  0.00    -0.505 OA
ATOM     17  H   UNL     1       0.839   3.076   2.429  0.00  0.00    +0.292 HD
ENDBRANCH  14  16
ENDBRANCH   1  13
BRANCH   7  18
ATOM     18  C   UNL     1       2.522  -4.090   0.231  0.00  0.00    +0.129 A 
ATOM     19  C   UNL     1       3.174  -5.305   0.282  0.00  0.00    +0.049 A 
ATOM     20  C   UNL     1       4.546  -5.027   0.172  0.00  0.00    +0.045 A 
ATOM     21  C   UNL     1       4.675  -3.686   0.070  0.00  0.00    +0.103 A 
ATOM     22  O   UNL     1       3.457  -3.125   0.106  0.00  0.00    -0.461 OA
ATOM     23  C   UNL     1       5.978  -2.941  -0.063  0.00  0.00    +0.086 C 
ENDBRANCH   7  18
BRANCH   3  24
ATOM     24  C   UNL     1      -2.392  -0.385   0.289  0.00  0.00    +0.142 C 
BRANCH  24  25
ATOM     25  C   UNL     1      -2.959  -0.312  -1.106  0.00  0.00    -0.015 C 
ATOM     26  C   UNL     1      -4.082  -0.924  -1.389  0.00  0.00    +0.005 C 
ENDBRANCH  24  25
ENDBRANCH   3  24
TORSDOF 5
