REMARK  Name = ZINC13312349
REMARK  8 active torsions:
REMARK  status: ('A' for Active; 'I' for Inactive)
REMARK    1  A    between atoms: C_1  and  C_2
REMARK    2  A    between atoms: C_2  and  C_4
REMARK    3  A    between atoms: C_2  and  O_15
REMARK    4  A    between atoms: N_6  and  C_7
REMARK    5  A    between atoms: O_15  and  C_16
REMARK    6  A    between atoms: C_19  and  S_24
REMARK    7  A    between atoms: C_21  and  C_22
REMARK    8  A    between atoms: S_24  and  N_27
REMARK                            x       y       z     vdW  Elec       q    Type
REMARK                         _______ _______ _______ _____ _____    ______ ____
ROOT
ATOM      1  C   UNL     1       0.216  -0.796   2.265  0.00  0.00    +0.136 A 
ATOM      2  C   UNL     1      -1.154  -0.592   2.331  0.00  0.00    +0.048 A 
ATOM      3  C   UNL     1      -1.823  -0.766   3.527  0.00  0.00    +0.032 A 
ATOM      4  C   UNL     1      -1.131  -1.136   4.669  0.00  0.00    +0.106 A 
ATOM      5  C   UNL     1       0.231  -1.339   4.623  0.00  0.00    +0.047 A 
ATOM      6  C   UNL     1       0.919  -1.171   3.418  0.00  0.00    +0.107 A 
ENDROOT
BRANCH   6   7
ATOM      7  C   UNL     1       2.376  -1.386   3.361  0.00  0.00    +0.390 C 
ATOM      8  O   UNL     1       2.971  -1.239   2.312  0.00  0.00    -0.240 OA
ATOM      9  O   UNL     1       3.048  -1.746   4.472  0.00  0.00    -0.240 OA
ENDBRANCH   6   7
BRANCH   4  10
ATOM     10  S   UNL     1      -1.998  -1.348   6.189  0.00  0.00    +0.061 S 
ATOM     11  O   UNL     1      -3.349  -1.631   5.850  0.00  0.00    -0.153 OA
ATOM     12  O   UNL     1      -1.213  -2.224   6.985  0.00  0.00    -0.153 OA
BRANCH  10  13
ATOM     13  N   UNL     1      -2.000   0.118   6.959  0.00  0.00    -0.177 NA
ATOM     14  C   UNL     1      -0.980   0.589   7.908  0.00  0.00    +0.109 C 
ATOM     15  C   UNL     1      -1.411   1.992   8.384  0.00  0.00    +0.018 C 
ATOM     16  C   UNL     1      -2.940   1.993   8.118  0.00  0.00    +0.018 C 
ATOM     17  C   UNL     1      -3.029   1.164   6.813  0.00  0.00    +0.109 C 
ENDBRANCH  10  13
ENDBRANCH   4  10
BRANCH   1  18
ATOM     18  O   UNL     1       0.873  -0.630   1.090  0.00  0.00    -0.479 OA
BRANCH  18  20
ATOM     19  C   UNL     1       0.056   1.388   0.040  0.00  0.00    +0.062 C 
ATOM     20  C   UNL     1       0.112  -0.140  -0.016  0.00  0.00    +0.256 C 
BRANCH  20  21
ATOM     21  C   UNL     1       0.762  -0.572  -1.305  0.00  0.00    +0.258 C 
ATOM     22  O   UNL     1       1.825  -1.156  -1.281  0.00  0.00    -0.271 OA
ATOM     23  N   UNL     1       0.163  -0.310  -2.483  0.00  0.00    -0.280 N 
ATOM     24  H   UNL     1      -0.644   0.227  -2.508  0.00  0.00    +0.155 HD
BRANCH  23  25
ATOM     25  C   UNL     1       0.706  -0.814  -3.672  0.00  0.00    +0.069 A 
ATOM     26  C   UNL     1       1.502  -1.951  -3.647  0.00  0.00    +0.027 A 
ATOM     27  C   UNL     1       2.036  -2.446  -4.821  0.00  0.00    +0.022 A 
ATOM     28  C   UNL     1       1.780  -1.809  -6.022  0.00  0.00    +0.044 A 
ATOM     29  C   UNL     1       0.987  -0.675  -6.052  0.00  0.00    +0.060 A 
ATOM     30  C   UNL     1       0.445  -0.178  -4.881  0.00  0.00    +0.146 A 
ATOM     31  F   UNL     1      -0.334   0.925  -4.911  0.00  0.00    -0.203 F 
ATOM     32 CL   UNL     1       2.454  -2.434  -7.495  0.00  0.00    -0.083 Cl
ENDBRANCH  23  25
ENDBRANCH  20  21
ENDBRANCH  18  20
ENDBRANCH   1  18
TORSDOF 7
