REMARK  Name = ZINC17080337
REMARK  9 active torsions:
REMARK  status: ('A' for Active; 'I' for Inactive)
REMARK    1  A    between atoms: C_3  and  C_6
REMARK    2  A    between atoms: C_6  and  N_7
REMARK    3  A    between atoms: C_8  and  C_10
REMARK    4  A    between atoms: C_10  and  C_28
REMARK    5  A    between atoms: C_11  and  C_12
REMARK    6  A    between atoms: C_15  and  C_17
REMARK    7  A    between atoms: C_17  and  O_18
REMARK    8  A    between atoms: O_18  and  C_19
REMARK    9  A    between atoms: C_22  and  N_25
REMARK                            x       y       z     vdW  Elec       q    Type
REMARK                         _______ _______ _______ _____ _____    ______ ____
ROOT
ATOM      1  C   UNL     1      -4.867   0.829   0.030  0.00  0.00    +0.130 A 
ATOM      2  C   UNL     1      -6.141   1.372   0.039  0.00  0.00    +0.049 A 
ATOM      3  C   UNL     1      -7.033   0.292   0.037  0.00  0.00    +0.049 A 
ATOM      4  C   UNL     1      -6.293  -0.841   0.027  0.00  0.00    +0.143 A 
ATOM      5  O   UNL     1      -4.994  -0.515   0.017  0.00  0.00    -0.457 OA
ENDROOT
BRANCH   1   7
ATOM      6  C   UNL     1      -2.449   0.872   0.018  0.00  0.00    +0.117 C 
ATOM      7  C   UNL     1      -3.658   1.549   0.028  0.00  0.00    +0.070 C 
BRANCH   6   9
ATOM      8  N   UNL     1      -0.011   0.966   0.007  0.00  0.00    -0.304 N 
ATOM      9  C   UNL     1      -1.187   1.624   0.017  0.00  0.00    +0.255 C 
ATOM     10  O   UNL     1      -1.204   2.841   0.023  0.00  0.00    -0.269 OA
ATOM     11  H   UNL     1       0.002  -0.004   0.002  0.00  0.00    +0.149 HD
BRANCH   8  12
ATOM     12  C   UNL     1       1.248   1.716  -0.001  0.00  0.00    +0.179 C 
BRANCH  12  15
ATOM     13  C   UNL     1       4.033  -0.603  -0.672  0.00  0.00    +0.041 A 
ATOM     14  C   UNL     1       3.001   0.255  -1.116  0.00  0.00    +0.046 A 
ATOM     15  C   UNL     1       2.406   0.752  -0.017  0.00  0.00    +0.122 A 
ATOM     16  O   UNL     1       3.024   0.248   1.064  0.00  0.00    -0.466 OA
ATOM     17  C   UNL     1       4.008  -0.578   0.673  0.00  0.00    +0.195 A 
ENDBRANCH  12  15
ENDBRANCH   8  12
ENDBRANCH   6   9
BRANCH   6  18
ATOM     18  C   UNL     1      -2.429  -0.559   0.011  0.00  0.00    +0.104 C 
ATOM     19  N   UNL     1      -2.414  -1.695   0.004  0.00  0.00    -0.191 NA
ENDBRANCH   6  18
ENDBRANCH   1   7
BRANCH   4  20
ATOM     20  C   UNL     1      -6.842  -2.244   0.022  0.00  0.00    +0.303 C 
BRANCH  20  21
ATOM     21  O   UNL     1      -7.022  -2.680  -1.327  0.00  0.00    -0.484 OA
BRANCH  21  22
ATOM     22  C   UNL     1      -7.514  -3.933  -1.510  0.00  0.00    +0.121 A 
ATOM     23  C   UNL     1      -7.812  -4.730  -0.414  0.00  0.00    +0.048 A 
ATOM     24  C   UNL     1      -8.317  -6.002  -0.602  0.00  0.00    +0.036 A 
ATOM     25  C   UNL     1      -8.515  -6.485  -1.883  0.00  0.00    +0.126 A 
ATOM     26  C   UNL     1      -8.214  -5.696  -2.977  0.00  0.00    +0.036 A 
ATOM     27  C   UNL     1      -7.714  -4.421  -2.793  0.00  0.00    +0.048 A 
BRANCH  25  28
ATOM     28  N   UNL     1      -9.051  -7.851  -2.082  0.00  0.00    +0.056 N 
ATOM     29  O   UNL     1      -9.226  -8.277  -3.209  0.00  0.00    -0.126 OA
ATOM     30  O   UNL     1      -9.317  -8.547  -1.119  0.00  0.00    -0.126 OA
ENDBRANCH  25  28
ENDBRANCH  21  22
ENDBRANCH  20  21
ENDBRANCH   4  20
TORSDOF 9
