REMARK  Name = ZINC51609873
REMARK  6 active torsions:
REMARK  status: ('A' for Active; 'I' for Inactive)
REMARK    1  A    between atoms: C_1  and  C_2
REMARK    2  A    between atoms: C_2  and  C_4
REMARK    3  A    between atoms: C_2  and  O_21
REMARK    4  A    between atoms: C_9  and  O_10
REMARK    5  A    between atoms: O_10  and  C_11
REMARK    6  A    between atoms: C_16  and  N_17
REMARK                            x       y       z     vdW  Elec       q    Type
REMARK                         _______ _______ _______ _____ _____    ______ ____
ROOT
ATOM      1  O   UNL     1      -1.476  -0.350   2.384  0.00  0.00    -0.453 OA
ENDROOT
BRANCH   1   2
ATOM      2  C   UNL     1      -0.695  -1.290   2.978  0.00  0.00    +0.160 A 
ATOM      3  C   UNL     1      -0.457  -2.499   2.340  0.00  0.00    +0.068 A 
ATOM      4  C   UNL     1       0.338  -3.453   2.947  0.00  0.00    +0.045 A 
ATOM      5  C   UNL     1       0.896  -3.203   4.189  0.00  0.00    +0.022 A 
ATOM      6  C   UNL     1       0.659  -1.999   4.825  0.00  0.00    +0.038 A 
ATOM      7  C   UNL     1      -0.130  -1.040   4.220  0.00  0.00    +0.168 A 
ATOM      8 CL   UNL     1       0.637  -4.966   2.150  0.00  0.00    -0.083 Cl
BRANCH   7   9
ATOM      9  N   UNL     1      -0.378   0.252   4.900  0.00  0.00    +0.060 N 
ATOM     10  O   UNL     1       0.115   0.469   5.983  0.00  0.00    -0.126 OA
ATOM     11  O   UNL     1      -1.073   1.089   4.373  0.00  0.00    -0.126 OA
ENDBRANCH   7   9
ENDBRANCH   1   2
BRANCH   1  17
ATOM     12  C   UNL     1      -1.416  -0.490   0.010  0.00  0.00    +0.023 A 
ATOM     13  C   UNL     1      -2.034  -0.824  -1.179  0.00  0.00    +0.010 A 
ATOM     14  C   UNL     1      -3.318  -1.335  -1.173  0.00  0.00    +0.001 A 
ATOM     15  C   UNL     1      -3.989  -1.512   0.023  0.00  0.00    +0.004 A 
ATOM     16  C   UNL     1      -3.376  -1.179   1.216  0.00  0.00    +0.046 A 
ATOM     17  C   UNL     1      -2.084  -0.672   1.212  0.00  0.00    +0.134 A 
BRANCH  12  19
ATOM     18  C   UNL     1      -0.074   1.595   0.033  0.00  0.00    +0.043 C 
ATOM     19  C   UNL     1      -0.015   0.067   0.003  0.00  0.00    +0.145 C 
BRANCH  19  20
ATOM     20  O   UNL     1       0.660  -0.360  -1.182  0.00  0.00    -0.387 OA
ATOM     21  H   UNL     1       1.569  -0.038  -1.254  0.00  0.00    +0.210 HD
ENDBRANCH  19  20
ENDBRANCH  12  19
ENDBRANCH   1  17
TORSDOF 5
