REMARK  Name = ZINC13126499
REMARK  5 active torsions:
REMARK  status: ('A' for Active; 'I' for Inactive)
REMARK    1  A    between atoms: C_1  and  C_2
REMARK    2  A    between atoms: C_3  and  N_11
REMARK    3  A    between atoms: C_7  and  N_8
REMARK    4  A    between atoms: C_12  and  C_13
REMARK    5  A    between atoms: C_16  and  O_20
REMARK                            x       y       z     vdW  Elec       q    Type
REMARK                         _______ _______ _______ _____ _____    ______ ____
ROOT
ATOM      1  N   UNL     1      -0.684   0.172  -2.147  0.00  0.00    -0.255 NA
ATOM      2  C   UNL     1      -0.202  -0.079  -3.332  0.00  0.00    +0.119 C 
ENDROOT
BRANCH   1   5
ATOM      3  C   UNL     1       0.160   1.481   0.230  0.00  0.00    +0.048 C 
ATOM      4  C   UNL     1       0.098  -0.020   0.111  0.00  0.00    +0.005 A 
ATOM      5  C   UNL     1      -0.325  -0.610  -1.083  0.00  0.00    +0.069 A 
ATOM      6  C   UNL     1      -0.379  -2.002  -1.185  0.00  0.00    +0.028 A 
ATOM      7  C   UNL     1      -0.015  -2.784  -0.109  0.00  0.00    +0.004 A 
ATOM      8  C   UNL     1       0.402  -2.193   1.071  0.00  0.00    +0.033 A 
ATOM      9  C   UNL     1       0.464  -0.815   1.177  0.00  0.00    +0.131 A 
BRANCH   9  10
ATOM     10  N   UNL     1       0.917  -0.191   2.441  0.00  0.00    +0.057 N 
ATOM     11  O   UNL     1       1.592   0.812   2.412  0.00  0.00    -0.126 OA
ATOM     12  O   UNL     1       0.613  -0.685   3.502  0.00  0.00    -0.126 OA
ENDBRANCH   9  10
ENDBRANCH   1   5
BRANCH   2  13
ATOM     13  C   UNL     1      -0.670   0.693  -4.494  0.00  0.00    -0.006 A 
ATOM     14  C   UNL     1      -1.627   1.700  -4.329  0.00  0.00    +0.013 A 
ATOM     15  C   UNL     1      -2.062   2.420  -5.419  0.00  0.00    +0.047 A 
ATOM     16  C   UNL     1      -1.551   2.148  -6.683  0.00  0.00    +0.131 A 
ATOM     17  C   UNL     1      -0.600   1.148  -6.853  0.00  0.00    +0.060 A 
ATOM     18  C   UNL     1      -0.154   0.427  -5.767  0.00  0.00    +0.028 A 
ATOM     19 BR   UNL     1       0.089   0.784  -8.575  0.00  0.00    -0.047 Br
BRANCH  16  20
ATOM     20  O   UNL     1      -1.983   2.861  -7.755  0.00  0.00    -0.506 OA
ATOM     21  H   UNL     1      -1.464   3.657  -7.932  0.00  0.00    +0.292 HD
ENDBRANCH  16  20
ENDBRANCH   2  13
TORSDOF 4
