REMARK  Name = ZINC36523526
REMARK  17 active torsions:
REMARK  status: ('A' for Active; 'I' for Inactive)
REMARK    1  A    between atoms: C_1  and  C_2
REMARK    2  A    between atoms: C_2  and  C_3
REMARK    3  A    between atoms: C_2  and  C_4
REMARK    4  A    between atoms: C_2  and  C_5
REMARK    5  A    between atoms: C_5  and  C_6
REMARK    6  A    between atoms: C_6  and  C_7
REMARK    7  A    between atoms: C_6  and  C_8
REMARK    8  A    between atoms: C_6  and  N_9
REMARK    9  A    between atoms: C_10  and  C_12
REMARK   10  A    between atoms: C_12  and  C_14
REMARK   11  A    between atoms: C_12  and  N_21
REMARK   12  A    between atoms: C_18  and  O_20
REMARK   13  A    between atoms: N_21  and  C_22
REMARK   14  A    between atoms: C_23  and  C_25
REMARK   15  A    between atoms: C_31  and  O_33
REMARK   16  A    between atoms: O_33  and  C_34
REMARK   17  A    between atoms: C_34  and  C_35
REMARK                            x       y       z     vdW  Elec       q    Type
REMARK                         _______ _______ _______ _____ _____    ______ ____
ROOT
ATOM      1  C   UNL     1       5.369  -0.495  -4.269  0.00  0.00    +0.192 C 
ENDROOT
BRANCH   1   2
ATOM      2  C   UNL     1       4.759   0.254  -5.425  0.00  0.00    -0.015 A 
ATOM      3  C   UNL     1       4.240   1.521  -5.232  0.00  0.00    +0.006 A 
ATOM      4  C   UNL     1       3.679   2.210  -6.291  0.00  0.00    +0.004 A 
ATOM      5  C   UNL     1       3.636   1.634  -7.546  0.00  0.00    +0.045 A 
ATOM      6  C   UNL     1       4.156   0.363  -7.743  0.00  0.00    +0.117 A 
ATOM      7  C   UNL     1       4.724  -0.324  -6.679  0.00  0.00    +0.051 A 
BRANCH   6   8
ATOM      8  O   UNL     1       4.115  -0.205  -8.976  0.00  0.00    -0.507 OA
ATOM      9  H   UNL     1       4.891  -0.018  -9.522  0.00  0.00    +0.292 HD
ENDBRANCH   6   8
ENDBRANCH   1   2
BRANCH   1  11
ATOM     10  N   UNL     1       3.258  -0.584  -2.982  0.00  0.00    -0.308 N 
ATOM     11  C   UNL     1       4.561  -0.240  -3.023  0.00  0.00    +0.238 C 
ATOM     12  O   UNL     1       5.082   0.275  -2.056  0.00  0.00    -0.273 OA
ATOM     13  H   UNL     1       2.841  -0.996  -3.755  0.00  0.00    +0.149 HD
BRANCH  10  14
ATOM     14  C   UNL     1       2.472  -0.337  -1.771  0.00  0.00    +0.030 C 
ATOM     15  C   UNL     1       2.594   1.137  -1.377  0.00  0.00    +0.031 C 
ATOM     16  C   UNL     1       2.998  -1.214  -0.634  0.00  0.00    +0.031 C 
BRANCH  14  17
ATOM     17  C   UNL     1       1.004  -0.673  -2.038  0.00  0.00    +0.031 C 
BRANCH  17  19
ATOM     18  C   UNL     1       1.052  -1.069  -4.505  0.00  0.00    +0.010 C 
ATOM     19  C   UNL     1       0.592  -0.114  -3.401  0.00  0.00    -0.036 C 
ATOM     20  C   UNL     1       1.243   1.255  -3.608  0.00  0.00    +0.010 C 
ATOM     21  C   UNL     1      -0.930   0.032  -3.454  0.00  0.00    +0.010 C 
ENDBRANCH  17  19
ENDBRANCH  14  17
ENDBRANCH  10  14
ENDBRANCH   1  11
BRANCH   1  22
ATOM     22  N   UNL     1       6.745  -0.035  -4.061  0.00  0.00    -0.287 N 
ATOM     23  C   UNL     1       7.001   1.349  -3.655  0.00  0.00    +0.133 C 
ATOM     24  C   UNL     1       7.774  -0.886  -4.243  0.00  0.00    +0.237 C 
ATOM     25  O   UNL     1       7.562  -2.032  -4.579  0.00  0.00    -0.274 OA
BRANCH  24  26
ATOM     26  C   UNL     1       9.189  -0.413  -4.029  0.00  0.00    +0.165 C 
ATOM     27  C   UNL     1       9.521  -0.415  -2.522  0.00  0.00    +0.033 C 
ATOM     28  C   UNL     1      10.993  -0.904  -2.490  0.00  0.00    +0.021 C 
ATOM     29  C   UNL     1      11.006  -1.925  -3.656  0.00  0.00    +0.112 C 
ATOM     30  N   UNL     1      10.129  -1.333  -4.687  0.00  0.00    -0.256 N 
ATOM     31  C   UNL     1      10.178  -1.592  -6.009  0.00  0.00    +0.404 C 
ATOM     32  O   UNL     1       9.400  -1.044  -6.765  0.00  0.00    -0.226 OA
BRANCH  31  33
ATOM     33  O   UNL     1      11.089  -2.458  -6.491  0.00  0.00    -0.445 OA
BRANCH  33  34
ATOM     34  C   UNL     1      11.084  -2.686  -7.902  0.00  0.00    +0.269 C 
BRANCH  34  35
ATOM     35  C   UNL     1      12.164  -3.676  -8.254  0.00  0.00    -0.010 A 
ATOM     36  C   UNL     1      13.437  -3.232  -8.558  0.00  0.00    +0.007 A 
ATOM     37  C   UNL     1      14.427  -4.141  -8.881  0.00  0.00    +0.000 A 
ATOM     38  C   UNL     1      14.144  -5.494  -8.901  0.00  0.00    +0.000 A 
ATOM     39  C   UNL     1      12.871  -5.938  -8.596  0.00  0.00    +0.000 A 
ATOM     40  C   UNL     1      11.882  -5.030  -8.269  0.00  0.00    +0.007 A 
ENDBRANCH  34  35
ENDBRANCH  33  34
ENDBRANCH  31  33
ENDBRANCH  24  26
ENDBRANCH   1  22
TORSDOF 11
