REMARK  Name = ZINC13263947
REMARK  8 active torsions:
REMARK  status: ('A' for Active; 'I' for Inactive)
REMARK    1  A    between atoms: C_1  and  C_2
REMARK    2  A    between atoms: C_2  and  C_14
REMARK    3  A    between atoms: N_3  and  N_4
REMARK    4  A    between atoms: N_4  and  C_5
REMARK    5  A    between atoms: C_10  and  N_11
REMARK    6  A    between atoms: C_17  and  S_20
REMARK    7  A    between atoms: S_20  and  N_23
REMARK    8  A    between atoms: C_28  and  C_30
REMARK                            x       y       z     vdW  Elec       q    Type
REMARK                         _______ _______ _______ _____ _____    ______ ____
ROOT
ATOM      1  C   UNL     1      -5.015   0.249  -1.325  0.00  0.00    -0.002 A 
ATOM      2  C   UNL     1      -5.030   0.732  -2.636  0.00  0.00    +0.011 A 
ATOM      3  C   UNL     1      -4.122   0.250  -3.556  0.00  0.00    +0.029 A 
ATOM      4  C   UNL     1      -3.198  -0.710  -3.183  0.00  0.00    +0.106 A 
ATOM      5  C   UNL     1      -3.181  -1.197  -1.888  0.00  0.00    +0.029 A 
ATOM      6  C   UNL     1      -4.079  -0.721  -0.956  0.00  0.00    +0.011 A 
ENDROOT
BRANCH   1   8
ATOM      7  C   UNL     1      -5.963   0.236   1.076  0.00  0.00    +0.068 C 
ATOM      8  C   UNL     1      -5.982   0.760  -0.336  0.00  0.00    +0.063 C 
ATOM      9  N   UNL     1      -6.850   1.661  -0.683  0.00  0.00    -0.187 NA
BRANCH   9  10
ATOM     10  N   UNL     1      -7.769   2.146   0.257  0.00  0.00    -0.235 N 
ATOM     11  H   UNL     1      -7.756   1.809   1.166  0.00  0.00    +0.174 HD
BRANCH  10  12
ATOM     12  C   UNL     1      -8.701   3.115  -0.115  0.00  0.00    +0.078 A 
ATOM     13  C   UNL     1      -8.650   3.680  -1.384  0.00  0.00    +0.027 A 
ATOM     14  C   UNL     1      -9.578   4.635  -1.751  0.00  0.00    +0.002 A 
ATOM     15  C   UNL     1     -10.552   5.036  -0.854  0.00  0.00    +0.002 A 
ATOM     16  C   UNL     1     -10.602   4.479   0.411  0.00  0.00    +0.034 A 
ATOM     17  C   UNL     1      -9.681   3.520   0.783  0.00  0.00    +0.149 A 
BRANCH  17  18
ATOM     18  N   UNL     1      -9.736   2.926   2.138  0.00  0.00    +0.058 N 
ATOM     19  O   UNL     1     -10.812   2.693   2.658  0.00  0.00    -0.126 OA
ATOM     20  O   UNL     1      -8.704   2.669   2.733  0.00  0.00    -0.126 OA
ENDBRANCH  17  18
ENDBRANCH  10  12
ENDBRANCH   9  10
ENDBRANCH   1   8
BRANCH   4  21
ATOM     21  S   UNL     1      -2.042  -1.320  -4.365  0.00  0.00    +0.062 S 
ATOM     22  O   UNL     1      -2.423  -0.779  -5.622  0.00  0.00    -0.153 OA
ATOM     23  O   UNL     1      -1.932  -2.719  -4.140  0.00  0.00    -0.153 OA
BRANCH  21  24
ATOM     24  N   UNL     1      -0.568  -0.663  -3.993  0.00  0.00    -0.163 NA
ATOM     25  C   UNL     1       0.340  -1.343  -3.059  0.00  0.00    +0.110 C 
ATOM     26  C   UNL     1       0.740  -0.361  -1.953  0.00  0.00    +0.017 C 
ATOM     27  C   UNL     1       1.318   0.907  -2.587  0.00  0.00    +0.003 C 
ATOM     28  C   UNL     1       0.258   1.572  -3.468  0.00  0.00    +0.032 C 
ATOM     29  C   UNL     1      -0.144   0.610  -4.590  0.00  0.00    +0.192 C 
BRANCH  29  30
ATOM     30  C   UNL     1      -1.283   1.201  -5.382  0.00  0.00    +0.374 C 
ATOM     31  O   UNL     1      -2.308   1.513  -4.825  0.00  0.00    -0.245 OA
ATOM     32  O   UNL     1      -1.157   1.380  -6.706  0.00  0.00    -0.245 OA
ENDBRANCH  29  30
ENDBRANCH  21  24
ENDBRANCH   4  21
TORSDOF 7
