REMARK  Name = ZINC34868035
REMARK  16 active torsions:
REMARK  status: ('A' for Active; 'I' for Inactive)
REMARK    1  A    between atoms: C_1  and  C_2
REMARK    2  A    between atoms: C_5  and  C_8
REMARK    3  A    between atoms: C_8  and  C_10
REMARK    4  A    between atoms: C_8  and  O_16
REMARK    5  A    between atoms: O_16  and  C_17
REMARK    6  A    between atoms: C_17  and  C_18
REMARK    7  A    between atoms: C_18  and  C_20
REMARK    8  A    between atoms: C_18  and  O_38
REMARK    9  A    between atoms: C_20  and  N_21
REMARK   10  A    between atoms: N_21  and  C_22
REMARK   11  A    between atoms: C_22  and  C_24
REMARK   12  A    between atoms: C_22  and  C_26
REMARK   13  A    between atoms: C_24  and  O_25
REMARK   14  A    between atoms: C_26  and  C_28
REMARK   15  A    between atoms: C_26  and  O_37
REMARK   16  A    between atoms: C_31  and  N_34
REMARK                            x       y       z     vdW  Elec       q    Type
REMARK                         _______ _______ _______ _____ _____    ______ ____
ROOT
ATOM      1  C   UNK A   0      -2.923  -7.902   1.442  0.00  0.00    -0.048 C 
ENDROOT
BRANCH   1   2
ATOM      2  N   UNK A   1      -3.700  -8.259   2.636  0.00  0.00    +0.386 N 
ATOM      3  H   UNK A   1      -3.109  -8.198   3.452  0.00  0.00    -0.085 HD
ATOM      4  H   UNK A   1      -4.476  -7.622   2.735  0.00  0.00    -0.085 HD
BRANCH   2   5
ATOM      5  C   UNK A   1      -4.206  -9.631   2.499  0.00  0.00    -0.012 C 
BRANCH   5   6
ATOM      6  C   UNK A   1      -3.030 -10.609   2.474  0.00  0.00    +0.143 C 
BRANCH   6   7
ATOM      7  O   UNK A   1      -2.345 -10.563   3.728  0.00  0.00    -0.397 OA
ATOM      8  H   UNK A   1      -1.586 -11.159   3.784  0.00  0.00    +0.209 HD
ENDBRANCH   6   7
ENDBRANCH   5   6
BRANCH   5   9
ATOM      9  C   UNK A   1      -5.117  -9.959   3.684  0.00  0.00    +0.133 C 
BRANCH   9  10
ATOM     10  C   UNK A   1      -6.326  -9.060   3.652  0.00  0.00    -0.020 A 
ATOM     11  C   UNK A   1      -7.425  -9.406   2.888  0.00  0.00    +0.008 A 
ATOM     12  C   UNK A   1      -8.534  -8.582   2.859  0.00  0.00    +0.033 A 
ATOM     13  C   UNK A   1      -8.544  -7.411   3.594  0.00  0.00    +0.126 A 
ATOM     14  C   UNK A   1      -7.446  -7.065   4.358  0.00  0.00    +0.033 A 
ATOM     15  C   UNK A   1      -6.338  -7.892   4.391  0.00  0.00    +0.008 A 
BRANCH  13  16
ATOM     16  N   UNK A   1      -9.731  -6.527   3.562  0.00  0.00    +0.056 N 
ATOM     17  O   UNK A   1     -10.692  -6.830   2.893  0.00  0.00    -0.126 OA
ATOM     18  O   UNK A   1      -9.740  -5.503   4.205  0.00  0.00    -0.126 OA
ENDBRANCH  13  16
ENDBRANCH   9  10
BRANCH   9  19
ATOM     19  O   UNK A   1      -5.535 -11.323   3.599  0.00  0.00    -0.389 OA
ATOM     20  H   UNK A   1      -5.948 -11.556   2.757  0.00  0.00    +0.210 HD
ENDBRANCH   9  19
ENDBRANCH   5   9
ENDBRANCH   2   5
ENDBRANCH   1   2
BRANCH   1  21
ATOM     21  C   UNK A   0      -2.395  -6.473   1.585  0.00  0.00    +0.123 C 
BRANCH  21  22
ATOM     22  O   UNK A   0      -3.495  -5.571   1.725  0.00  0.00    -0.391 OA
ATOM     23  H   UNK A   0      -4.106  -5.576   0.975  0.00  0.00    +0.210 HD
ENDBRANCH  21  22
BRANCH  21  24
ATOM     24  C   UNK A   0      -1.586  -6.101   0.340  0.00  0.00    +0.190 C 
BRANCH  24  25
ATOM     25  O   UNK A   0      -0.997  -4.812   0.523  0.00  0.00    -0.365 OA
BRANCH  25  26
ATOM     26  C   UNK A   0      -0.215  -4.368  -0.588  0.00  0.00    +0.178 C 
BRANCH  26  31
ATOM     27  C   UNK A   0      -0.394   1.401  -0.881  0.00  0.00    +0.044 C 
ATOM     28  C   UNK A   0      -0.347  -0.103  -0.804  0.00  0.00    -0.050 A 
ATOM     29  C   UNK A   0      -0.404  -0.856  -1.962  0.00  0.00    +0.004 A 
ATOM     30  C   UNK A   0      -0.361  -2.236  -1.892  0.00  0.00    +0.007 A 
ATOM     31  C   UNK A   0      -0.261  -2.863  -0.664  0.00  0.00    -0.014 A 
ATOM     32  C   UNK A   0      -0.204  -2.110   0.494  0.00  0.00    +0.007 A 
ATOM     33  C   UNK A   0      -0.242  -0.730   0.423  0.00  0.00    +0.004 A 
ENDBRANCH  26  31
BRANCH  26  34
ATOM     34  C   UNK A   0       1.212  -4.819  -0.410  0.00  0.00    -0.015 A 
ATOM     35  C   UNK A   0       1.766  -4.875   0.855  0.00  0.00    +0.006 A 
ATOM     36  C   UNK A   0       3.075  -5.288   1.017  0.00  0.00    +0.000 A 
ATOM     37  C   UNK A   0       3.829  -5.646  -0.085  0.00  0.00    +0.000 A 
ATOM     38  C   UNK A   0       3.274  -5.590  -1.350  0.00  0.00    +0.000 A 
ATOM     39  C   UNK A   0       1.964  -5.181  -1.512  0.00  0.00    +0.006 A 
ENDBRANCH  26  34
ENDBRANCH  25  26
ENDBRANCH  24  25
ENDBRANCH  21  24
ENDBRANCH   1  21
TORSDOF 15
