REMARK  Name = ZINC20258486
REMARK  6 active torsions:
REMARK  status: ('A' for Active; 'I' for Inactive)
REMARK    1  A    between atoms: C_1  and  O_2
REMARK    2  A    between atoms: O_2  and  C_3
REMARK    3  A    between atoms: C_8  and  C_9
REMARK    4  A    between atoms: C_20  and  N_27
REMARK    5  A    between atoms: C_22  and  O_25
REMARK    6  A    between atoms: O_25  and  C_26
REMARK                            x       y       z     vdW  Elec       q    Type
REMARK                         _______ _______ _______ _____ _____    ______ ____
ROOT
ATOM      1  C   UNL     1      -2.292  -0.047   0.610  0.00  0.00    +0.109 C 
ATOM      2  C   UNL     1      -2.518   1.253  -0.165  0.00  0.00    +0.029 C 
ATOM      3  C   UNL     1      -3.575   2.091   0.608  0.00  0.00    +0.033 C 
ATOM      4  C   UNL     1      -2.763   2.782   1.685  0.00  0.00    -0.030 C 
ATOM      5  C   UNL     1      -1.498   2.824   1.351  0.00  0.00    -0.023 C 
ATOM      6  C   UNL     1      -1.282   2.161   0.010  0.00  0.00    +0.049 C 
ATOM      7  C   UNL     1      -0.009   1.367   0.012  0.00  0.00    -0.014 A 
ATOM      8  C   UNL     1       1.193   2.064   0.006  0.00  0.00    +0.039 A 
ATOM      9  C   UNL     1       2.398   1.393   0.016  0.00  0.00    +0.130 A 
ATOM     10  C   UNL     1       2.420   0.009   0.031  0.00  0.00    +0.080 A 
ATOM     11  C   UNL     1       1.230  -0.695   0.035  0.00  0.00    +0.143 A 
ATOM     12  C   UNL     1       0.008  -0.015   0.024  0.00  0.00    +0.074 A 
ATOM     13  N   UNL     1      -1.165  -0.774   0.024  0.00  0.00    -0.334 N 
ATOM     14  H   UNL     1      -1.307  -1.798  -0.352  0.00  0.00    +0.147 HD
ENDROOT
BRANCH   1  20
ATOM     15  C   UNL     1      -3.854  -1.556  -0.643  0.00  0.00    +0.125 A 
ATOM     16  C   UNL     1      -4.994  -2.344  -0.708  0.00  0.00    +0.047 A 
ATOM     17  C   UNL     1      -5.813  -2.465   0.398  0.00  0.00    +0.019 A 
ATOM     18  C   UNL     1      -5.494  -1.804   1.571  0.00  0.00    +0.018 A 
ATOM     19  C   UNL     1      -4.355  -1.022   1.640  0.00  0.00    +0.024 A 
ATOM     20  C   UNL     1      -3.533  -0.899   0.536  0.00  0.00    +0.016 A 
ATOM     21 BR   UNL     1      -6.617  -1.970   3.084  0.00  0.00    -0.050 Br
BRANCH  15  23
ATOM     22  C   UNL     1      -3.443  -2.136  -2.912  0.00  0.00    +0.277 C 
ATOM     23  O   UNL     1      -3.050  -1.431  -1.732  0.00  0.00    -0.495 OA
ENDBRANCH  15  23
ENDBRANCH   1  20
BRANCH   9  24
ATOM     24  N   UNL     1       3.668   2.152   0.011  0.00  0.00    +0.057 N 
ATOM     25  O   UNL     1       4.732   1.559   0.020  0.00  0.00    -0.126 OA
ATOM     26  O   UNL     1       3.649   3.370  -0.002  0.00  0.00    -0.126 OA
ENDBRANCH   9  24
BRANCH  11  27
ATOM     27  O   UNL     1       1.248  -2.055   0.049  0.00  0.00    -0.493 OA
ATOM     28  C   UNL     1       2.530  -2.686   0.059  0.00  0.00    +0.277 C 
ENDBRANCH  11  27
TORSDOF 4
