REMARK  Name = ZINC13047605
REMARK  11 active torsions:
REMARK  status: ('A' for Active; 'I' for Inactive)
REMARK    1  A    between atoms: C_1  and  O_2
REMARK    2  A    between atoms: O_2  and  C_3
REMARK    3  A    between atoms: C_3  and  C_4
REMARK    4  A    between atoms: C_4  and  C_5
REMARK    5  A    between atoms: C_5  and  N_6
REMARK    6  A    between atoms: C_12  and  C_32
REMARK    7  A    between atoms: C_16  and  S_17
REMARK    8  A    between atoms: S_17  and  C_18
REMARK    9  A    between atoms: C_18  and  C_19
REMARK   10  A    between atoms: N_21  and  C_22
REMARK   11  A    between atoms: C_27  and  N_28
REMARK                            x       y       z     vdW  Elec       q    Type
REMARK                         _______ _______ _______ _____ _____    ______ ____
ROOT
ATOM      1  N   UNL     1      -0.686   1.550   1.226  0.00  0.00    -0.287 N 
ATOM      2  C   UNL     1      -1.656   0.792   1.787  0.00  0.00    +0.262 A 
ATOM      3  O   UNL     1      -1.983  -0.275   1.301  0.00  0.00    -0.267 OA
ATOM      4  C   UNL     1      -2.301   1.304   3.006  0.00  0.00    +0.065 A 
ATOM      5  C   UNL     1      -3.311   0.593   3.655  0.00  0.00    +0.016 A 
ATOM      6  C   UNL     1      -3.885   1.102   4.784  0.00  0.00    +0.016 A 
ATOM      7  C   UNL     1      -3.469   2.336   5.301  0.00  0.00    +0.065 A 
ATOM      8  C   UNL     1      -2.465   3.061   4.671  0.00  0.00    +0.043 A 
ATOM      9  C   UNL     1      -1.870   2.550   3.514  0.00  0.00    +0.080 A 
ATOM     10  N   UNL     1      -0.889   3.222   2.868  0.00  0.00    -0.223 NA
ATOM     11  C   UNL     1      -0.327   2.743   1.786  0.00  0.00    +0.173 A 
ENDROOT
BRANCH   7  12
ATOM     12  C   UNL     1      -4.104   2.871   6.525  0.00  0.00    +0.387 C 
ATOM     13  O   UNL     1      -3.747   3.940   6.977  0.00  0.00    -0.241 OA
ATOM     14  O   UNL     1      -5.077   2.171   7.139  0.00  0.00    -0.241 OA
ENDBRANCH   7  12
BRANCH   1  15
ATOM     15  C   UNL     1      -0.013   1.086   0.011  0.00  0.00    +0.129 C 
BRANCH  15  16
ATOM     16  C   UNL     1      -0.768   1.595  -1.218  0.00  0.00    +0.050 C 
BRANCH  16  17
ATOM     17  C   UNL     1      -0.065   1.109  -2.487  0.00  0.00    +0.161 C 
BRANCH  17  19
ATOM     18  C   UNL     1      -0.193   1.185  -4.879  0.00  0.00    +0.193 C 
ATOM     19  O   UNL     1      -0.771   1.585  -3.635  0.00  0.00    -0.383 OA
ENDBRANCH  17  19
ENDBRANCH  16  17
ENDBRANCH  15  16
ENDBRANCH   1  15
BRANCH  11  20
ATOM     20  S   UNL     1       0.948   3.683   1.014  0.00  0.00    -0.078 S 
BRANCH  20  21
ATOM     21  C   UNL     1       1.010   5.105   2.132  0.00  0.00    +0.173 C 
BRANCH  21  22
ATOM     22  C   UNL     1       2.062   6.073   1.655  0.00  0.00    +0.228 C 
ATOM     23  O   UNL     1       2.707   5.825   0.658  0.00  0.00    -0.275 OA
ATOM     24  N   UNL     1       2.287   7.213   2.337  0.00  0.00    -0.283 N 
ATOM     25  H   UNL     1       1.719   7.450   3.087  0.00  0.00    +0.155 HD
BRANCH  24  26
ATOM     26  C   UNL     1       3.341   8.056   1.964  0.00  0.00    +0.064 A 
ATOM     27  C   UNL     1       4.442   7.538   1.294  0.00  0.00    +0.028 A 
ATOM     28  C   UNL     1       5.481   8.371   0.926  0.00  0.00    +0.040 A 
ATOM     29  C   UNL     1       5.425   9.722   1.225  0.00  0.00    +0.126 A 
ATOM     30  C   UNL     1       4.329  10.240   1.893  0.00  0.00    +0.073 A 
ATOM     31  C   UNL     1       3.285   9.412   2.258  0.00  0.00    +0.150 A 
ATOM     32  F   UNL     1       6.442  10.535   0.865  0.00  0.00    -0.205 F 
BRANCH  31  33
ATOM     33  N   UNL     1       2.110   9.968   2.966  0.00  0.00    +0.058 N 
ATOM     34  O   UNL     1       2.019  11.169   3.144  0.00  0.00    -0.126 OA
ATOM     35  O   UNL     1       1.235   9.224   3.370  0.00  0.00    -0.126 OA
ENDBRANCH  31  33
ENDBRANCH  24  26
ENDBRANCH  21  22
ENDBRANCH  20  21
ENDBRANCH  11  20
TORSDOF 10
