REMARK  Name = ZINC20292230
REMARK  7 active torsions:
REMARK  status: ('A' for Active; 'I' for Inactive)
REMARK    1  A    between atoms: C_3  and  C_8
REMARK    2  A    between atoms: N_9  and  N_10
REMARK    3  A    between atoms: C_14  and  S_17
REMARK    4  A    between atoms: N_15  and  N_16
REMARK    5  A    between atoms: S_17  and  C_18
REMARK    6  A    between atoms: C_18  and  C_19
REMARK    7  A    between atoms: N_21  and  C_22
REMARK                            x       y       z     vdW  Elec       q    Type
REMARK                         _______ _______ _______ _____ _____    ______ ____
ROOT
ATOM      1  N   UNL     1       5.780  -0.906  -3.330  0.00  0.00    -0.204 N 
ATOM      2  C   UNL     1       7.029  -1.033  -2.739  0.00  0.00    +0.254 A 
ATOM      3  N   UNL     1       7.266  -1.462  -1.523  0.00  0.00    -0.109 NA
ATOM      4  N   UNL     1       8.652  -1.438  -1.318  0.00  0.00    -0.119 NA
ATOM      5  C   UNL     1       9.216  -0.995  -2.416  0.00  0.00    +0.210 A 
ATOM      6  N   UNL     1       8.229  -0.739  -3.325  0.00  0.00    -0.211 N 
ATOM      7  H   UNL     1       5.706  -0.583  -4.242  0.00  0.00    +0.177 HD
ENDROOT
BRANCH   6   8
ATOM      8  N   UNL     1       8.409  -0.267  -4.594  0.00  0.00    -0.294 N 
ATOM      9  H   UNL     1       8.395   0.742  -4.610  0.00  0.00    +0.163 HD
ATOM     10  H   UNL     1       9.263  -0.624  -4.995  0.00  0.00    +0.163 HD
ENDBRANCH   6   8
BRANCH   1  12
ATOM     11  C   UNL     1       3.458  -1.127  -3.164  0.00  0.00    +0.138 C 
ATOM     12  N   UNL     1       4.627  -1.246  -2.611  0.00  0.00    -0.188 NA
BRANCH  11  15
ATOM     13  C   UNL     1      -0.146  -1.694  -2.285  0.00  0.00    +0.002 A 
ATOM     14  C   UNL     1       0.986  -1.358  -2.999  0.00  0.00    +0.009 A 
ATOM     15  C   UNL     1       2.245  -1.484  -2.407  0.00  0.00    -0.004 A 
ATOM     16  C   UNL     1       2.348  -1.951  -1.094  0.00  0.00    +0.024 A 
ATOM     17  C   UNL     1       1.208  -2.284  -0.392  0.00  0.00    +0.018 A 
ATOM     18  C   UNL     1      -0.037  -2.156  -0.986  0.00  0.00    +0.015 A 
ATOM     19 BR   UNL     1       1.345  -2.917   1.385  0.00  0.00    -0.050 Br
ENDBRANCH  11  15
ENDBRANCH   1  12
BRANCH   5  20
ATOM     20  S   UNL     1      10.945  -0.777  -2.676  0.00  0.00    -0.075 S 
BRANCH  20  21
ATOM     21  C   UNL     1      11.694  -1.299  -1.109  0.00  0.00    +0.173 C 
BRANCH  21  22
ATOM     22  C   UNL     1      13.192  -1.160  -1.197  0.00  0.00    +0.228 C 
ATOM     23  O   UNL     1      13.704  -0.749  -2.217  0.00  0.00    -0.275 OA
ATOM     24  N   UNL     1      13.963  -1.492  -0.143  0.00  0.00    -0.280 N 
ATOM     25  H   UNL     1      13.552  -1.750   0.697  0.00  0.00    +0.155 HD
BRANCH  24  26
ATOM     26  C   UNL     1      15.360  -1.464  -0.259  0.00  0.00    +0.105 A 
ATOM     27  C   UNL     1      16.045  -2.592  -0.694  0.00  0.00    +0.147 A 
ATOM     28  C   UNL     1      17.424  -2.560  -0.808  0.00  0.00    +0.040 A 
ATOM     29  C   UNL     1      18.119  -1.409  -0.489  0.00  0.00    +0.006 A 
ATOM     30  C   UNL     1      17.441  -0.285  -0.056  0.00  0.00    +0.040 A 
ATOM     31  C   UNL     1      16.062  -0.306   0.055  0.00  0.00    +0.147 A 
ATOM     32  F   UNL     1      15.400   0.794   0.473  0.00  0.00    -0.203 F 
ATOM     33  F   UNL     1      15.366  -3.717  -1.006  0.00  0.00    -0.203 F 
ENDBRANCH  24  26
ENDBRANCH  21  22
ENDBRANCH  20  21
ENDBRANCH   5  20
TORSDOF 7
