REMARK  Name = ZINC13546321
REMARK  10 active torsions:
REMARK  status: ('A' for Active; 'I' for Inactive)
REMARK    1  A    between atoms: C_1  and  C_2
REMARK    2  A    between atoms: C_2  and  O_3
REMARK    3  A    between atoms: O_3  and  C_4
REMARK    4  A    between atoms: C_6  and  C_24
REMARK    5  A    between atoms: C_8  and  C_21
REMARK    6  A    between atoms: C_9  and  O_10
REMARK    7  A    between atoms: O_10  and  C_11
REMARK    8  A    between atoms: C_11  and  C_12
REMARK    9  A    between atoms: C_15  and  N_18
REMARK   10  A    between atoms: C_21  and  C_22
REMARK                            x       y       z     vdW  Elec       q    Type
REMARK                         _______ _______ _______ _____ _____    ______ ____
ROOT
ATOM      1  C   UNL     1       2.236   3.920  -0.837  0.00  0.00    +0.163 A 
ATOM      2  C   UNL     1       2.165   5.292  -0.973  0.00  0.00    +0.057 A 
ATOM      3  C   UNL     1       2.053   6.100   0.166  0.00  0.00    -0.019 A 
ATOM      4  C   UNL     1       2.008   5.511   1.435  0.00  0.00    +0.015 A 
ATOM      5  C   UNL     1       2.075   4.141   1.560  0.00  0.00    +0.002 A 
ATOM      6  C   UNL     1       2.186   3.341   0.431  0.00  0.00    +0.166 A 
ENDROOT
BRANCH   3   7
ATOM      7  C   UNL     1       1.982   7.560   0.029  0.00  0.00    +0.036 C 
ATOM      8  C   UNL     1       1.401   8.306   1.002  0.00  0.00    +0.098 C 
ATOM      9  C   UNL     1       1.386   9.772   1.116  0.00  0.00    +0.266 C 
ATOM     10  O   UNL     1       1.897  10.570   0.352  0.00  0.00    -0.268 OA
ATOM     11  N   UNL     1       0.691  10.055   2.237  0.00  0.00    -0.235 N 
ATOM     12  C   UNL     1       0.289   8.917   2.822  0.00  0.00    +0.311 C 
ATOM     13  O   UNL     1      -0.354   8.863   3.853  0.00  0.00    -0.252 OA
ATOM     14  N   UNL     1       0.691   7.843   2.119  0.00  0.00    -0.265 N 
ATOM     15  H   UNL     1       0.513  10.947   2.572  0.00  0.00    +0.159 HD
ATOM     16  H   UNL     1       0.520   6.915   2.344  0.00  0.00    +0.157 HD
ENDBRANCH   3   7
BRANCH   1  17
ATOM     17  O   UNL     1       2.350   3.133  -1.940  0.00  0.00    -0.489 OA
BRANCH  17  19
ATOM     18  C   UNL     1       2.525   2.752  -4.320  0.00  0.00    +0.048 C 
ATOM     19  C   UNL     1       2.396   3.793  -3.206  0.00  0.00    +0.226 C 
ENDBRANCH  17  19
ENDBRANCH   1  17
BRANCH   6  20
ATOM     20  O   UNL     1       2.251   1.990   0.561  0.00  0.00    -0.483 OA
BRANCH  20  21
ATOM     21  C   UNL     1       1.014   1.276   0.547  0.00  0.00    +0.264 C 
BRANCH  21  22
ATOM     22  C   UNL     1       1.282  -0.198   0.702  0.00  0.00    -0.010 A 
ATOM     23  C   UNL     1       1.477  -0.987  -0.416  0.00  0.00    +0.009 A 
ATOM     24  C   UNL     1       1.728  -2.339  -0.274  0.00  0.00    +0.033 A 
ATOM     25  C   UNL     1       1.775  -2.904   0.987  0.00  0.00    +0.126 A 
ATOM     26  C   UNL     1       1.575  -2.116   2.105  0.00  0.00    +0.033 A 
ATOM     27  C   UNL     1       1.328  -0.764   1.963  0.00  0.00    +0.009 A 
BRANCH  25  28
ATOM     28  N   UNL     1       2.039  -4.352   1.139  0.00  0.00    +0.056 N 
ATOM     29  O   UNL     1       2.080  -4.850   2.250  0.00  0.00    -0.126 OA
ATOM     30  O   UNL     1       2.215  -5.046   0.153  0.00  0.00    -0.126 OA
ENDBRANCH  25  28
ENDBRANCH  21  22
ENDBRANCH  20  21
ENDBRANCH   6  20
BRANCH   5  31
ATOM     31  C   UNL     1       2.027   3.508   2.927  0.00  0.00    +0.065 C 
BRANCH  31  32
ATOM     32  C   UNL     1       3.432   3.261   3.416  0.00  0.00    -0.030 C 
ATOM     33  C   UNL     1       3.818   3.745   4.570  0.00  0.00    +0.004 C 
ENDBRANCH  31  32
ENDBRANCH   5  31
TORSDOF 9
