REMARK  Name = ZINC36014207
REMARK  5 active torsions:
REMARK  status: ('A' for Active; 'I' for Inactive)
REMARK    1  A    between atoms: C_1  and  C_2
REMARK    2  A    between atoms: N_6  and  C_24
REMARK    3  A    between atoms: N_11  and  S_14
REMARK    4  A    between atoms: S_14  and  C_17
REMARK    5  A    between atoms: C_24  and  C_25
REMARK                            x       y       z     vdW  Elec       q    Type
REMARK                         _______ _______ _______ _____ _____    ______ ____
ROOT
ATOM      1  C   UNL     1       0.641   1.206   0.779  0.00  0.00    -0.004 C 
ATOM      2  C   UNL     1       0.508  -0.318   0.803  0.00  0.00    +0.016 C 
ATOM      3  C   UNL     1      -0.910  -0.729   0.471  0.00  0.00    +0.200 C 
ATOM      4  O   UNL     1      -1.590  -0.270  -0.422  0.00  0.00    -0.277 OA
ATOM      5  N   UNL     1      -1.291  -1.691   1.337  0.00  0.00    -0.309 N 
ATOM      6  C   UNL     1      -0.193  -1.978   2.263  0.00  0.00    +0.006 C 
ATOM      7  N   UNL     1       0.743  -0.836   2.173  0.00  0.00    +0.401 N 
ATOM      8  C   UNL     1       0.524  -3.263   1.850  0.00  0.00    +0.023 C 
ATOM      9  C   UNL     1      -0.462  -4.435   1.907  0.00  0.00    +0.109 C 
ATOM     10  N   UNL     1      -1.071  -4.476   3.244  0.00  0.00    -0.177 NA
ATOM     11  C   UNL     1      -1.720  -3.264   3.763  0.00  0.00    +0.109 C 
ATOM     12  C   UNL     1      -0.723  -2.102   3.690  0.00  0.00    +0.023 C 
ATOM     13  H   UNL     1       1.698  -1.145   2.278  0.00  0.00    -0.082 HD
ATOM     14  H   UNL     1       0.516  -0.135   2.863  0.00  0.00    -0.082 HD
ENDROOT
BRANCH  10  15
ATOM     15  S   UNL     1      -1.026  -5.862   4.148  0.00  0.00    +0.061 S 
ATOM     16  O   UNL     1      -2.112  -5.786   5.062  0.00  0.00    -0.153 OA
ATOM     17  O   UNL     1      -0.875  -6.939   3.234  0.00  0.00    -0.153 OA
BRANCH  15  18
ATOM     18  C   UNL     1       0.447  -5.808   5.112  0.00  0.00    +0.106 A 
ATOM     19  C   UNL     1       1.622  -6.337   4.610  0.00  0.00    +0.030 A 
ATOM     20  C   UNL     1       2.778  -6.295   5.365  0.00  0.00    +0.022 A 
ATOM     21  C   UNL     1       2.760  -5.724   6.626  0.00  0.00    +0.041 A 
ATOM     22  C   UNL     1       1.585  -5.195   7.128  0.00  0.00    +0.022 A 
ATOM     23  C   UNL     1       0.430  -5.233   6.369  0.00  0.00    +0.030 A 
ATOM     24 CL   UNL     1       4.212  -5.671   7.576  0.00  0.00    -0.084 Cl
ENDBRANCH  15  18
ENDBRANCH  10  15
BRANCH   5  25
ATOM     25  C   UNL     1      -2.601  -2.346   1.349  0.00  0.00    +0.141 C 
BRANCH  25  26
ATOM     26  C   UNL     1      -3.603  -1.455   2.038  0.00  0.00    -0.030 A 
ATOM     27  C   UNL     1      -3.495  -1.215   3.395  0.00  0.00    +0.008 A 
ATOM     28  C   UNL     1      -4.413  -0.397   4.027  0.00  0.00    +0.038 A 
ATOM     29  C   UNL     1      -5.440   0.181   3.300  0.00  0.00    +0.123 A 
ATOM     30  C   UNL     1      -5.547  -0.061   1.941  0.00  0.00    +0.038 A 
ATOM     31  C   UNL     1      -4.625  -0.874   1.310  0.00  0.00    +0.008 A 
ATOM     32  F   UNL     1      -6.338   0.980   3.917  0.00  0.00    -0.205 F 
ENDBRANCH  25  26
ENDBRANCH   5  25
TORSDOF 4
