REMARK  Name = ZINC09666855
REMARK  10 active torsions:
REMARK  status: ('A' for Active; 'I' for Inactive)
REMARK    1  A    between atoms: C_1  and  C_2
REMARK    2  A    between atoms: C_2  and  C_4
REMARK    3  A    between atoms: C_2  and  N_10
REMARK    4  A    between atoms: C_11  and  C_13
REMARK    5  A    between atoms: C_18  and  N_19
REMARK    6  A    between atoms: C_20  and  C_22
REMARK    7  A    between atoms: C_22  and  S_23
REMARK    8  A    between atoms: S_23  and  C_24
REMARK    9  A    between atoms: C_27  and  C_32
REMARK   10  A    between atoms: N_28  and  C_29
REMARK                            x       y       z     vdW  Elec       q    Type
REMARK                         _______ _______ _______ _____ _____    ______ ____
ROOT
ATOM      1  N   UNL     1       1.652   8.041   2.174  0.00  0.00    -0.284 N 
ATOM      2  C   UNL     1       1.044   7.242   1.275  0.00  0.00    +0.228 C 
ATOM      3  O   UNL     1      -0.063   7.522   0.866  0.00  0.00    -0.275 OA
ATOM      4  H   UNL     1       2.563   7.856   2.450  0.00  0.00    +0.155 HD
ENDROOT
BRANCH   1  10
ATOM      5  C   UNL     1       1.662  10.316   3.008  0.00  0.00    +0.058 A 
ATOM      6  C   UNL     1       0.968  11.404   3.543  0.00  0.00    +0.015 A 
ATOM      7  C   UNL     1      -0.388  11.308   3.773  0.00  0.00    +0.001 A 
ATOM      8  C   UNL     1      -1.067  10.137   3.476  0.00  0.00    +0.002 A 
ATOM      9  C   UNL     1      -0.395   9.056   2.943  0.00  0.00    +0.024 A 
ATOM     10  C   UNL     1       0.971   9.132   2.709  0.00  0.00    +0.046 A 
BRANCH   5  12
ATOM     11  N   UNL     1       3.754  11.581   2.953  0.00  0.00    -0.305 N 
ATOM     12  C   UNL     1       3.113  10.412   2.759  0.00  0.00    +0.246 C 
ATOM     13  O   UNL     1       3.730   9.435   2.378  0.00  0.00    -0.270 OA
ATOM     14  H   UNL     1       3.262  12.360   3.257  0.00  0.00    +0.150 HD
BRANCH  11  16
ATOM     15  C   UNL     1       5.441  11.956   1.222  0.00  0.00    +0.033 C 
ATOM     16  C   UNL     1       5.195  11.676   2.706  0.00  0.00    +0.100 C 
BRANCH  16  17
ATOM     17  C   UNL     1       5.774  12.796   3.532  0.00  0.00    -0.027 A 
ATOM     18  C   UNL     1       5.078  13.982   3.671  0.00  0.00    +0.005 A 
ATOM     19  C   UNL     1       5.606  15.008   4.431  0.00  0.00    +0.000 A 
ATOM     20  C   UNL     1       6.835  14.852   5.045  0.00  0.00    +0.000 A 
ATOM     21  C   UNL     1       7.533  13.667   4.902  0.00  0.00    +0.000 A 
ATOM     22  C   UNL     1       7.002  12.639   4.145  0.00  0.00    +0.005 A 
ENDBRANCH  16  17
ENDBRANCH  11  16
ENDBRANCH   5  12
ENDBRANCH   1  10
BRANCH   2  23
ATOM     23  C   UNL     1       1.739   6.001   0.778  0.00  0.00    +0.173 C 
BRANCH  23  24
ATOM     24  S   UNL     1       0.674   5.147  -0.411  0.00  0.00    -0.077 S 
BRANCH  24  25
ATOM     25  C   UNL     1       1.705   3.777  -0.816  0.00  0.00    +0.193 A 
ATOM     26  N   UNL     1       2.903   3.531  -0.332  0.00  0.00    -0.122 NA
ATOM     27  N   UNL     1       3.371   2.449  -0.841  0.00  0.00    -0.128 NA
ATOM     28  C   UNL     1       2.499   1.933  -1.677  0.00  0.00    +0.165 A 
ATOM     29  N   UNL     1       1.408   2.772  -1.690  0.00  0.00    -0.299 N 
BRANCH  28  30
ATOM     30  C   UNL     1       2.661   0.690  -2.459  0.00  0.00    +0.022 A 
ATOM     31  C   UNL     1       1.553   0.042  -3.017  0.00  0.00    +0.031 A 
ATOM     32  C   UNL     1       1.750  -1.114  -3.743  0.00  0.00    +0.111 A 
ATOM     33  N   UNL     1       2.961  -1.614  -3.906  0.00  0.00    -0.263 NA
ATOM     34  C   UNL     1       4.031  -1.038  -3.393  0.00  0.00    +0.111 A 
ATOM     35  C   UNL     1       3.927   0.124  -2.657  0.00  0.00    +0.031 A 
ENDBRANCH  28  30
BRANCH  29  36
ATOM     36  C   UNL     1       0.181   2.615  -2.475  0.00  0.00    +0.091 C 
ATOM     37  C   UNL     1      -0.372   3.856  -3.178  0.00  0.00    +0.027 C 
ATOM     38  C   UNL     1       0.293   2.745  -3.995  0.00  0.00    +0.027 C 
ENDBRANCH  29  36
ENDBRANCH  24  25
ENDBRANCH  23  24
ENDBRANCH   2  23
TORSDOF 9
