REMARK  Name = ZINC22178970
REMARK  8 active torsions:
REMARK  status: ('A' for Active; 'I' for Inactive)
REMARK    1  A    between atoms: C_1  and  C_2
REMARK    2  A    between atoms: C_6  and  C_9
REMARK    3  A    between atoms: C_7  and  N_8
REMARK    4  A    between atoms: C_9  and  O_11
REMARK    5  A    between atoms: O_11  and  C_12
REMARK    6  A    between atoms: C_12  and  C_13
REMARK    7  A    between atoms: N_15  and  C_16
REMARK    8  A    between atoms: C_17  and  C_26
REMARK                            x       y       z     vdW  Elec       q    Type
REMARK                         _______ _______ _______ _____ _____    ______ ____
ROOT
ATOM      1  C   UNL     1      -0.236  -6.739   2.865  0.00  0.00    +0.255 C 
ATOM      2  O   UNL     1      -0.314  -7.046   1.694  0.00  0.00    -0.272 OA
ATOM      3  N   UNL     1      -0.261  -7.694   3.816  0.00  0.00    -0.276 N 
ATOM      4  H   UNL     1      -0.199  -7.449   4.752  0.00  0.00    +0.155 HD
ENDROOT
BRANCH   3   5
ATOM      5  C   UNL     1      -0.376  -9.030   3.455  0.00  0.00    +0.090 A 
ATOM      6  C   UNL     1      -0.424 -10.135   4.285  0.00  0.00    +0.084 A 
ATOM      7  C   UNL     1      -0.548 -11.442   3.657  0.00  0.00    -0.018 A 
ATOM      8  C   UNL     1      -0.596 -11.398   2.308  0.00  0.00    -0.004 A 
ATOM      9  S   UNL     1      -0.497  -9.675   1.910  0.00  0.00    -0.077 S 
ATOM     10  C   UNL     1      -0.701 -12.550   1.358  0.00  0.00    +0.043 C 
ATOM     11  C   UNL     1      -1.833 -13.478   1.817  0.00  0.00    +0.005 C 
ATOM     12  C   UNL     1      -1.256 -14.510   2.781  0.00  0.00    +0.001 C 
ATOM     13  C   UNL     1      -0.117 -13.896   3.592  0.00  0.00    +0.005 C 
ATOM     14  C   UNL     1      -0.631 -12.741   4.445  0.00  0.00    +0.037 C 
BRANCH   6  15
ATOM     15  C   UNL     1      -0.353  -9.998   5.709  0.00  0.00    +0.102 C 
ATOM     16  N   UNL     1      -0.297  -9.890   6.839  0.00  0.00    -0.191 NA
ENDBRANCH   6  15
ENDBRANCH   3   5
BRANCH   1  17
ATOM     17  C   UNL     1      -0.111  -5.290   3.257  0.00  0.00    +0.328 C 
BRANCH  17  18
ATOM     18  O   UNL     1      -0.107  -4.477   2.082  0.00  0.00    -0.452 OA
BRANCH  18  19
ATOM     19  C   UNL     1      -0.000  -3.145   2.259  0.00  0.00    +0.341 C 
ATOM     20  O   UNL     1       0.086  -2.687   3.381  0.00  0.00    -0.245 OA
BRANCH  19  26
ATOM     21  C   UNL     1      -0.009   1.480   0.352  0.00  0.00    +0.045 C 
ATOM     22  C   UNL     1       0.006  -0.015   0.166  0.00  0.00    -0.029 A 
ATOM     23  C   UNL     1       0.031  -0.551  -1.105  0.00  0.00    +0.005 A 
ATOM     24  C   UNL     1       0.045  -1.925  -1.288  0.00  0.00    +0.001 A 
ATOM     25  C   UNL     1       0.035  -2.772  -0.202  0.00  0.00    +0.017 A 
ATOM     26  C   UNL     1       0.011  -2.245   1.093  0.00  0.00    +0.080 A 
ATOM     27  C   UNL     1       0.002  -0.853   1.274  0.00  0.00    +0.042 A 
BRANCH  27  28
ATOM     28  N   UNL     1      -0.016  -0.316   2.555  0.00  0.00    -0.357 N 
ATOM     29  H   UNL     1      -0.109   0.642   2.678  0.00  0.00    +0.142 HD
ATOM     30  H   UNL     1       0.063  -0.899   3.326  0.00  0.00    +0.142 HD
ENDBRANCH  27  28
ENDBRANCH  19  26
ENDBRANCH  18  19
ENDBRANCH  17  18
ENDBRANCH   1  17
TORSDOF 7
