REMARK  Name = ZINC33297897
REMARK  10 active torsions:
REMARK  status: ('A' for Active; 'I' for Inactive)
REMARK    1  A    between atoms: C_1  and  C_2
REMARK    2  A    between atoms: C_2  and  C_3
REMARK    3  A    between atoms: N_5  and  C_6
REMARK    4  A    between atoms: C_7  and  C_33
REMARK    5  A    between atoms: C_10  and  C_11
REMARK    6  A    between atoms: C_12  and  C_13
REMARK    7  A    between atoms: C_16  and  S_19
REMARK    8  A    between atoms: S_19  and  N_22
REMARK    9  A    between atoms: N_22  and  C_23
REMARK   10  A    between atoms: C_23  and  C_24
REMARK                            x       y       z     vdW  Elec       q    Type
REMARK                         _______ _______ _______ _____ _____    ______ ____
ROOT
ATOM      1  C   UNL     1      -0.243   8.718  -0.493  0.00  0.00    -0.025 A 
ATOM      2  C   UNL     1      -0.164   8.148   0.781  0.00  0.00    +0.010 A 
ATOM      3  C   UNL     1       0.876   7.295   1.087  0.00  0.00    +0.029 A 
ATOM      4  C   UNL     1       1.839   7.003   0.136  0.00  0.00    +0.105 A 
ATOM      5  C   UNL     1       1.770   7.569  -1.125  0.00  0.00    +0.029 A 
ATOM      6  C   UNL     1       0.733   8.418  -1.448  0.00  0.00    +0.010 A 
ENDROOT
BRANCH   4   7
ATOM      7  S   UNL     1       3.164   5.913   0.537  0.00  0.00    +0.059 S 
ATOM      8  O   UNL     1       3.307   5.950   1.950  0.00  0.00    -0.153 OA
ATOM      9  O   UNL     1       4.231   6.229  -0.346  0.00  0.00    -0.153 OA
BRANCH   7  10
ATOM     10  N   UNL     1       2.670   4.380   0.152  0.00  0.00    -0.186 NA
ATOM     11  H   UNL     1       2.385   3.689   0.958  0.00  0.00    +0.148 HD
BRANCH  10  12
ATOM     12  C   UNL     1       2.406   4.025  -1.245  0.00  0.00    +0.141 C 
BRANCH  12  13
ATOM     13  C   UNL     1       2.336   2.525  -1.377  0.00  0.00    -0.028 A 
ATOM     14  C   UNL     1       3.483   1.802  -1.649  0.00  0.00    +0.009 A 
ATOM     15  C   UNL     1       3.424   0.427  -1.773  0.00  0.00    +0.050 A 
ATOM     16  C   UNL     1       2.214  -0.231  -1.622  0.00  0.00    +0.166 A 
ATOM     17  C   UNL     1       1.059   0.496  -1.346  0.00  0.00    +0.167 A 
ATOM     18  C   UNL     1       1.126   1.875  -1.224  0.00  0.00    +0.054 A 
ATOM     19  O   UNL     1       0.010  -0.371  -1.243  0.00  0.00    -0.453 OA
ATOM     20  C   UNL     1       0.459  -1.592  -1.862  0.00  0.00    +0.466 C 
ATOM     21  O   UNL     1       1.889  -1.555  -1.692  0.00  0.00    -0.453 OA
ENDBRANCH  12  13
ENDBRANCH  10  12
ENDBRANCH   7  10
ENDBRANCH   4   7
BRANCH   1  23
ATOM     22  C   UNL     1      -1.993   9.505  -2.006  0.00  0.00    +0.051 C 
ATOM     23  C   UNL     1      -1.350   9.630  -0.828  0.00  0.00    +0.011 C 
BRANCH  22  28
ATOM     24  C   UNL     1      -2.203   8.137  -4.152  0.00  0.00    +0.103 A 
ATOM     25  C   UNL     1      -1.662   6.877  -4.500  0.00  0.00    +0.102 A 
ATOM     26  N   UNL     1      -0.973   6.470  -3.473  0.00  0.00    -0.081 NA
ATOM     27  O   UNL     1      -0.994   7.261  -2.560  0.00  0.00    -0.353 OA
ATOM     28  C   UNL     1      -1.737   8.346  -2.861  0.00  0.00    +0.182 A 
ATOM     29  C   UNL     1      -1.846   6.149  -5.807  0.00  0.00    +0.071 C 
BRANCH  24  32
ATOM     30  C   UNL     1      -2.707   9.208  -6.218  0.00  0.00    +0.217 C 
ATOM     31  O   UNL     1      -1.791   8.609  -6.740  0.00  0.00    -0.275 OA
ATOM     32  N   UNL     1      -3.016   8.975  -4.927  0.00  0.00    -0.281 N 
ATOM     33  H   UNL     1      -3.906   9.443  -4.481  0.00  0.00    +0.155 HD
BRANCH  30  35
ATOM     34  C   UNL     1      -2.949  10.286  -8.438  0.00  0.00    +0.013 C 
ATOM     35  C   UNL     1      -3.501  10.213  -7.013  0.00  0.00    +0.093 C 
ENDBRANCH  30  35
ENDBRANCH  24  32
ENDBRANCH  22  28
ENDBRANCH   1  23
TORSDOF 8
