REMARK  Name = ZINC33149773
REMARK  7 active torsions:
REMARK  status: ('A' for Active; 'I' for Inactive)
REMARK    1  A    between atoms: C_1  and  C_2
REMARK    2  A    between atoms: C_2  and  C_3
REMARK    3  A    between atoms: C_2  and  C_4
REMARK    4  A    between atoms: C_2  and  O_5
REMARK    5  A    between atoms: O_5  and  C_6
REMARK    6  A    between atoms: N_8  and  N_9
REMARK    7  A    between atoms: C_10  and  C_11
REMARK                            x       y       z     vdW  Elec       q    Type
REMARK                         _______ _______ _______ _____ _____    ______ ____
ROOT
ATOM      1  N   UNL     1      -3.639   3.206  -0.046  0.00  0.00    -0.185 NA
ATOM      2  C   UNL     1      -2.523   3.865   0.014  0.00  0.00    +0.140 C 
ENDROOT
BRANCH   2   3
ATOM      3  C   UNL     1      -1.263   3.221  -0.398  0.00  0.00    +0.017 A 
ATOM      4  C   UNL     1      -1.284   2.153  -1.299  0.00  0.00    +0.060 A 
ATOM      5  C   UNL     1      -0.101   1.551  -1.683  0.00  0.00    +0.167 A 
ATOM      6  C   UNL     1       1.113   2.010  -1.170  0.00  0.00    +0.168 A 
ATOM      7  C   UNL     1       1.135   3.070  -0.276  0.00  0.00    +0.070 A 
ATOM      8  C   UNL     1      -0.044   3.672   0.116  0.00  0.00    +0.053 A 
ATOM      9 CL   UNL     1      -0.012   4.994   1.240  0.00  0.00    -0.083 Cl
ATOM     10  O   UNL     1       2.121   1.257  -1.700  0.00  0.00    -0.453 OA
ATOM     11  C   UNL     1       1.551   0.605  -2.850  0.00  0.00    +0.466 C 
ATOM     12  O   UNL     1       0.150   0.512  -2.532  0.00  0.00    -0.453 OA
ENDBRANCH   2   3
BRANCH   1  15
ATOM     13  C   UNL     1      -4.770   1.121  -0.249  0.00  0.00    +0.420 C 
ATOM     14  O   UNL     1      -4.745  -0.090  -0.346  0.00  0.00    -0.225 OA
ATOM     15  N   UNL     1      -3.626   1.805  -0.053  0.00  0.00    -0.172 N 
ATOM     16  H   UNL     1      -2.681   1.263   0.101  0.00  0.00    +0.181 HD
BRANCH  13  17
ATOM     17  O   UNL     1      -5.942   1.780  -0.336  0.00  0.00    -0.444 OA
BRANCH  17  19
ATOM     18  C   UNL     1      -7.301  -0.004   0.614  0.00  0.00    +0.055 C 
ATOM     19  C   UNL     1      -7.134   0.979  -0.547  0.00  0.00    +0.107 C 
ATOM     20  C   UNL     1      -8.358   1.895  -0.620  0.00  0.00    +0.055 C 
ATOM     21  C   UNL     1      -7.001   0.201  -1.858  0.00  0.00    +0.055 C 
ENDBRANCH  17  19
ENDBRANCH  13  17
ENDBRANCH   1  15
TORSDOF 4
