REMARK  Name = ZINC22635129
REMARK  9 active torsions:
REMARK  status: ('A' for Active; 'I' for Inactive)
REMARK    1  A    between atoms: C_1  and  C_2
REMARK    2  A    between atoms: C_2  and  C_3
REMARK    3  A    between atoms: C_2  and  N_4
REMARK    4  A    between atoms: C_12  and  O_27
REMARK    5  A    between atoms: C_14  and  C_17
REMARK    6  A    between atoms: C_20  and  O_25
REMARK    7  A    between atoms: C_22  and  O_23
REMARK    8  A    between atoms: O_23  and  C_24
REMARK    9  A    between atoms: O_25  and  C_26
REMARK                            x       y       z     vdW  Elec       q    Type
REMARK                         _______ _______ _______ _____ _____    ______ ____
ROOT
ATOM      1  N   UNL     1       5.143   4.557  -0.556  0.00  0.00    +0.384 N 
ATOM      2  C   UNL     1       4.091   5.550  -0.298  0.00  0.00    -0.073 C 
ATOM      3  C   UNL     1       2.767   5.086  -0.911  0.00  0.00    +0.018 C 
ATOM      4  C   UNL     1       2.492   3.665  -0.433  0.00  0.00    -0.027 A 
ATOM      5  C   UNL     1       3.498   2.920   0.085  0.00  0.00    -0.021 A 
ATOM      6  S   UNL     1       2.747   1.370   0.503  0.00  0.00    -0.080 S 
ATOM      7  C   UNL     1       1.146   1.706   0.000  0.00  0.00    +0.080 A 
ATOM      8  C   UNL     1       1.194   3.020  -0.485  0.00  0.00    +0.067 A 
ATOM      9  C   UNL     1      -0.075   3.606  -0.988  0.00  0.00    +0.220 C 
ATOM     10  N   UNL     1      -1.178   2.947  -0.768  0.00  0.00    -0.223 NA
ATOM     11  C   UNL     1      -1.274   1.726   0.017  0.00  0.00    +0.227 C 
ATOM     12  N   UNL     1      -0.011   0.966   0.007  0.00  0.00    -0.313 N 
ATOM     13  C   UNL     1       4.923   3.342   0.252  0.00  0.00    -0.035 C 
ATOM     14  H   UNL     1      -0.031  -0.134   0.006  0.00  0.00    +0.149 HD
ATOM     15  H   UNL     1       5.094   4.279  -1.619  0.00  0.00    -0.081 HD
ENDROOT
BRANCH  11  16
ATOM     16  C   UNL     1      -1.619   2.088   1.439  0.00  0.00    +0.036 A 
ATOM     17  C   UNL     1      -1.144   1.317   2.482  0.00  0.00    +0.014 A 
ATOM     18  C   UNL     1      -1.454   1.649   3.787  0.00  0.00    +0.046 A 
ATOM     19  C   UNL     1      -2.253   2.752   4.052  0.00  0.00    +0.124 A 
ATOM     20  C   UNL     1      -2.736   3.524   3.007  0.00  0.00    +0.091 A 
ATOM     21  C   UNL     1      -2.418   3.192   1.699  0.00  0.00    +0.130 A 
BRANCH  21  22
ATOM     22  O   UNL     1      -2.890   3.947   0.672  0.00  0.00    -0.495 OA
ATOM     23  C   UNL     1      -3.707   5.069   1.014  0.00  0.00    +0.277 C 
ENDBRANCH  21  22
BRANCH  19  24
ATOM     24  O   UNL     1      -2.562   3.075   5.336  0.00  0.00    -0.495 OA
ATOM     25  C   UNL     1      -2.030   2.235   6.362  0.00  0.00    +0.277 C 
ENDBRANCH  19  24
ENDBRANCH  11  16
BRANCH   1  27
ATOM     26  C   UNL     1       6.593   5.513   1.170  0.00  0.00    -0.014 C 
ATOM     27  C   UNL     1       6.475   5.123  -0.304  0.00  0.00    -0.074 C 
ATOM     28  C   UNL     1       7.544   4.082  -0.643  0.00  0.00    -0.014 C 
ENDBRANCH   1  27
BRANCH   9  29
ATOM     29  O   UNL     1      -0.085   4.783  -1.654  0.00  0.00    -0.492 OA
ATOM     30  H   UNL     1      -1.035   5.201  -2.019  0.00  0.00    +0.294 HD
ENDBRANCH   9  29
TORSDOF 5
