REMARK  Name = ZINC63835193
REMARK  8 active torsions:
REMARK  status: ('A' for Active; 'I' for Inactive)
REMARK    1  A    between atoms: C_4  and  O_19
REMARK    2  A    between atoms: C_5  and  C_7
REMARK    3  A    between atoms: C_13  and  C_17
REMARK    4  A    between atoms: O_19  and  C_20
REMARK    5  A    between atoms: C_20  and  C_21
REMARK    6  A    between atoms: C_21  and  C_22
REMARK    7  A    between atoms: C_22  and  C_23
REMARK    8  A    between atoms: C_23  and  N_24
REMARK                            x       y       z     vdW  Elec       q    Type
REMARK                         _______ _______ _______ _____ _____    ______ ____
ROOT
ATOM      1  C   UNL     1      -0.017   1.378   0.010  0.00  0.00    +0.001 A 
ATOM      2  C   UNL     1       1.170   2.088   0.002  0.00  0.00    +0.004 A 
ATOM      3  C   UNL     1       2.377   1.417  -0.013  0.00  0.00    +0.046 A 
ATOM      4  C   UNL     1       2.399   0.030  -0.021  0.00  0.00    +0.127 A 
ATOM      5  C   UNL     1       1.207  -0.680  -0.013  0.00  0.00    +0.036 A 
ATOM      6  C   UNL     1       0.002  -0.004   0.002  0.00  0.00    +0.011 A 
ENDROOT
BRANCH   5   7
ATOM      7  C   UNL     1       1.227  -2.187  -0.022  0.00  0.00    +0.209 C 
ATOM      8  N   UNL     1       2.323  -2.671  -0.869  0.00  0.00    -0.360 N 
ATOM      9  C   UNL     1       1.794  -3.377  -1.828  0.00  0.00    +0.060 A 
ATOM     10  C   UNL     1       2.385  -4.102  -2.962  0.00  0.00    +0.028 A 
ATOM     11  C   UNL     1       1.592  -4.764  -3.823  0.00  0.00    +0.021 A 
ATOM     12  C   UNL     1       0.139  -4.789  -3.671  0.00  0.00    +0.054 A 
ATOM     13  C   UNL     1      -0.484  -4.141  -2.648  0.00  0.00    +0.046 A 
ATOM     14  C   UNL     1       0.316  -3.397  -1.667  0.00  0.00    +0.062 A 
ATOM     15  N   UNL     1      -0.014  -2.703  -0.612  0.00  0.00    -0.360 N 
ATOM     16  H   UNL     1      -0.913  -2.555  -0.279  0.00  0.00    +0.162 HD
ATOM     17  H   UNL     1       3.268  -2.498  -0.739  0.00  0.00    +0.162 HD
BRANCH  12  18
ATOM     18  C   UNL     1      -0.650  -5.511  -4.623  0.00  0.00    +0.099 C 
ATOM     19  N   UNL     1      -1.276  -6.084  -5.379  0.00  0.00    -0.191 NA
ENDBRANCH  12  18
ENDBRANCH   5   7
BRANCH   4  20
ATOM     20  O   UNL     1       3.586  -0.632  -0.037  0.00  0.00    -0.492 OA
BRANCH  20  21
ATOM     21  C   UNL     1       4.772   0.164  -0.045  0.00  0.00    +0.229 C 
BRANCH  21  22
ATOM     22  C   UNL     1       5.999  -0.751  -0.062  0.00  0.00    +0.042 C 
BRANCH  22  23
ATOM     23  C   UNL     1       7.270   0.101  -0.071  0.00  0.00    +0.019 C 
BRANCH  23  24
ATOM     24  C   UNL     1       8.497  -0.813  -0.088  0.00  0.00    +0.084 C 
BRANCH  24  25
ATOM     25  N   UNL     1       9.717   0.005  -0.097  0.00  0.00    -0.298 NA
ATOM     26  C   UNL     1       9.835   0.762  -1.351  0.00  0.00    +0.112 C 
ATOM     27  C   UNL     1      11.085   1.644  -1.293  0.00  0.00    +0.175 C 
ATOM     28  O   UNL     1      12.230   0.823  -1.046  0.00  0.00    -0.377 OA
ATOM     29  C   UNL     1      12.149   0.072   0.169  0.00  0.00    +0.175 C 
ATOM     30  C   UNL     1      10.909  -0.826   0.125  0.00  0.00    +0.112 C 
ENDBRANCH  24  25
ENDBRANCH  23  24
ENDBRANCH  22  23
ENDBRANCH  21  22
ENDBRANCH  20  21
ENDBRANCH   4  20
TORSDOF 8
