REMARK  Name = ZINC15955560
REMARK  8 active torsions:
REMARK  status: ('A' for Active; 'I' for Inactive)
REMARK    1  A    between atoms: C_1  and  C_2
REMARK    2  A    between atoms: C_2  and  C_3
REMARK    3  A    between atoms: C_2  and  C_4
REMARK    4  A    between atoms: C_4  and  C_5
REMARK    5  A    between atoms: C_5  and  C_6
REMARK    6  A    between atoms: C_9  and  S_13
REMARK    7  A    between atoms: S_13  and  C_14
REMARK    8  A    between atoms: C_14  and  C_15
REMARK                            x       y       z     vdW  Elec       q    Type
REMARK                         _______ _______ _______ _____ _____    ______ ____
ROOT
ATOM      1  C   UNL     1      -8.715  -0.725  -0.599  0.00  0.00    +0.173 C 
ENDROOT
BRANCH   1   2
ATOM      2  C   UNL     1     -10.175  -1.093  -0.529  0.00  0.00    +0.226 C 
ATOM      3  O   UNL     1     -10.538  -2.200  -0.866  0.00  0.00    -0.275 OA
ATOM      4  N   UNL     1     -11.076  -0.191  -0.093  0.00  0.00    -0.300 N 
ATOM      5  C   UNL     1     -12.501  -0.534  -0.013  0.00  0.00    +0.113 C 
ATOM      6  C   UNL     1     -13.340   0.535  -0.700  0.00  0.00    +0.027 C 
ATOM      7  C   UNL     1     -12.961   1.932  -0.207  0.00  0.00    +0.018 C 
ATOM      8  C   UNL     1     -11.478   2.164  -0.509  0.00  0.00    +0.054 C 
ATOM      9  C   UNL     1     -10.653   1.157   0.319  0.00  0.00    +0.117 C 
ATOM     10  C   UNL     1     -11.211   1.914  -1.974  0.00  0.00    +0.027 A 
ATOM     11  C   UNL     1     -10.169   2.577  -2.543  0.00  0.00    +0.022 A 
ATOM     12  C   UNL     1      -9.821   2.345  -3.878  0.00  0.00    +0.007 A 
ATOM     13  C   UNL     1     -10.529   1.423  -4.593  0.00  0.00    +0.070 A 
ATOM     14  C   UNL     1     -11.595   0.754  -3.976  0.00  0.00    +0.251 A 
ATOM     15  O   UNL     1     -12.194  -0.118  -4.584  0.00  0.00    -0.268 OA
ATOM     16  N   UNL     1     -11.967   1.067  -2.710  0.00  0.00    -0.312 N 
ATOM     17  C   UNL     1     -13.205   0.481  -2.210  0.00  0.00    +0.130 C 
ENDBRANCH   1   2
BRANCH   1  18
ATOM     18  S   UNL     1      -7.764  -2.139  -1.221  0.00  0.00    -0.078 S 
BRANCH  18  22
ATOM     19  C   UNL     1      -3.549  -0.653  -1.275  0.00  0.00    +0.083 A 
ATOM     20  C   UNL     1      -4.594   0.151  -0.853  0.00  0.00    +0.281 A 
ATOM     21  N   UNL     1      -5.841  -0.327  -0.851  0.00  0.00    -0.185 NA
ATOM     22  C   UNL     1      -6.101  -1.558  -1.244  0.00  0.00    +0.173 A 
ATOM     23  N   UNL     1      -5.109  -2.389  -1.668  0.00  0.00    -0.302 N 
ATOM     24  C   UNL     1      -3.831  -1.958  -1.697  0.00  0.00    +0.259 A 
ATOM     25  O   UNL     1      -2.935  -2.693  -2.080  0.00  0.00    -0.267 OA
ATOM     26  O   UNL     1      -4.353   1.419  -0.444  0.00  0.00    -0.265 OA
ATOM     27  H   UNL     1      -5.322  -3.292  -1.953  0.00  0.00    +0.171 HD
BRANCH  19  28
ATOM     28  C   UNL     1      -2.135  -0.131  -1.286  0.00  0.00    +0.046 C 
BRANCH  28  29
ATOM     29  C   UNL     1      -1.433  -0.534   0.013  0.00  0.00    +0.008 C 
BRANCH  29  31
ATOM     30  C   UNL     1      -0.019   1.526   0.010  0.00  0.00    +0.007 C 
ATOM     31  C   UNL     1       0.002  -0.004   0.002  0.00  0.00    -0.017 C 
ATOM     32  C   UNL     1       0.742  -0.511   1.242  0.00  0.00    +0.007 C 
ENDBRANCH  29  31
ENDBRANCH  28  29
ENDBRANCH  19  28
ENDBRANCH  18  22
ENDBRANCH   1  18
TORSDOF 6
