REMARK  Name = ZINC09170249
REMARK  11 active torsions:
REMARK  status: ('A' for Active; 'I' for Inactive)
REMARK    1  A    between atoms: C_1  and  C_2
REMARK    2  A    between atoms: C_2  and  C_3
REMARK    3  A    between atoms: C_2  and  C_4
REMARK    4  A    between atoms: C_4  and  O_5
REMARK    5  A    between atoms: O_5  and  C_6
REMARK    6  A    between atoms: C_9  and  S_12
REMARK    7  A    between atoms: S_12  and  N_15
REMARK    8  A    between atoms: N_15  and  C_16
REMARK    9  A    between atoms: N_22  and  C_30
REMARK   10  A    between atoms: C_25  and  C_28
REMARK   11  A    between atoms: C_25  and  C_29
REMARK                            x       y       z     vdW  Elec       q    Type
REMARK                         _______ _______ _______ _____ _____    ______ ____
ROOT
ATOM      1  N   UNL     1      -1.313   6.702  -1.799  0.00  0.00    -0.216 N 
ATOM      2  H   UNL     1      -1.754   7.199  -1.092  0.00  0.00    +0.174 HD
ENDROOT
BRANCH   1   3
ATOM      3  C   UNL     1      -0.984   5.356  -1.607  0.00  0.00    +0.050 A 
ATOM      4  C   UNL     1       0.268   4.887  -1.985  0.00  0.00    +0.028 A 
ATOM      5  C   UNL     1       0.598   3.558  -1.796  0.00  0.00    +0.049 A 
ATOM      6  C   UNL     1      -0.319   2.690  -1.229  0.00  0.00    +0.142 A 
ATOM      7  C   UNL     1      -1.577   3.157  -0.853  0.00  0.00    +0.080 A 
ATOM      8  C   UNL     1      -1.908   4.489  -1.040  0.00  0.00    +0.051 A 
ATOM      9  N   UNL     1      -2.501   2.265  -0.292  0.00  0.00    -0.271 N 
ATOM     10  C   UNL     1      -2.111   1.453   0.716  0.00  0.00    +0.229 C 
ATOM     11  O   UNL     1      -2.879   0.631   1.169  0.00  0.00    -0.275 OA
ATOM     12  C   UNL     1      -0.720   1.574   1.271  0.00  0.00    +0.076 C 
ATOM     13  C   UNL     1       0.293   0.973   0.298  0.00  0.00    +0.244 C 
ATOM     14  O   UNL     1      -0.000   1.382  -1.036  0.00  0.00    -0.489 OA
ATOM     15  C   UNL     1      -0.645   0.830   2.605  0.00  0.00    +0.024 C 
ATOM     16  C   UNL     1      -0.391   3.051   1.497  0.00  0.00    +0.024 C 
ATOM     17  C   UNL     1      -3.877   2.212  -0.793  0.00  0.00    +0.138 C 
ENDBRANCH   1   3
BRANCH   1  18
ATOM     18  S   UNL     1      -0.952   7.447  -3.233  0.00  0.00    +0.072 S 
ATOM     19  O   UNL     1      -1.429   8.782  -3.129  0.00  0.00    -0.150 OA
ATOM     20  O   UNL     1       0.407   7.145  -3.516  0.00  0.00    -0.150 OA
BRANCH  18  24
ATOM     21  C   UNL     1      -3.424   5.435  -6.449  0.00  0.00    +0.121 A 
ATOM     22  C   UNL     1      -3.930   6.533  -5.769  0.00  0.00    +0.047 A 
ATOM     23  C   UNL     1      -3.174   7.145  -4.788  0.00  0.00    +0.032 A 
ATOM     24  C   UNL     1      -1.913   6.665  -4.484  0.00  0.00    +0.109 A 
ATOM     25  C   UNL     1      -1.405   5.574  -5.165  0.00  0.00    +0.032 A 
ATOM     26  C   UNL     1      -2.159   4.955  -6.142  0.00  0.00    +0.047 A 
BRANCH  21  27
ATOM     27  O   UNL     1      -4.166   4.831  -7.414  0.00  0.00    -0.492 OA
BRANCH  27  28
ATOM     28  C   UNL     1      -3.581   3.706  -8.073  0.00  0.00    +0.232 C 
BRANCH  28  30
ATOM     29  C   UNL     1      -3.885   2.039  -9.909  0.00  0.00    +0.010 C 
ATOM     30  C   UNL     1      -4.557   3.163  -9.119  0.00  0.00    +0.020 C 
ATOM     31  C   UNL     1      -5.804   2.619  -8.418  0.00  0.00    +0.010 C 
ENDBRANCH  28  30
ENDBRANCH  27  28
ENDBRANCH  21  27
ENDBRANCH  18  24
ENDBRANCH   1  18
TORSDOF 6
