REMARK  Name = ZINC14037773
REMARK  10 active torsions:
REMARK  status: ('A' for Active; 'I' for Inactive)
REMARK    1  A    between atoms: C_1  and  C_2
REMARK    2  A    between atoms: C_4  and  N_7
REMARK    3  A    between atoms: N_7  and  S_8
REMARK    4  A    between atoms: S_8  and  C_11
REMARK    5  A    between atoms: C_14  and  N_17
REMARK    6  A    between atoms: C_18  and  C_20
REMARK    7  A    between atoms: C_20  and  C_22
REMARK    8  A    between atoms: C_20  and  O_23
REMARK    9  A    between atoms: O_23  and  C_24
REMARK   10  A    between atoms: C_27  and  N_30
REMARK                            x       y       z     vdW  Elec       q    Type
REMARK                         _______ _______ _______ _____ _____    ______ ____
ROOT
ATOM      1  C   UNL     1       6.536   1.364   1.256  0.00  0.00    +0.111 A 
ATOM      2  C   UNL     1       5.915   0.325   1.924  0.00  0.00    +0.031 A 
ATOM      3  C   UNL     1       4.537   0.242   1.947  0.00  0.00    +0.025 A 
ATOM      4  C   UNL     1       3.774   1.205   1.299  0.00  0.00    +0.034 A 
ATOM      5  C   UNL     1       4.401   2.244   0.625  0.00  0.00    +0.025 A 
ATOM      6  C   UNL     1       5.779   2.324   0.610  0.00  0.00    +0.031 A 
ENDROOT
BRANCH   4   7
ATOM      7  N   UNL     1       2.377   1.124   1.320  0.00  0.00    -0.282 N 
ATOM      8  C   UNL     1       1.747   0.635   2.407  0.00  0.00    +0.258 C 
ATOM      9  O   UNL     1       2.381   0.363   3.405  0.00  0.00    -0.271 OA
ATOM     10  H   UNL     1       1.794   1.459   0.450  0.00  0.00    +0.155 HD
BRANCH   8  11
ATOM     11  C   UNL     1       0.255   0.427   2.383  0.00  0.00    +0.256 C 
ATOM     12  C   UNL     1      -0.093  -0.654   1.357  0.00  0.00    +0.062 C 
BRANCH  11  13
ATOM     13  O   UNL     1      -0.190   0.016   3.677  0.00  0.00    -0.480 OA
BRANCH  13  14
ATOM     14  C   UNL     1      -1.487   0.270   3.993  0.00  0.00    +0.122 A 
ATOM     15  C   UNL     1      -2.343   0.804   3.041  0.00  0.00    +0.048 A 
ATOM     16  C   UNL     1      -3.662   1.057   3.363  0.00  0.00    +0.036 A 
ATOM     17  C   UNL     1      -4.127   0.789   4.638  0.00  0.00    +0.126 A 
ATOM     18  C   UNL     1      -3.274   0.263   5.590  0.00  0.00    +0.036 A 
ATOM     19  C   UNL     1      -1.956   0.003   5.271  0.00  0.00    +0.048 A 
BRANCH  17  20
ATOM     20  N   UNL     1      -5.539   1.068   4.982  0.00  0.00    +0.056 N 
ATOM     21  O   UNL     1      -5.949   0.833   6.105  0.00  0.00    -0.126 OA
ATOM     22  O   UNL     1      -6.290   1.532   4.144  0.00  0.00    -0.126 OA
ENDBRANCH  17  20
ENDBRANCH  13  14
ENDBRANCH  11  13
ENDBRANCH   8  11
ENDBRANCH   4   7
BRANCH   1  23
ATOM     23  S   UNL     1       8.295   1.466   1.229  0.00  0.00    +0.093 S 
ATOM     24  O   UNL     1       8.619   2.830   1.000  0.00  0.00    -0.148 OA
ATOM     25  O   UNL     1       8.761   0.752   2.366  0.00  0.00    -0.148 OA
BRANCH  23  26
ATOM     26  N   UNL     1       8.813   0.627  -0.102  0.00  0.00    -0.074 NA
BRANCH  26  30
ATOM     27  C   UNL     1       8.368   1.113  -5.040  0.00  0.00    +0.089 C 
ATOM     28  C   UNL     1       8.295   1.282  -3.544  0.00  0.00    +0.136 A 
ATOM     29  C   UNL     1       8.850   0.475  -2.612  0.00  0.00    +0.094 A 
ATOM     30  C   UNL     1       8.486   1.075  -1.377  0.00  0.00    +0.205 A 
ATOM     31  N   UNL     1       7.777   2.132  -1.681  0.00  0.00    -0.060 NA
ATOM     32  O   UNL     1       7.667   2.262  -2.878  0.00  0.00    -0.358 OA
ENDBRANCH  26  30
ENDBRANCH  23  26
ENDBRANCH   1  23
TORSDOF 8
