REMARK  Name = ZINC20817801
REMARK  12 active torsions:
REMARK  status: ('A' for Active; 'I' for Inactive)
REMARK    1  A    between atoms: C_1  and  C_2
REMARK    2  A    between atoms: C_2  and  O_3
REMARK    3  A    between atoms: O_3  and  C_4
REMARK    4  A    between atoms: C_4  and  C_6
REMARK    5  A    between atoms: C_10  and  N_11
REMARK    6  A    between atoms: C_12  and  C_14
REMARK    7  A    between atoms: C_14  and  C_16
REMARK    8  A    between atoms: C_14  and  S_17
REMARK    9  A    between atoms: S_17  and  C_18
REMARK   10  A    between atoms: C_21  and  C_24
REMARK   11  A    between atoms: N_22  and  N_23
REMARK   12  A    between atoms: C_29  and  C_33
REMARK                            x       y       z     vdW  Elec       q    Type
REMARK                         _______ _______ _______ _____ _____    ______ ____
ROOT
ATOM      1  N   UNL     1      -1.368   1.235  -4.919  0.00  0.00    -0.278 N 
ATOM      2  C   UNL     1      -2.159   1.906  -5.780  0.00  0.00    +0.231 C 
ATOM      3  O   UNL     1      -2.847   2.823  -5.383  0.00  0.00    -0.274 OA
ATOM      4  H   UNL     1      -0.745   0.404  -5.279  0.00  0.00    +0.155 HD
ENDROOT
BRANCH   1   9
ATOM      5  C   UNL     1      -0.600   1.027  -2.551  0.00  0.00    +0.091 A 
ATOM      6  C   UNL     1      -0.755   1.593  -1.222  0.00  0.00    -0.021 A 
ATOM      7  C   UNL     1      -1.621   2.626  -1.135  0.00  0.00    -0.004 A 
ATOM      8  S   UNL     1      -2.225   2.851  -2.784  0.00  0.00    -0.077 S 
ATOM      9  C   UNL     1      -1.341   1.592  -3.580  0.00  0.00    +0.086 A 
ATOM     10  C   UNL     1      -1.980   3.403   0.095  0.00  0.00    +0.046 C 
ATOM     11  C   UNL     1      -0.938   3.098   1.181  0.00  0.00    -0.009 C 
ATOM     12  C   UNL     1      -0.734   1.582   1.262  0.00  0.00    +0.008 C 
ATOM     13  C   UNL     1      -0.013   1.086   0.008  0.00  0.00    +0.037 C 
ATOM     14  C   UNL     1      -1.435   3.621   2.530  0.00  0.00    +0.008 C 
BRANCH   5  15
ATOM     15  C   UNL     1       0.305  -0.098  -2.796  0.00  0.00    +0.342 C 
ATOM     16  O   UNL     1      -0.104  -1.240  -2.703  0.00  0.00    -0.245 OA
BRANCH  15  17
ATOM     17  O   UNL     1       1.593   0.131  -3.126  0.00  0.00    -0.461 OA
BRANCH  17  19
ATOM     18  C   UNL     1       3.848  -0.576  -3.714  0.00  0.00    +0.048 C 
ATOM     19  C   UNL     1       2.432  -1.031  -3.354  0.00  0.00    +0.229 C 
ENDBRANCH  17  19
ENDBRANCH  15  17
ENDBRANCH   5  15
ENDBRANCH   1   9
BRANCH   2  20
ATOM     20  C   UNL     1      -2.188   1.518  -7.236  0.00  0.00    +0.137 C 
ATOM     21  C   UNL     1      -3.186   0.376  -7.439  0.00  0.00    +0.029 C 
BRANCH  20  22
ATOM     22  S   UNL     1      -2.693   2.944  -8.230  0.00  0.00    -0.072 S 
BRANCH  22  23
ATOM     23  C   UNL     1      -2.498   2.273  -9.848  0.00  0.00    +0.209 A 
ATOM     24  N   UNL     1      -2.088   1.062 -10.146  0.00  0.00    -0.121 NA
ATOM     25  N   UNL     1      -2.068   0.911 -11.422  0.00  0.00    -0.123 NA
ATOM     26  C   UNL     1      -2.453   2.009 -12.010  0.00  0.00    +0.255 A 
ATOM     27  N   UNL     1      -2.741   2.916 -11.028  0.00  0.00    -0.220 N 
BRANCH  26  28
ATOM     28  C   UNL     1      -2.560   2.236 -13.495  0.00  0.00    +0.454 C 
ATOM     29  F   UNL     1      -2.517   1.006 -14.160  0.00  0.00    -0.163 F 
ATOM     30  F   UNL     1      -3.770   2.878 -13.782  0.00  0.00    -0.163 F 
ATOM     31  F   UNL     1      -1.495   3.036 -13.923  0.00  0.00    -0.163 F 
ENDBRANCH  26  28
BRANCH  27  32
ATOM     32  N   UNL     1      -3.180   4.199 -11.193  0.00  0.00    -0.295 N 
ATOM     33  H   UNL     1      -3.337   4.600 -12.205  0.00  0.00    +0.163 HD
ATOM     34  H   UNL     1      -3.377   4.830 -10.314  0.00  0.00    +0.163 HD
ENDBRANCH  27  32
ENDBRANCH  22  23
ENDBRANCH  20  22
ENDBRANCH   2  20
TORSDOF 9
