REMARK  Name = ZINC61537625
REMARK  7 active torsions:
REMARK  status: ('A' for Active; 'I' for Inactive)
REMARK    1  A    between atoms: C_1  and  C_2
REMARK    2  A    between atoms: C_2  and  C_4
REMARK    3  A    between atoms: C_2  and  N_9
REMARK    4  A    between atoms: C_12  and  O_17
REMARK    5  A    between atoms: O_17  and  C_18
REMARK    6  A    between atoms: C_18  and  C_19
REMARK    7  A    between atoms: C_18  and  C_20
REMARK                            x       y       z     vdW  Elec       q    Type
REMARK                         _______ _______ _______ _____ _____    ______ ____
ROOT
ATOM      1  N   UNL     1      -1.372  -0.511   0.012  0.00  0.00    -0.306 N 
ATOM      2  C   UNL     1      -2.067  -0.646  -1.172  0.00  0.00    +0.223 A 
ATOM      3  N   UNL     1      -3.316  -1.101  -1.163  0.00  0.00    -0.161 NA
ATOM      4  C   UNL     1      -3.981  -1.229  -2.304  0.00  0.00    +0.324 A 
ATOM      5  N   UNL     1      -3.397  -0.903  -3.453  0.00  0.00    -0.164 NA
ATOM      6  C   UNL     1      -2.154  -0.450  -3.460  0.00  0.00    +0.230 A 
ATOM      7  N   UNL     1      -1.490  -0.316  -2.324  0.00  0.00    -0.184 NA
ATOM      8 CL   UNL     1      -1.396  -0.025  -4.963  0.00  0.00    -0.041 Cl
ATOM      9  H   UNL     1      -1.794  -0.752   0.852  0.00  0.00    +0.150 HD
ENDROOT
BRANCH   1  11
ATOM     10  C   UNL     1      -0.019   1.526   0.010  0.00  0.00    +0.033 C 
ATOM     11  C   UNL     1       0.002  -0.004   0.002  0.00  0.00    +0.107 C 
BRANCH  11  12
ATOM     12  C   UNL     1       0.731  -0.503   1.223  0.00  0.00    +0.010 A 
ATOM     13  C   UNL     1       2.010  -0.938   1.335  0.00  0.00    +0.013 A 
ATOM     14  C   UNL     1       2.470  -1.354   2.570  0.00  0.00    +0.008 A 
ATOM     15  C   UNL     1       1.630  -1.314   3.633  0.00  0.00    +0.045 A 
ATOM     16  S   UNL     1       0.137  -0.668   2.898  0.00  0.00    -0.100 S 
ENDBRANCH  11  12
ENDBRANCH   1  11
BRANCH   4  17
ATOM     17  O   UNL     1      -5.252  -1.692  -2.298  0.00  0.00    -0.460 OA
BRANCH  17  18
ATOM     18  C   UNL     1      -5.907  -1.805  -3.563  0.00  0.00    +0.171 C 
ATOM     19  C   UNL     1      -6.921  -2.949  -3.512  0.00  0.00    +0.052 C 
ATOM     20  C   UNL     1      -6.632  -0.495  -3.880  0.00  0.00    +0.052 C 
ENDBRANCH  17  18
ENDBRANCH   4  17
TORSDOF 4
