REMARK  Name = ZINC09651495
REMARK  6 active torsions:
REMARK  status: ('A' for Active; 'I' for Inactive)
REMARK    1  A    between atoms: C_3  and  N_27
REMARK    2  A    between atoms: C_6  and  N_7
REMARK    3  A    between atoms: C_8  and  C_10
REMARK    4  A    between atoms: C_10  and  S_11
REMARK    5  A    between atoms: S_11  and  C_12
REMARK    6  A    between atoms: N_19  and  C_20
REMARK                            x       y       z     vdW  Elec       q    Type
REMARK                         _______ _______ _______ _____ _____    ______ ____
ROOT
ATOM      1  S   UNL     1       1.822  -2.059  -0.025  0.00  0.00    -0.077 S 
ENDROOT
BRANCH   1   2
ATOM      2  C   UNL     1       1.253  -0.392   0.001  0.00  0.00    +0.193 A 
ATOM      3  N   UNL     1       0.002  -0.004   0.024  0.00  0.00    -0.121 NA
ATOM      4  N   UNL     1      -0.017   1.395   0.038  0.00  0.00    -0.112 NA
ATOM      5  C   UNL     1       1.230   1.822   0.023  0.00  0.00    +0.225 A 
ATOM      6  N   UNL     1       2.040   0.728  -0.000  0.00  0.00    -0.289 N 
ATOM      7  C   UNL     1       3.446   1.158  -0.018  0.00  0.00    +0.146 C 
ATOM      8  C   UNL     1       3.387   2.695  -0.003  0.00  0.00    +0.135 C 
ATOM      9  N   UNL     1       1.953   3.009   0.023  0.00  0.00    -0.268 N 
BRANCH   9  10
ATOM     10  C   UNL     1       1.404   4.295   0.044  0.00  0.00    +0.037 A 
ATOM     11  C   UNL     1       2.236   5.407   0.048  0.00  0.00    +0.026 A 
ATOM     12  C   UNL     1       1.691   6.676   0.065  0.00  0.00    +0.040 A 
ATOM     13  C   UNL     1       0.316   6.839   0.088  0.00  0.00    +0.124 A 
ATOM     14  C   UNL     1      -0.515   5.732   0.089  0.00  0.00    +0.040 A 
ATOM     15  C   UNL     1       0.025   4.461   0.068  0.00  0.00    +0.026 A 
ATOM     16  F   UNL     1      -0.215   8.082   0.108  0.00  0.00    -0.205 F 
ENDBRANCH   9  10
ENDBRANCH   1   2
BRANCH   1  17
ATOM     17  C   UNL     1       0.298  -3.043  -0.011  0.00  0.00    +0.173 C 
BRANCH  17  19
ATOM     18  N   UNL     1      -0.334  -5.435  -0.025  0.00  0.00    -0.285 N 
ATOM     19  C   UNL     1       0.646  -4.509  -0.031  0.00  0.00    +0.227 C 
ATOM     20  O   UNL     1       1.808  -4.856  -0.053  0.00  0.00    -0.275 OA
ATOM     21  H   UNL     1      -1.260  -5.160   0.061  0.00  0.00    +0.155 HD
BRANCH  18  27
ATOM     22  C   UNL     1      -0.863  -7.650  -0.829  0.00  0.00    +0.025 A 
ATOM     23  C   UNL     1      -0.542  -8.988  -0.947  0.00  0.00    +0.034 A 
ATOM     24  C   UNL     1       0.616  -9.476  -0.371  0.00  0.00    +0.126 A 
ATOM     25  C   UNL     1       1.460  -8.626   0.320  0.00  0.00    +0.034 A 
ATOM     26  C   UNL     1       1.148  -7.285   0.436  0.00  0.00    +0.025 A 
ATOM     27  C   UNL     1      -0.015  -6.792  -0.141  0.00  0.00    +0.034 A 
BRANCH  24  28
ATOM     28  N   UNL     1       0.954 -10.912  -0.494  0.00  0.00    +0.056 N 
ATOM     29  O   UNL     1       1.974 -11.343   0.012  0.00  0.00    -0.126 OA
ATOM     30  O   UNL     1       0.211 -11.662  -1.103  0.00  0.00    -0.126 OA
ENDBRANCH  24  28
ENDBRANCH  18  27
ENDBRANCH  17  19
ENDBRANCH   1  17
TORSDOF 6
