REMARK  Name = ZINC13396993
REMARK  9 active torsions:
REMARK  status: ('A' for Active; 'I' for Inactive)
REMARK    1  A    between atoms: C_1  and  C_2
REMARK    2  A    between atoms: C_2  and  C_3
REMARK    3  A    between atoms: C_2  and  C_4
REMARK    4  A    between atoms: C_2  and  O_25
REMARK    5  A    between atoms: N_6  and  C_7
REMARK    6  A    between atoms: C_10  and  S_13
REMARK    7  A    between atoms: S_13  and  N_16
REMARK    8  A    between atoms: C_20  and  C_23
REMARK    9  A    between atoms: O_25  and  C_26
REMARK                            x       y       z     vdW  Elec       q    Type
REMARK                         _______ _______ _______ _____ _____    ______ ____
ROOT
ATOM      1  C   UNL     1      -5.569  -1.801  -0.854  0.00  0.00    +0.034 A 
ATOM      2  C   UNL     1      -5.083  -0.666  -1.488  0.00  0.00    +0.025 A 
ATOM      3  C   UNL     1      -3.726  -0.523  -1.704  0.00  0.00    +0.030 A 
ATOM      4  C   UNL     1      -2.852  -1.511  -1.288  0.00  0.00    +0.106 A 
ATOM      5  C   UNL     1      -3.332  -2.645  -0.661  0.00  0.00    +0.030 A 
ATOM      6  C   UNL     1      -4.688  -2.791  -0.438  0.00  0.00    +0.025 A 
ENDROOT
BRANCH   1   9
ATOM      7  C   UNL     1      -7.824  -1.438  -1.517  0.00  0.00    +0.261 C 
ATOM      8  O   UNL     1      -7.429  -0.939  -2.550  0.00  0.00    -0.271 OA
ATOM      9  N   UNL     1      -6.943  -1.949  -0.635  0.00  0.00    -0.282 N 
ATOM     10  H   UNL     1      -7.261  -2.418   0.152  0.00  0.00    +0.155 HD
BRANCH   7  12
ATOM     11  C   UNL     1      -9.741  -2.944  -1.060  0.00  0.00    +0.065 C 
ATOM     12  C   UNL     1      -9.301  -1.488  -1.221  0.00  0.00    +0.180 C 
ATOM     13  C   UNL     1      -9.588  -0.722   0.072  0.00  0.00    +0.065 C 
BRANCH  12  14
ATOM     14  O   UNL     1     -10.023  -0.888  -2.299  0.00  0.00    -0.477 OA
BRANCH  14  15
ATOM     15  C   UNL     1      -9.900  -1.468  -3.522  0.00  0.00    +0.122 A 
ATOM     16  C   UNL     1      -9.003  -2.509  -3.710  0.00  0.00    +0.047 A 
ATOM     17  C   UNL     1      -8.882  -3.100  -4.953  0.00  0.00    +0.023 A 
ATOM     18  C   UNL     1      -9.648  -2.647  -6.012  0.00  0.00    +0.041 A 
ATOM     19  C   UNL     1     -10.539  -1.605  -5.829  0.00  0.00    +0.023 A 
ATOM     20  C   UNL     1     -10.666  -1.015  -4.586  0.00  0.00    +0.047 A 
ATOM     21 CL   UNL     1      -9.490  -3.388  -7.575  0.00  0.00    -0.084 Cl
ENDBRANCH  14  15
ENDBRANCH  12  14
ENDBRANCH   7  12
ENDBRANCH   1   9
BRANCH   4  22
ATOM     22  S   UNL     1      -1.121  -1.326  -1.565  0.00  0.00    +0.061 S 
ATOM     23  O   UNL     1      -0.979  -0.433  -2.661  0.00  0.00    -0.153 OA
ATOM     24  O   UNL     1      -0.569  -2.635  -1.572  0.00  0.00    -0.153 OA
BRANCH  22  25
ATOM     25  N   UNL     1      -0.493  -0.554  -0.241  0.00  0.00    -0.176 NA
ATOM     26  C   UNL     1      -0.418   0.912  -0.195  0.00  0.00    +0.109 C 
ATOM     27  C   UNL     1      -1.103   1.402   1.085  0.00  0.00    +0.018 C 
ATOM     28  C   UNL     1      -0.477   0.702   2.293  0.00  0.00    +0.017 C 
ATOM     29  C   UNL     1      -0.688  -0.810   2.180  0.00  0.00    +0.118 C 
ATOM     30  C   UNL     1      -0.001  -1.323   0.910  0.00  0.00    +0.124 C 
BRANCH  29  31
ATOM     31  C   UNL     1      -0.097  -1.496   3.384  0.00  0.00    +0.360 C 
ATOM     32  O   UNL     1       0.784  -2.311   3.243  0.00  0.00    -0.246 OA
ATOM     33  O   UNL     1      -0.548  -1.200   4.614  0.00  0.00    -0.246 OA
ENDBRANCH  29  31
ENDBRANCH  22  25
ENDBRANCH   4  22
TORSDOF 7
