REMARK  Name = ZINC18118644
REMARK  8 active torsions:
REMARK  status: ('A' for Active; 'I' for Inactive)
REMARK    1  A    between atoms: C_1  and  C_2
REMARK    2  A    between atoms: C_2  and  N_3
REMARK    3  A    between atoms: N_3  and  C_4
REMARK    4  A    between atoms: C_5  and  N_20
REMARK    5  A    between atoms: N_6  and  C_13
REMARK    6  A    between atoms: C_13  and  C_14
REMARK    7  A    between atoms: C_21  and  C_23
REMARK    8  A    between atoms: C_29  and  C_31
REMARK                            x       y       z     vdW  Elec       q    Type
REMARK                         _______ _______ _______ _____ _____    ______ ____
ROOT
ATOM      1  C   UNL     1       5.146  -0.199   1.888  0.00  0.00    +0.140 A 
ATOM      2  C   UNL     1       6.383  -0.741   1.604  0.00  0.00    +0.128 A 
ATOM      3  N   UNL     1       7.231  -1.057   2.639  0.00  0.00    -0.276 N 
ATOM      4  C   UNL     1       6.860  -0.841   3.914  0.00  0.00    +0.331 A 
ATOM      5  O   UNL     1       7.624  -1.128   4.816  0.00  0.00    -0.246 OA
ATOM      6  N   UNL     1       5.658  -0.314   4.210  0.00  0.00    -0.273 N 
ATOM      7  H   UNL     1       5.405  -0.167   5.166  0.00  0.00    +0.173 HD
ATOM      8  C   UNL     1       4.793   0.019   3.233  0.00  0.00    +0.277 A 
ATOM      9  O   UNL     1       3.708   0.501   3.511  0.00  0.00    -0.266 OA
ENDROOT
BRANCH   1  10
ATOM     10  N   UNL     1       4.254   0.137   0.848  0.00  0.00    -0.264 N 
ATOM     11  C   UNL     1       3.145  -0.604   0.645  0.00  0.00    +0.223 C 
ATOM     12  O   UNL     1       2.425  -0.371  -0.304  0.00  0.00    -0.275 OA
BRANCH  11  13
ATOM     13  C   UNL     1       2.800  -1.720   1.597  0.00  0.00    +0.078 C 
ATOM     14  C   UNL     1       1.290  -1.968   1.566  0.00  0.00    +0.032 C 
ATOM     15  C   UNL     1       0.938  -3.079   2.560  0.00  0.00    +0.109 C 
ATOM     16  N   UNL     1       1.751  -4.264   2.252  0.00  0.00    -0.297 N 
ATOM     17  C   UNL     1       3.211  -4.117   2.167  0.00  0.00    +0.109 C 
ATOM     18  C   UNL     1       3.536  -2.994   1.178  0.00  0.00    +0.032 C 
ATOM     19  C   UNL     1       1.169  -5.464   2.056  0.00  0.00    +0.253 C 
ATOM     20  O   UNL     1       1.833  -6.405   1.664  0.00  0.00    -0.269 OA
BRANCH  19  21
ATOM     21  C   UNL     1      -0.263  -5.635   2.315  0.00  0.00    +0.074 A 
ATOM     22  C   UNL     1      -1.080  -6.718   2.029  0.00  0.00    +0.021 A 
ATOM     23  C   UNL     1      -2.401  -6.616   2.386  0.00  0.00    +0.008 A 
ATOM     24  C   UNL     1      -2.842  -5.476   2.982  0.00  0.00    +0.046 A 
ATOM     25  S   UNL     1      -1.412  -4.500   3.073  0.00  0.00    -0.092 S 
ENDBRANCH  19  21
ENDBRANCH  11  13
BRANCH  10  27
ATOM     26  C   UNL     1       3.799   2.519   0.529  0.00  0.00    +0.025 C 
ATOM     27  C   UNL     1       4.532   1.290  -0.012  0.00  0.00    +0.110 C 
ENDBRANCH  10  27
ENDBRANCH   1  10
BRANCH   2  28
ATOM     28  N   UNL     1       6.763  -0.962   0.302  0.00  0.00    -0.343 N 
ATOM     29  H   UNL     1       6.189  -0.676  -0.426  0.00  0.00    +0.144 HD
ATOM     30  H   UNL     1       7.604  -1.405   0.110  0.00  0.00    +0.144 HD
ENDBRANCH   2  28
BRANCH   3  31
ATOM     31  C   UNL     1       8.548  -1.633   2.352  0.00  0.00    +0.163 C 
BRANCH  31  32
ATOM     32  C   UNL     1       9.557  -0.525   2.196  0.00  0.00    -0.028 A 
ATOM     33  C   UNL     1       9.790   0.027   0.950  0.00  0.00    +0.005 A 
ATOM     34  C   UNL     1      10.712   1.047   0.807  0.00  0.00    +0.000 A 
ATOM     35  C   UNL     1      11.410   1.507   1.909  0.00  0.00    +0.000 A 
ATOM     36  C   UNL     1      11.181   0.951   3.153  0.00  0.00    +0.000 A 
ATOM     37  C   UNL     1      10.255  -0.065   3.297  0.00  0.00    +0.005 A 
ENDBRANCH  31  32
ENDBRANCH   3  31
TORSDOF 7
