REMARK  Name = ZINC51714673
REMARK  4 active torsions:
REMARK  status: ('A' for Active; 'I' for Inactive)
REMARK    1  A    between atoms: C_3  and  C_21
REMARK    2  A    between atoms: C_6  and  C_7
REMARK    3  A    between atoms: C_7  and  N_8
REMARK    4  A    between atoms: C_15  and  C_18
REMARK                            x       y       z     vdW  Elec       q    Type
REMARK                         _______ _______ _______ _____ _____    ______ ____
ROOT
ATOM      1  C   UNL     1      -1.297  -0.769   0.011  0.00  0.00    +0.141 C 
ENDROOT
BRANCH   1   2
ATOM      2  N   UNL     1      -1.730  -1.010  -1.367  0.00  0.00    -0.295 N 
ATOM      3  C   UNL     1      -2.870  -1.688  -1.606  0.00  0.00    +0.303 C 
ATOM      4  O   UNL     1      -3.491  -2.178  -0.683  0.00  0.00    -0.253 OA
ATOM      5  N   UNL     1      -3.322  -1.823  -2.869  0.00  0.00    -0.281 N 
ATOM      6  C   UNL     1      -2.529  -1.345  -4.012  0.00  0.00    +0.137 C 
ATOM      7  C   UNL     1      -2.427  -2.479  -5.038  0.00  0.00    +0.180 C 
ATOM      8  O   UNL     1      -3.739  -2.965  -5.334  0.00  0.00    -0.364 OA
ATOM      9  C   UNL     1      -4.419  -3.534  -4.213  0.00  0.00    +0.221 C 
ATOM     10  C   UNL     1      -4.620  -2.459  -3.145  0.00  0.00    +0.150 C 
ATOM     11  H   UNL     1      -1.197  -0.682  -2.108  0.00  0.00    +0.151 HD
BRANCH   9  12
ATOM     12  C   UNL     1      -5.758  -4.067  -4.654  0.00  0.00    +0.241 C 
ATOM     13  O   UNL     1      -6.137  -3.889  -5.792  0.00  0.00    -0.273 OA
ATOM     14  N   UNL     1      -6.535  -4.741  -3.783  0.00  0.00    -0.327 N 
ATOM     15  H   UNL     1      -6.232  -4.883  -2.873  0.00  0.00    +0.145 HD
ATOM     16  H   UNL     1      -7.397  -5.083  -4.067  0.00  0.00    +0.145 HD
ENDBRANCH   9  12
ENDBRANCH   1   2
BRANCH   1  22
ATOM     17  C   UNL     1      -0.027   1.387   0.013  0.00  0.00    +0.006 A 
ATOM     18  C   UNL     1       1.155   2.100   0.006  0.00  0.00    +0.009 A 
ATOM     19  C   UNL     1       2.373   1.424  -0.011  0.00  0.00    -0.018 A 
ATOM     20  C   UNL     1       2.391   0.031  -0.021  0.00  0.00    +0.009 A 
ATOM     21  C   UNL     1       1.204  -0.672  -0.014  0.00  0.00    +0.006 A 
ATOM     22  C   UNL     1      -0.003   0.004   0.003  0.00  0.00    -0.030 A 
BRANCH  19  23
ATOM     23  C   UNL     1       3.647   2.185  -0.019  0.00  0.00    -0.017 A 
ATOM     24  C   UNL     1       3.631   3.579  -0.004  0.00  0.00    +0.012 A 
ATOM     25  C   UNL     1       4.814   4.285  -0.008  0.00  0.00    +0.046 A 
ATOM     26  C   UNL     1       6.036   3.615  -0.028  0.00  0.00    +0.124 A 
ATOM     27  C   UNL     1       6.043   2.225  -0.050  0.00  0.00    -0.002 A 
ATOM     28  C   UNL     1       4.867   1.512  -0.036  0.00  0.00    +0.015 A 
ATOM     29  C   UNL     1       7.495   1.789  -0.093  0.00  0.00    +0.080 C 
ATOM     30  C   UNL     1       8.212   3.102  -0.489  0.00  0.00    +0.234 C 
ATOM     31  O   UNL     1       7.303   4.114  -0.023  0.00  0.00    -0.491 OA
ENDBRANCH  19  23
ENDBRANCH   1  22
TORSDOF 4
