REMARK  Name = ZINC01149980
REMARK  13 active torsions:
REMARK  status: ('A' for Active; 'I' for Inactive)
REMARK    1  A    between atoms: C_1  and  C_2
REMARK    2  A    between atoms: C_5  and  S_8
REMARK    3  A    between atoms: S_8  and  N_11
REMARK    4  A    between atoms: N_11  and  C_12
REMARK    5  A    between atoms: N_11  and  C_28
REMARK    6  A    between atoms: C_12  and  C_13
REMARK    7  A    between atoms: N_15  and  C_16
REMARK    8  A    between atoms: C_21  and  C_22
REMARK    9  A    between atoms: N_24  and  C_25
REMARK   10  A    between atoms: C_25  and  C_26
REMARK   11  A    between atoms: C_25  and  C_27
REMARK   12  A    between atoms: C_31  and  O_34
REMARK   13  A    between atoms: O_34  and  C_35
REMARK                            x       y       z     vdW  Elec       q    Type
REMARK                         _______ _______ _______ _____ _____    ______ ____
ROOT
ATOM      1  N   UNL     1      -6.048   5.597   0.681  0.00  0.00    -0.194 N 
ENDROOT
BRANCH   1   2
ATOM      2  C   UNL     1      -6.883   5.773  -0.428  0.00  0.00    +0.052 A 
ATOM      3  C   UNL     1      -7.815   6.803  -0.439  0.00  0.00    +0.028 A 
ATOM      4  C   UNL     1      -8.635   6.980  -1.536  0.00  0.00    +0.047 A 
ATOM      5  C   UNL     1      -8.537   6.122  -2.621  0.00  0.00    +0.120 A 
ATOM      6  C   UNL     1      -7.610   5.090  -2.609  0.00  0.00    +0.047 A 
ATOM      7  C   UNL     1      -6.785   4.915  -1.515  0.00  0.00    +0.028 A 
BRANCH   5   8
ATOM      8  O   UNL     1      -9.349   6.293  -3.698  0.00  0.00    -0.495 OA
ATOM      9  C   UNL     1     -10.280   7.376  -3.643  0.00  0.00    +0.277 C 
ENDBRANCH   5   8
ENDBRANCH   1   2
BRANCH   1  10
ATOM     10  S   UNL     1      -6.534   6.118   2.176  0.00  0.00    +0.075 S 
ATOM     11  O   UNL     1      -7.953   6.187   2.139  0.00  0.00    -0.150 OA
ATOM     12  O   UNL     1      -5.835   5.329   3.128  0.00  0.00    -0.150 OA
BRANCH  10  17
ATOM     13  C   UNL     1      -4.545  11.777   2.829  0.00  0.00    +0.044 C 
ATOM     14  C   UNL     1      -5.042  10.363   2.666  0.00  0.00    -0.050 A 
ATOM     15  C   UNL     1      -6.339  10.130   2.247  0.00  0.00    +0.005 A 
ATOM     16  C   UNL     1      -6.795   8.834   2.098  0.00  0.00    +0.029 A 
ATOM     17  C   UNL     1      -5.953   7.770   2.366  0.00  0.00    +0.109 A 
ATOM     18  C   UNL     1      -4.658   8.003   2.790  0.00  0.00    +0.029 A 
ATOM     19  C   UNL     1      -4.201   9.300   2.935  0.00  0.00    +0.005 A 
ENDBRANCH  10  17
ENDBRANCH   1  10
BRANCH   1  20
ATOM     20  C   UNL     1      -4.742   4.951   0.519  0.00  0.00    +0.227 C 
BRANCH  20  21
ATOM     21  C   UNL     1      -4.910   3.455   0.589  0.00  0.00    +0.236 C 
ATOM     22  O   UNL     1      -6.011   2.975   0.757  0.00  0.00    -0.274 OA
ATOM     23  N   UNL     1      -3.836   2.651   0.464  0.00  0.00    -0.283 N 
ATOM     24  H   UNL     1      -2.948   3.034   0.393  0.00  0.00    +0.155 HD
BRANCH  23  25
ATOM     25  C   UNL     1      -4.001   1.268   0.438  0.00  0.00    +0.046 A 
ATOM     26  C   UNL     1      -5.001   0.670   1.193  0.00  0.00    +0.024 A 
ATOM     27  C   UNL     1      -5.163  -0.700   1.165  0.00  0.00    +0.002 A 
ATOM     28  C   UNL     1      -4.333  -1.489   0.385  0.00  0.00    +0.001 A 
ATOM     29  C   UNL     1      -3.338  -0.913  -0.375  0.00  0.00    +0.015 A 
ATOM     30  C   UNL     1      -3.158   0.472  -0.353  0.00  0.00    +0.058 A 
BRANCH  30  31
ATOM     31  C   UNL     1      -2.093   1.095  -1.160  0.00  0.00    +0.246 C 
ATOM     32  O   UNL     1      -2.002   2.307  -1.217  0.00  0.00    -0.270 OA
ATOM     33  N   UNL     1      -1.219   0.322  -1.836  0.00  0.00    -0.309 N 
ATOM     34  H   UNL     1      -1.292  -0.644  -1.790  0.00  0.00    +0.149 HD
BRANCH  33  35
ATOM     35  C   UNL     1      -0.165   0.941  -2.643  0.00  0.00    +0.067 C 
ATOM     36  C   UNL     1       1.039   1.258  -1.752  0.00  0.00    +0.027 C 
ATOM     37  C   UNL     1       0.261  -0.023  -3.752  0.00  0.00    +0.027 C 
ENDBRANCH  33  35
ENDBRANCH  30  31
ENDBRANCH  23  25
ENDBRANCH  20  21
ENDBRANCH   1  20
TORSDOF 9
