REMARK  Name = ZINC22487600
REMARK  4 active torsions:
REMARK  status: ('A' for Active; 'I' for Inactive)
REMARK    1  A    between atoms: C_4  and  N_28
REMARK    2  A    between atoms: C_5  and  N_7
REMARK    3  A    between atoms: C_8  and  C_10
REMARK    4  A    between atoms: C_20  and  C_23
REMARK                            x       y       z     vdW  Elec       q    Type
REMARK                         _______ _______ _______ _____ _____    ______ ____
ROOT
ATOM      1  C   UNL     1      -4.262   4.695  -1.227  0.00  0.00    +0.093 C 
ATOM      2  C   UNL     1      -5.178   4.356  -0.048  0.00  0.00    +0.016 C 
ATOM      3  C   UNL     1      -4.378   4.454   1.254  0.00  0.00    +0.020 C 
ATOM      4  C   UNL     1      -3.178   3.507   1.182  0.00  0.00    +0.106 C 
ATOM      5  N   UNL     1      -2.333   3.872   0.038  0.00  0.00    -0.313 N 
ATOM      6  C   UNL     1      -3.066   3.741  -1.227  0.00  0.00    +0.119 C 
ATOM      7  C   UNL     1      -1.166   3.116   0.019  0.00  0.00    +0.144 A 
ATOM      8  C   UNL     1      -1.237   1.722   0.004  0.00  0.00    +0.048 A 
ATOM      9  C   UNL     1      -0.052   1.011  -0.009  0.00  0.00    +0.037 A 
ATOM     10  C   UNL     1       1.148   1.735  -0.016  0.00  0.00    +0.128 A 
ATOM     11  N   UNL     1       1.117   3.063  -0.005  0.00  0.00    -0.144 NA
ATOM     12  N   UNL     1       0.014   3.719   0.012  0.00  0.00    -0.134 NA
ENDROOT
BRANCH  10  13
ATOM     13  C   UNL     1       2.443   1.024  -0.035  0.00  0.00    +0.155 A 
ATOM     14  C   UNL     1       3.672   1.605  -0.049  0.00  0.00    +0.051 A 
ATOM     15  C   UNL     1       4.616   0.559  -0.062  0.00  0.00    +0.042 A 
ATOM     16  C   UNL     1       3.923  -0.597  -0.064  0.00  0.00    +0.196 A 
ATOM     17  O   UNL     1       2.611  -0.312  -0.047  0.00  0.00    -0.461 OA
ENDBRANCH  10  13
BRANCH   1  19
ATOM     18  N   UNL     1      -4.418   4.793  -3.694  0.00  0.00    -0.283 N 
ATOM     19  C   UNL     1      -5.027   4.545  -2.517  0.00  0.00    +0.222 C 
ATOM     20  O   UNL     1      -6.189   4.201  -2.497  0.00  0.00    -0.275 OA
ATOM     21  H   UNL     1      -3.393   5.192  -3.710  0.00  0.00    +0.155 HD
BRANCH  18  26
ATOM     22  C   UNL     1      -6.771   3.357  -6.127  0.00  0.00    +0.002 A 
ATOM     23  C   UNL     1      -6.418   4.048  -7.272  0.00  0.00    +0.002 A 
ATOM     24  C   UNL     1      -5.403   4.986  -7.231  0.00  0.00    +0.034 A 
ATOM     25  C   UNL     1      -4.738   5.235  -6.046  0.00  0.00    +0.147 A 
ATOM     26  C   UNL     1      -5.090   4.543  -4.896  0.00  0.00    +0.064 A 
ATOM     27  C   UNL     1      -6.106   3.597  -4.941  0.00  0.00    +0.025 A 
BRANCH  25  28
ATOM     28  N   UNL     1      -3.651   6.239  -6.004  0.00  0.00    +0.058 N 
ATOM     29  O   UNL     1      -3.403   6.910  -6.990  0.00  0.00    -0.126 OA
ATOM     30  O   UNL     1      -3.004   6.394  -4.984  0.00  0.00    -0.126 OA
ENDBRANCH  25  28
ENDBRANCH  18  26
ENDBRANCH   1  19
TORSDOF 4
