REMARK  Name = ZINC23523616
REMARK  10 active torsions:
REMARK  status: ('A' for Active; 'I' for Inactive)
REMARK    1  A    between atoms: C_1  and  C_2
REMARK    2  A    between atoms: C_5  and  N_25
REMARK    3  A    between atoms: C_6  and  N_9
REMARK    4  A    between atoms: C_7  and  C_8
REMARK    5  A    between atoms: C_10  and  C_12
REMARK    6  A    between atoms: C_12  and  C_14
REMARK    7  A    between atoms: C_12  and  S_15
REMARK    8  A    between atoms: S_15  and  C_16
REMARK    9  A    between atoms: C_19  and  C_22
REMARK   10  A    between atoms: N_20  and  C_21
REMARK                            x       y       z     vdW  Elec       q    Type
REMARK                         _______ _______ _______ _____ _____    ______ ____
ROOT
ATOM      1  N   UNL     1       2.401   0.833   0.537  0.00  0.00    -0.283 N 
ATOM      2  C   UNL     1       1.374   1.694   0.680  0.00  0.00    +0.230 C 
ATOM      3  O   UNL     1       1.593   2.873   0.863  0.00  0.00    -0.274 OA
ATOM      4  H   UNL     1       2.206  -0.246   0.449  0.00  0.00    +0.155 HD
ENDROOT
BRANCH   1  10
ATOM      5  C   UNL     1       5.737   3.898  -1.373  0.00  0.00    +0.044 C 
ATOM      6  C   UNL     1       5.360   2.797  -0.416  0.00  0.00    -0.046 A 
ATOM      7  C   UNL     1       6.314   2.259   0.428  0.00  0.00    +0.006 A 
ATOM      8  C   UNL     1       5.973   1.248   1.308  0.00  0.00    +0.035 A 
ATOM      9  C   UNL     1       4.675   0.777   1.350  0.00  0.00    +0.148 A 
ATOM     10  C   UNL     1       3.716   1.312   0.500  0.00  0.00    +0.067 A 
ATOM     11  C   UNL     1       4.062   2.327  -0.382  0.00  0.00    -0.024 A 
ATOM     12  C   UNL     1       3.023   2.914  -1.302  0.00  0.00    +0.046 C 
BRANCH   9  13
ATOM     13  N   UNL     1       4.308  -0.301   2.296  0.00  0.00    +0.058 N 
ATOM     14  O   UNL     1       5.170  -0.844   2.964  0.00  0.00    -0.126 OA
ATOM     15  O   UNL     1       3.145  -0.644   2.407  0.00  0.00    -0.126 OA
ENDBRANCH   9  13
ENDBRANCH   1  10
BRANCH   2  16
ATOM     16  C   UNL     1      -0.045   1.192   0.612  0.00  0.00    +0.137 C 
ATOM     17  C   UNL     1      -0.472   0.683   1.990  0.00  0.00    +0.029 C 
BRANCH  16  18
ATOM     18  S   UNL     1      -1.139   2.541   0.102  0.00  0.00    -0.074 S 
BRANCH  18  19
ATOM     19  C   UNL     1      -2.660   1.665  -0.039  0.00  0.00    +0.192 A 
ATOM     20  N   UNL     1      -2.847   0.384   0.180  0.00  0.00    -0.122 NA
ATOM     21  N   UNL     1      -4.081   0.083  -0.014  0.00  0.00    -0.133 NA
ATOM     22  C   UNL     1      -4.749   1.142  -0.373  0.00  0.00    +0.137 A 
ATOM     23  N   UNL     1      -3.868   2.188  -0.402  0.00  0.00    -0.309 N 
ATOM     24  C   UNL     1      -4.160   3.581  -0.751  0.00  0.00    +0.152 C 
BRANCH  22  25
ATOM     25  C   UNL     1      -6.219   1.204  -0.698  0.00  0.00    +0.057 C 
ATOM     26  C   UNL     1      -7.060  -0.040  -0.405  0.00  0.00    +0.012 C 
ATOM     27  C   UNL     1      -6.726   0.334  -1.850  0.00  0.00    +0.012 C 
ENDBRANCH  22  25
ENDBRANCH  18  19
ENDBRANCH  16  18
ENDBRANCH   2  16
TORSDOF 6
