REMARK  Name = ZINC16010201
REMARK  5 active torsions:
REMARK  status: ('A' for Active; 'I' for Inactive)
REMARK    1  A    between atoms: C_1  and  C_2
REMARK    2  A    between atoms: C_16  and  C_19
REMARK    3  A    between atoms: C_19  and  C_20
REMARK    4  A    between atoms: N_25  and  C_28
REMARK    5  A    between atoms: C_28  and  C_29
REMARK                            x       y       z     vdW  Elec       q    Type
REMARK                         _______ _______ _______ _____ _____    ______ ____
ROOT
ATOM      1  C   UNL     1      -0.018   1.503   0.010  0.00  0.00    +0.047 C 
ATOM      2  C   UNL     1       0.002  -0.004   0.002  0.00  0.00    -0.011 A 
ATOM      3  C   UNL     1       0.006  -0.686  -1.199  0.00  0.00    +0.046 A 
ATOM      4  C   UNL     1       0.024  -2.070  -1.215  0.00  0.00    +0.021 A 
ATOM      5  C   UNL     1       0.038  -2.773  -0.024  0.00  0.00    +0.009 A 
ATOM      6  C   UNL     1       0.034  -2.097   1.175  0.00  0.00    +0.004 A 
ATOM      7  C   UNL     1       0.023  -0.705   1.205  0.00  0.00    +0.043 A 
ATOM      8  N   UNL     1       0.030  -0.250   2.525  0.00  0.00    -0.283 N 
ATOM      9  C   UNL     1       0.051  -1.264   3.411  0.00  0.00    +0.243 C 
ATOM     10  O   UNL     1       0.062  -1.169   4.620  0.00  0.00    -0.273 OA
ATOM     11  C   UNL     1       0.045  -2.538   2.611  0.00  0.00    +0.136 C 
ATOM     12  C   UNL     1       1.279  -3.391   2.932  0.00  0.00    +0.122 C 
ATOM     13  C   UNL     1       0.772  -4.439   3.961  0.00  0.00    +0.107 C 
ATOM     14  C   UNL     1      -0.718  -4.097   4.175  0.00  0.00    +0.076 C 
ATOM     15  N   UNL     1      -1.122  -3.382   2.927  0.00  0.00    -0.295 NA
ATOM     16  C   UNL     1       0.896  -5.749   3.216  0.00  0.00    +0.227 C 
ATOM     17  O   UNL     1       0.596  -6.837   3.658  0.00  0.00    -0.275 OA
ATOM     18  N   UNL     1       1.388  -5.520   1.993  0.00  0.00    -0.237 N 
ATOM     19  C   UNL     1       1.651  -4.220   1.723  0.00  0.00    +0.229 C 
ATOM     20  O   UNL     1       2.106  -3.784   0.688  0.00  0.00    -0.275 OA
ATOM     21 CL   UNL     1      -0.014   0.196  -2.694  0.00  0.00    -0.083 Cl
ATOM     22  H   UNL     1       0.021   0.688   2.775  0.00  0.00    +0.155 HD
ATOM     23  H   UNL     1      -1.943  -2.818   3.089  0.00  0.00    +0.124 HD
ENDROOT
BRANCH  14  24
ATOM     24  C   UNL     1      -1.541  -5.378   4.329  0.00  0.00    +0.115 C 
BRANCH  24  25
ATOM     25  C   UNL     1      -2.967  -5.021   4.658  0.00  0.00    +0.212 C 
ATOM     26  O   UNL     1      -3.294  -3.857   4.759  0.00  0.00    -0.276 OA
ATOM     27  N   UNL     1      -3.881  -5.995   4.840  0.00  0.00    -0.329 N 
ATOM     28  H   UNL     1      -3.620  -6.926   4.760  0.00  0.00    +0.145 HD
ATOM     29  H   UNL     1      -4.799  -5.765   5.052  0.00  0.00    +0.145 HD
ENDBRANCH  24  25
ENDBRANCH  14  24
BRANCH  18  30
ATOM     30  C   UNL     1       1.631  -6.590   1.023  0.00  0.00    +0.151 C 
BRANCH  30  31
ATOM     31  C   UNL     1       0.394  -6.801   0.188  0.00  0.00    -0.029 A 
ATOM     32  C   UNL     1      -0.572  -7.700   0.599  0.00  0.00    +0.008 A 
ATOM     33  C   UNL     1      -1.706  -7.894  -0.166  0.00  0.00    +0.038 A 
ATOM     34  C   UNL     1      -1.875  -7.187  -1.344  0.00  0.00    +0.123 A 
ATOM     35  C   UNL     1      -0.907  -6.287  -1.755  0.00  0.00    +0.038 A 
ATOM     36  C   UNL     1       0.225  -6.091  -0.986  0.00  0.00    +0.008 A 
ATOM     37  F   UNL     1      -2.984  -7.376  -2.093  0.00  0.00    -0.205 F 
ENDBRANCH  30  31
ENDBRANCH  18  30
TORSDOF 4
