REMARK  Name = ZINC14468028
REMARK  5 active torsions:
REMARK  status: ('A' for Active; 'I' for Inactive)
REMARK    1  A    between atoms: C_6  and  C_7
REMARK    2  A    between atoms: N_9  and  C_10
REMARK    3  A    between atoms: C_10  and  C_11
REMARK    4  A    between atoms: C_24  and  C_27
REMARK    5  A    between atoms: C_32  and  O_33
REMARK                            x       y       z     vdW  Elec       q    Type
REMARK                         _______ _______ _______ _____ _____    ______ ____
ROOT
ATOM      1  C   UNL     1      -4.907   0.827  -0.983  0.00  0.00    +0.015 A 
ATOM      2  C   UNL     1      -6.234   0.473  -0.921  0.00  0.00    +0.024 A 
ATOM      3  C   UNL     1      -7.111   0.832  -1.942  0.00  0.00    +0.031 A 
ATOM      4  C   UNL     1      -6.628   1.563  -3.039  0.00  0.00    -0.019 A 
ATOM      5  C   UNL     1      -5.303   1.914  -3.105  0.00  0.00    +0.019 A 
ATOM      6  C   UNL     1      -4.426   1.547  -2.080  0.00  0.00    +0.037 A 
ATOM      7  C   UNL     1      -7.601   1.942  -4.087  0.00  0.00    +0.049 C 
ATOM      8  C   UNL     1      -7.188   2.183  -5.493  0.00  0.00    -0.023 C 
ATOM      9  C   UNL     1      -8.189   1.840  -6.294  0.00  0.00    -0.030 C 
ATOM     10  C   UNL     1      -9.367   1.275  -5.473  0.00  0.00    +0.033 C 
ATOM     11  C   UNL     1      -8.639   0.787  -4.214  0.00  0.00    +0.029 C 
ATOM     12  C   UNL     1      -9.420   0.801  -2.912  0.00  0.00    +0.109 C 
ATOM     13  N   UNL     1      -8.447   0.441  -1.859  0.00  0.00    -0.336 N 
ATOM     14  H   UNL     1      -8.743  -0.077  -1.094  0.00  0.00    +0.147 HD
ENDROOT
BRANCH  12  15
ATOM     15  C   UNL     1      -9.982   2.175  -2.654  0.00  0.00    +0.017 A 
ATOM     16  C   UNL     1      -9.256   3.092  -1.918  0.00  0.00    +0.029 A 
ATOM     17  C   UNL     1      -9.771   4.354  -1.681  0.00  0.00    +0.043 A 
ATOM     18  C   UNL     1     -11.014   4.701  -2.179  0.00  0.00    +0.043 A 
ATOM     19  C   UNL     1     -11.745   3.786  -2.915  0.00  0.00    +0.084 A 
ATOM     20  C   UNL     1     -11.226   2.522  -3.159  0.00  0.00    +0.140 A 
ATOM     21 CL   UNL     1     -13.304   4.222  -3.541  0.00  0.00    -0.080 Cl
ATOM     22 CL   UNL     1      -8.856   5.504  -0.758  0.00  0.00    -0.083 Cl
BRANCH  20  23
ATOM     23  O   UNL     1     -11.940   1.622  -3.887  0.00  0.00    -0.505 OA
ATOM     24  H   UNL     1     -12.529   1.067  -3.358  0.00  0.00    +0.292 HD
ENDBRANCH  20  23
ENDBRANCH  12  15
BRANCH   6  25
ATOM     25  C   UNL     1      -3.001   1.922  -2.153  0.00  0.00    +0.244 C 
ATOM     26  O   UNL     1      -2.586   2.549  -3.109  0.00  0.00    -0.270 OA
ATOM     27  N   UNL     1      -2.160   1.571  -1.160  0.00  0.00    -0.309 N 
ATOM     28  H   UNL     1      -2.491   1.071  -0.398  0.00  0.00    +0.149 HD
BRANCH  27  29
ATOM     29  C   UNL     1      -0.745   1.944  -1.233  0.00  0.00    +0.136 C 
BRANCH  29  30
ATOM     30  C   UNL     1      -0.017   1.428   0.010  0.00  0.00    +0.135 C 
ATOM     31  C   UNL     1       1.448   1.915  -0.002  0.00  0.00    +0.035 C 
ATOM     32  C   UNL     1       2.211   0.674   0.537  0.00  0.00    +0.031 C 
ATOM     33  C   UNL     1       1.358  -0.476  -0.054  0.00  0.00    +0.160 C 
ATOM     34  O   UNL     1       0.002  -0.004   0.002  0.00  0.00    -0.375 OA
ENDBRANCH  29  30
ENDBRANCH  27  29
ENDBRANCH   6  25
TORSDOF 5
