REMARK  Name = ZINC20574651
REMARK  10 active torsions:
REMARK  status: ('A' for Active; 'I' for Inactive)
REMARK    1  A    between atoms: C_1  and  C_2
REMARK    2  A    between atoms: C_5  and  C_35
REMARK    3  A    between atoms: N_8  and  C_10
REMARK    4  A    between atoms: C_10  and  C_11
REMARK    5  A    between atoms: C_11  and  C_12
REMARK    6  A    between atoms: C_12  and  N_13
REMARK    7  A    between atoms: C_14  and  C_16
REMARK    8  A    between atoms: C_16  and  C_17
REMARK    9  A    between atoms: C_17  and  N_18
REMARK   10  A    between atoms: C_25  and  C_28
REMARK                            x       y       z     vdW  Elec       q    Type
REMARK                         _______ _______ _______ _____ _____    ______ ____
ROOT
ATOM      1  C   UNL     1       5.945   3.610  -2.769  0.00  0.00    +0.135 C 
ENDROOT
BRANCH   1   2
ATOM      2  N   UNL     1       5.439   2.520  -1.930  0.00  0.00    -0.298 N 
ATOM      3  C   UNL     1       6.255   1.492  -1.592  0.00  0.00    +0.206 A 
ATOM      4  N   UNL     1       5.859   0.495  -0.849  0.00  0.00    -0.200 NA
ATOM      5  C   UNL     1       4.609   0.436  -0.377  0.00  0.00    +0.265 A 
ATOM      6  C   UNL     1       3.716   1.472  -0.693  0.00  0.00    +0.133 A 
ATOM      7  C   UNL     1       4.156   2.541  -1.495  0.00  0.00    +0.267 A 
ATOM      8  O   UNL     1       3.408   3.457  -1.789  0.00  0.00    -0.267 OA
ATOM      9  C   UNL     1       2.480   1.070  -0.016  0.00  0.00    +0.128 A 
ATOM     10  N   UNL     1       2.772  -0.064   0.576  0.00  0.00    -0.075 NA
ATOM     11  O   UNL     1       3.913  -0.417   0.385  0.00  0.00    -0.334 OA
BRANCH   9  12
ATOM     12  C   UNL     1       1.184   1.790   0.000  0.00  0.00    +0.005 A 
ATOM     13  C   UNL     1      -0.013   1.076   0.008  0.00  0.00    +0.013 A 
ATOM     14  C   UNL     1      -1.216   1.750   0.017  0.00  0.00    +0.039 A 
ATOM     15  C   UNL     1      -1.236   3.136   0.031  0.00  0.00    +0.123 A 
ATOM     16  C   UNL     1      -0.048   3.850   0.023  0.00  0.00    +0.039 A 
ATOM     17  C   UNL     1       1.160   3.184   0.008  0.00  0.00    +0.013 A 
ATOM     18  F   UNL     1      -2.417   3.792   0.046  0.00  0.00    -0.205 F 
ENDBRANCH   9  12
ENDBRANCH   1   2
BRANCH   1  19
ATOM     19  C   UNL     1       6.534   4.706  -1.879  0.00  0.00    +0.117 C 
BRANCH  19  21
ATOM     20  N   UNL     1       7.621   6.909  -2.171  0.00  0.00    -0.315 N 
ATOM     21  C   UNL     1       7.054   5.827  -2.742  0.00  0.00    +0.215 C 
ATOM     22  O   UNL     1       6.963   5.756  -3.949  0.00  0.00    -0.276 OA
ATOM     23  H   UNL     1       7.703   6.974  -1.076  0.00  0.00    +0.149 HD
BRANCH  20  24
ATOM     24  C   UNL     1       8.127   7.999  -3.010  0.00  0.00    +0.102 C 
BRANCH  24  25
ATOM     25  C   UNL     1       8.715   9.095  -2.120  0.00  0.00    +0.000 C 
BRANCH  25  26
ATOM     26  C   UNL     1       9.244  10.233  -2.996  0.00  0.00    -0.077 C 
BRANCH  26  32
ATOM     27  C   UNL     1       8.317  13.584   0.484  0.00  0.00    +0.005 C 
ATOM     28  C   UNL     1       9.407  12.907  -0.349  0.00  0.00    -0.031 C 
ATOM     29  C   UNL     1      10.182  13.968  -1.137  0.00  0.00    +0.003 C 
ATOM     30  C   UNL     1      11.231  13.277  -2.013  0.00  0.00    -0.031 C 
ATOM     31  C   UNL     1      10.535  12.280  -2.943  0.00  0.00    -0.076 C 
ATOM     32  N   UNL     1       9.809  11.287  -2.142  0.00  0.00    +0.380 N 
ATOM     33  C   UNL     1       8.765  11.921  -1.327  0.00  0.00    -0.076 C 
ATOM     34  C   UNL     1      11.970  14.325  -2.848  0.00  0.00    +0.005 C 
ATOM     35  H   UNL     1      10.530  10.817  -1.456  0.00  0.00    -0.082 HD
ENDBRANCH  26  32
ENDBRANCH  25  26
ENDBRANCH  24  25
ENDBRANCH  20  24
ENDBRANCH  19  21
ENDBRANCH   1  19
TORSDOF 8
