REMARK  Name = ZINC36013865
REMARK  10 active torsions:
REMARK  status: ('A' for Active; 'I' for Inactive)
REMARK    1  A    between atoms: C_1  and  C_2
REMARK    2  A    between atoms: C_2  and  N_3
REMARK    3  A    between atoms: C_4  and  C_23
REMARK    4  A    between atoms: C_5  and  C_18
REMARK    5  A    between atoms: C_6  and  C_11
REMARK    6  A    between atoms: C_18  and  O_20
REMARK    7  A    between atoms: O_20  and  C_21
REMARK    8  A    between atoms: C_21  and  C_22
REMARK    9  A    between atoms: C_23  and  N_24
REMARK   10  A    between atoms: C_31  and  C_33
REMARK                            x       y       z     vdW  Elec       q    Type
REMARK                         _______ _______ _______ _____ _____    ______ ____
ROOT
ATOM      1  N   UNL     1       0.917  -0.482   1.507  0.00  0.00    -0.261 N 
ATOM      2  C   UNL     1       2.200  -0.838   1.204  0.00  0.00    +0.010 C 
ATOM      3  C   UNL     1       2.950  -1.551   2.072  0.00  0.00    +0.076 C 
ATOM      4  C   UNL     1       2.318  -1.942   3.393  0.00  0.00    +0.143 C 
ATOM      5  N   UNL     1       0.930  -1.508   3.623  0.00  0.00    -0.288 N 
ATOM      6  C   UNL     1       0.312  -0.796   2.659  0.00  0.00    +0.307 C 
ATOM      7  O   UNL     1      -0.832  -0.430   2.841  0.00  0.00    -0.252 OA
ATOM      8  H   UNL     1       0.471  -1.728   4.449  0.00  0.00    +0.151 HD
ENDROOT
BRANCH   4   9
ATOM      9  C   UNL     1       2.359  -3.445   3.501  0.00  0.00    -0.022 A 
ATOM     10  C   UNL     1       1.419  -4.211   2.837  0.00  0.00    +0.007 A 
ATOM     11  C   UNL     1       1.456  -5.589   2.935  0.00  0.00    +0.020 A 
ATOM     12  C   UNL     1       2.433  -6.201   3.699  0.00  0.00    +0.041 A 
ATOM     13  C   UNL     1       3.373  -5.434   4.364  0.00  0.00    +0.020 A 
ATOM     14  C   UNL     1       3.339  -4.056   4.260  0.00  0.00    +0.007 A 
ATOM     15 CL   UNL     1       2.480  -7.932   3.824  0.00  0.00    -0.084 Cl
ENDBRANCH   4   9
BRANCH   1  17
ATOM     16  C   UNL     1       0.403   1.785   0.748  0.00  0.00    +0.025 C 
ATOM     17  C   UNL     1       0.163   0.292   0.518  0.00  0.00    +0.111 C 
ENDBRANCH   1  17
BRANCH   3  18
ATOM     18  C   UNL     1       4.278  -1.922   1.759  0.00  0.00    +0.339 C 
ATOM     19  O   UNL     1       4.766  -1.595   0.693  0.00  0.00    -0.245 OA
BRANCH  18  20
ATOM     20  O   UNL     1       5.005  -2.637   2.642  0.00  0.00    -0.462 OA
BRANCH  20  21
ATOM     21  C   UNL     1       6.340  -2.977   2.260  0.00  0.00    +0.229 C 
ATOM     22  C   UNL     1       7.002  -3.782   3.380  0.00  0.00    +0.048 C 
ENDBRANCH  20  21
ENDBRANCH  18  20
ENDBRANCH   3  18
BRANCH   2  23
ATOM     23  C   UNL     1       2.790  -0.429  -0.121  0.00  0.00    -0.026 C 
BRANCH  23  24
ATOM     24  N   UNL     1       2.735  -1.563  -1.053  0.00  0.00    +0.384 N 
ATOM     25  C   UNL     1       3.570  -1.250  -2.210  0.00  0.00    -0.077 C 
ATOM     26  C   UNL     1       4.120  -2.534  -2.791  0.00  0.00    +0.000 C 
ATOM     27  C   UNL     1       3.190  -3.029  -3.914  0.00  0.00    +0.106 C 
ATOM     28  N   UNL     1       1.772  -2.832  -3.554  0.00  0.00    -0.303 N 
ATOM     29  C   UNL     1       1.265  -3.101  -2.224  0.00  0.00    +0.089 C 
ATOM     30  C   UNL     1       1.380  -1.830  -1.351  0.00  0.00    -0.059 C 
ATOM     31  C   UNL     1       0.918  -2.385  -4.497  0.00  0.00    +0.219 C 
ATOM     32  O   UNL     1      -0.251  -2.216  -4.224  0.00  0.00    -0.275 OA
ATOM     33  H   UNL     1       3.124  -2.372  -0.592  0.00  0.00    -0.081 HD
BRANCH  31  34
ATOM     34  C   UNL     1       1.417  -2.096  -5.889  0.00  0.00    +0.075 C 
ATOM     35  C   UNL     1       2.068  -0.710  -6.035  0.00  0.00    +0.013 C 
ATOM     36  C   UNL     1       1.365  -0.610  -7.398  0.00  0.00    +0.001 C 
ATOM     37  C   UNL     1       0.322  -1.594  -6.844  0.00  0.00    +0.013 C 
ENDBRANCH  31  34
ENDBRANCH  23  24
ENDBRANCH   2  23
TORSDOF 8
