REMARK  Name = ZINC64600228
REMARK  8 active torsions:
REMARK  status: ('A' for Active; 'I' for Inactive)
REMARK    1  A    between atoms: C_1  and  C_2
REMARK    2  A    between atoms: C_7  and  O_32
REMARK    3  A    between atoms: C_13  and  C_15
REMARK    4  A    between atoms: C_15  and  C_16
REMARK    5  A    between atoms: N_18  and  C_19
REMARK    6  A    between atoms: C_19  and  C_21
REMARK    7  A    between atoms: C_19  and  C_22
REMARK    8  A    between atoms: C_22  and  C_23
REMARK                            x       y       z     vdW  Elec       q    Type
REMARK                         _______ _______ _______ _____ _____    ______ ____
ROOT
ATOM      1  C   UNL     1       1.951  -2.440   2.228  0.00  0.00    +0.214 C 
ATOM      2  O   UNL     1       2.227  -1.662   3.117  0.00  0.00    -0.276 OA
ATOM      3  N   UNL     1       2.393  -3.712   2.284  0.00  0.00    -0.312 N 
ATOM      4  H   UNL     1       2.173  -4.334   1.574  0.00  0.00    +0.149 HD
ENDROOT
BRANCH   3   5
ATOM      5  C   UNL     1       3.207  -4.155   3.419  0.00  0.00    +0.074 C 
ATOM      6  C   UNL     1       2.291  -4.577   4.570  0.00  0.00    +0.028 C 
BRANCH   5   7
ATOM      7  C   UNL     1       4.072  -5.343   2.993  0.00  0.00    +0.055 C 
BRANCH   7   8
ATOM      8  C   UNL     1       5.059  -4.896   1.946  0.00  0.00    -0.040 C 
ATOM      9  C   UNL     1       6.338  -4.506   2.147  0.00  0.00    -0.001 A 
ATOM     10  C   UNL     1       7.162  -4.386   3.356  0.00  0.00    +0.010 A 
ATOM     11  C   UNL     1       8.440  -3.958   3.239  0.00  0.00    +0.001 A 
ATOM     12  C   UNL     1       8.995  -3.626   1.995  0.00  0.00    +0.002 A 
ATOM     13  C   UNL     1       8.301  -3.711   0.840  0.00  0.00    +0.026 A 
ATOM     14  C   UNL     1       6.948  -4.151   0.846  0.00  0.00    +0.043 A 
ATOM     15  N   UNL     1       6.079  -4.314  -0.122  0.00  0.00    -0.380 N 
ATOM     16  C   UNL     1       4.821  -4.798   0.455  0.00  0.00    +0.144 C 
ATOM     17  H   UNL     1       6.243  -4.147  -1.064  0.00  0.00    +0.160 HD
ENDBRANCH   7   8
ENDBRANCH   5   7
ENDBRANCH   3   5
BRANCH   1  18
ATOM     18  C   UNL     1       1.114  -1.984   1.061  0.00  0.00    +0.111 C 
BRANCH  18  30
ATOM     19  C   UNL     1      -0.019   1.526   0.010  0.00  0.00    +0.013 C 
ATOM     20  C   UNL     1       0.002  -0.004   0.002  0.00  0.00    +0.034 C 
ATOM     21  C   UNL     1      -1.413  -0.524   0.009  0.00  0.00    +0.000 A 
ATOM     22  C   UNL     1      -2.113  -0.549  -1.188  0.00  0.00    +0.031 A 
ATOM     23  C   UNL     1      -3.413  -1.010  -1.230  0.00  0.00    +0.083 A 
ATOM     24  C   UNL     1      -4.029  -1.452  -0.066  0.00  0.00    +0.139 A 
ATOM     25  C   UNL     1      -3.333  -1.432   1.131  0.00  0.00    +0.093 A 
ATOM     26  C   UNL     1      -2.021  -0.971   1.169  0.00  0.00    +0.139 A 
ATOM     27  O   UNL     1      -1.367  -0.986   2.362  0.00  0.00    -0.425 OA
ATOM     28  C   UNL     1      -0.179  -0.353   2.429  0.00  0.00    +0.316 C 
ATOM     29  O   UNL     1       0.133   0.308   3.392  0.00  0.00    -0.250 OA
ATOM     30  C   UNL     1       0.747  -0.510   1.241  0.00  0.00    +0.114 C 
ATOM     31 CL   UNL     1      -4.279  -1.037  -2.734  0.00  0.00    -0.080 Cl
BRANCH  24  32
ATOM     32  O   UNL     1      -5.311  -1.903  -0.101  0.00  0.00    -0.505 OA
ATOM     33  H   UNL     1      -5.389  -2.853  -0.268  0.00  0.00    +0.292 HD
ENDBRANCH  24  32
ENDBRANCH  18  30
ENDBRANCH   1  18
TORSDOF 6
