REMARK  Name = ZINC39684566
REMARK  10 active torsions:
REMARK  status: ('A' for Active; 'I' for Inactive)
REMARK    1  A    between atoms: C_1  and  C_2
REMARK    2  A    between atoms: C_2  and  C_4
REMARK    3  A    between atoms: C_2  and  N_8
REMARK    4  A    between atoms: C_4  and  C_5
REMARK    5  A    between atoms: C_4  and  C_6
REMARK    6  A    between atoms: C_4  and  C_7
REMARK    7  A    between atoms: C_9  and  C_11
REMARK    8  A    between atoms: C_22  and  C_24
REMARK    9  A    between atoms: C_26  and  O_31
REMARK   10  A    between atoms: O_31  and  C_32
REMARK                            x       y       z     vdW  Elec       q    Type
REMARK                         _______ _______ _______ _____ _____    ______ ____
ROOT
ATOM      1  C   UNL     1       0.126  -1.010  -3.310  0.00  0.00    +0.100 C 
ATOM      2  C   UNL     1       0.967  -2.293  -3.126  0.00  0.00    +0.121 C 
ATOM      3  N   UNL     1       0.154  -3.367  -3.744  0.00  0.00    -0.296 N 
ATOM      4  C   UNL     1      -0.426  -2.738  -4.955  0.00  0.00    +0.115 C 
ATOM      5  C   UNL     1      -0.785  -1.305  -4.514  0.00  0.00    -0.004 C 
ATOM      6  C   UNL     1      -2.251  -1.234  -4.097  0.00  0.00    -0.010 C 
ATOM      7  C   UNL     1      -3.137  -1.474  -5.323  0.00  0.00    -0.082 C 
ATOM      8  N   UNL     1      -2.848  -0.460  -6.344  0.00  0.00    +0.379 N 
ATOM      9  C   UNL     1      -1.461  -0.596  -6.806  0.00  0.00    -0.082 C 
ATOM     10  C   UNL     1      -0.504  -0.319  -5.644  0.00  0.00    -0.010 C 
ATOM     11  C   UNL     1      -0.019  -4.629  -3.305  0.00  0.00    +0.248 C 
ATOM     12  O   UNL     1      -0.643  -5.426  -3.978  0.00  0.00    -0.270 OA
ATOM     13  H   UNL     1      -3.475  -0.584  -7.125  0.00  0.00    -0.086 HD
ATOM     14  H   UNL     1      -2.981   0.459  -5.951  0.00  0.00    -0.086 HD
ENDROOT
BRANCH  11  15
ATOM     15  C   UNL     1       0.549  -5.044  -2.005  0.00  0.00    +0.054 A 
ATOM     16  C   UNL     1       1.779  -4.536  -1.585  0.00  0.00    +0.059 A 
ATOM     17  C   UNL     1       2.305  -4.929  -0.366  0.00  0.00    +0.121 A 
ATOM     18  C   UNL     1       1.611  -5.825   0.435  0.00  0.00    +0.047 A 
ATOM     19  C   UNL     1       0.392  -6.329   0.021  0.00  0.00    +0.019 A 
ATOM     20  C   UNL     1      -0.145  -5.941  -1.191  0.00  0.00    +0.030 A 
ATOM     21 BR   UNL     1      -1.816  -6.628  -1.749  0.00  0.00    -0.050 Br
BRANCH  17  22
ATOM     22  O   UNL     1       3.504  -4.437   0.046  0.00  0.00    -0.495 OA
ATOM     23  C   UNL     1       3.987  -4.885   1.314  0.00  0.00    +0.277 C 
ENDBRANCH  17  22
ENDBRANCH  11  15
BRANCH   1  25
ATOM     24  N   UNL     1      -1.062   0.518  -1.770  0.00  0.00    -0.312 N 
ATOM     25  C   UNL     1      -0.701  -0.744  -2.079  0.00  0.00    +0.218 C 
ATOM     26  O   UNL     1      -1.043  -1.664  -1.367  0.00  0.00    -0.275 OA
ATOM     27  H   UNL     1      -0.789   1.254  -2.340  0.00  0.00    +0.149 HD
BRANCH  24  29
ATOM     28  C   UNL     1      -3.348   0.591  -0.904  0.00  0.00    +0.028 C 
ATOM     29  C   UNL     1      -1.866   0.777  -0.573  0.00  0.00    +0.075 C 
BRANCH  29  30
ATOM     30  C   UNL     1      -1.626   2.212  -0.098  0.00  0.00    -0.020 C 
ATOM     31  C   UNL     1      -2.466   2.482   1.152  0.00  0.00    +0.012 C 
ATOM     32  C   UNL     1      -0.144   2.398   0.233  0.00  0.00    +0.012 C 
ATOM     33  C   UNL     1      -2.028   3.189  -1.205  0.00  0.00    +0.012 C 
ENDBRANCH  29  30
ENDBRANCH  24  29
ENDBRANCH   1  25
TORSDOF 5
