REMARK  Name = ZINC63375679
REMARK  7 active torsions:
REMARK  status: ('A' for Active; 'I' for Inactive)
REMARK    1  A    between atoms: C_1  and  C_2
REMARK    2  A    between atoms: C_7  and  C_35
REMARK    3  A    between atoms: C_20  and  C_22
REMARK    4  A    between atoms: C_22  and  N_23
REMARK    5  A    between atoms: N_23  and  C_24
REMARK    6  A    between atoms: C_24  and  C_25
REMARK    7  A    between atoms: C_25  and  C_26
REMARK                            x       y       z     vdW  Elec       q    Type
REMARK                         _______ _______ _______ _____ _____    ______ ____
ROOT
ATOM      1  C   UNL     1      -0.076   1.527   0.150  0.00  0.00    +0.010 C 
ATOM      2  C   UNL     1      -0.054  -0.003   0.135  0.00  0.00    +0.021 C 
ATOM      3  C   UNL     1       0.492  -0.499  -1.209  0.00  0.00    +0.006 C 
ATOM      4  C   UNL     1       1.939  -0.042  -1.389  0.00  0.00    +0.001 C 
ATOM      5  C   UNL     1       2.824  -0.634  -0.288  0.00  0.00    +0.010 C 
ATOM      6  C   UNL     1       2.337  -0.121   1.067  0.00  0.00    +0.003 C 
ATOM      7  C   UNL     1       0.870  -0.519   1.245  0.00  0.00    +0.104 C 
ATOM      8  C   UNL     1       0.334  -0.715   2.647  0.00  0.00    +0.159 C 
ATOM      9  O   UNL     1       0.572  -1.819   1.756  0.00  0.00    -0.363 OA
ATOM     10  C   UNL     1       1.243  -0.691   3.872  0.00  0.00    +0.073 C 
ATOM     11  C   UNL     1       2.662  -0.202   3.529  0.00  0.00    +0.183 C 
ATOM     12  C   UNL     1       3.154  -0.707   2.211  0.00  0.00    +0.054 C 
ATOM     13  O   UNL     1       2.523   1.226   3.459  0.00  0.00    -0.461 OA
ATOM     14  C   UNL     1       1.694   1.614   4.451  0.00  0.00    +0.309 C 
ATOM     15  O   UNL     1       1.695   2.699   4.981  0.00  0.00    -0.251 OA
ATOM     16  C   UNL     1       0.751   0.457   4.798  0.00  0.00    +0.090 C 
ATOM     17  C   UNL     1       2.443   1.405   1.098  0.00  0.00    +0.014 C 
ENDROOT
BRANCH  16  18
ATOM     18  C   UNL     1       0.895   0.061   6.268  0.00  0.00    -0.067 C 
BRANCH  18  19
ATOM     19  N   UNL     1       0.315   1.110   7.117  0.00  0.00    +0.380 N 
ATOM     20  H   UNL     1       0.799   1.980   6.955  0.00  0.00    -0.086 HD
ATOM     21  H   UNL     1      -0.663   1.221   6.894  0.00  0.00    -0.086 HD
BRANCH  19  22
ATOM     22  C   UNL     1       0.453   0.729   8.530  0.00  0.00    -0.078 C 
BRANCH  22  23
ATOM     23  C   UNL     1      -0.151   1.821   9.414  0.00  0.00    +0.014 C 
BRANCH  23  24
ATOM     24  C   UNL     1      -0.009   1.431  10.863  0.00  0.00    -0.043 C 
ATOM     25  C   UNL     1       0.977   1.800  11.711  0.00  0.00    -0.001 A 
ATOM     26  C   UNL     1       2.167   2.643  11.546  0.00  0.00    +0.010 A 
ATOM     27  C   UNL     1       2.989   2.833  12.604  0.00  0.00    +0.001 A 
ATOM     28  C   UNL     1       2.732   2.246  13.851  0.00  0.00    +0.002 A 
ATOM     29  C   UNL     1       1.659   1.460  14.080  0.00  0.00    +0.026 A 
ATOM     30  C   UNL     1       0.729   1.192  13.038  0.00  0.00    +0.043 A 
ATOM     31  N   UNL     1      -0.368   0.475  13.011  0.00  0.00    -0.380 N 
ATOM     32  C   UNL     1      -0.944   0.552  11.663  0.00  0.00    +0.144 C 
ATOM     33  H   UNL     1      -0.740  -0.020  13.757  0.00  0.00    +0.160 HD
ENDBRANCH  23  24
ENDBRANCH  22  23
ENDBRANCH  19  22
ENDBRANCH  18  19
ENDBRANCH  16  18
TORSDOF 5
