REMARK  Name = ZINC39843414
REMARK  6 active torsions:
REMARK  status: ('A' for Active; 'I' for Inactive)
REMARK    1  A    between atoms: C_4  and  O_28
REMARK    2  A    between atoms: C_5  and  C_7
REMARK    3  A    between atoms: N_8  and  N_9
REMARK    4  A    between atoms: C_14  and  C_17
REMARK    5  A    between atoms: C_17  and  C_18
REMARK    6  A    between atoms: N_20  and  C_21
REMARK                            x       y       z     vdW  Elec       q    Type
REMARK                         _______ _______ _______ _____ _____    ______ ____
ROOT
ATOM      1  N   UNL     1       2.406  -4.090  -0.035  0.00  0.00    -0.127 NA
ATOM      2  C   UNL     1       3.561  -4.721  -0.055  0.00  0.00    +0.183 C 
ATOM      3  N   UNL     1       4.828  -4.177  -0.066  0.00  0.00    -0.263 N 
ATOM      4  C   UNL     1       5.920  -4.922  -0.087  0.00  0.00    +0.233 C 
ATOM      5  O   UNL     1       7.031  -4.436  -0.097  0.00  0.00    -0.274 OA
ATOM      6  C   UNL     1       5.696  -6.426  -0.098  0.00  0.00    +0.149 C 
ATOM      7  S   UNL     1       3.856  -6.483  -0.067  0.00  0.00    -0.075 S 
ATOM      8  H   UNL     1       4.922  -3.212  -0.059  0.00  0.00    +0.157 HD
ENDROOT
BRANCH   1  10
ATOM      9  C   UNL     1       1.229  -2.175  -0.010  0.00  0.00    +0.146 C 
ATOM     10  N   UNL     1       2.375  -2.801  -0.030  0.00  0.00    -0.155 NA
BRANCH   9  15
ATOM     11  C   UNL     1      -0.056   1.347   0.022  0.00  0.00    +0.001 A 
ATOM     12  C   UNL     1       1.127   2.068   0.007  0.00  0.00    +0.004 A 
ATOM     13  C   UNL     1       2.344   1.413  -0.013  0.00  0.00    +0.046 A 
ATOM     14  C   UNL     1       2.389   0.029  -0.019  0.00  0.00    +0.125 A 
ATOM     15  C   UNL     1       1.194  -0.705  -0.004  0.00  0.00    +0.036 A 
ATOM     16  C   UNL     1      -0.031  -0.031   0.017  0.00  0.00    +0.013 A 
BRANCH  14  17
ATOM     17  O   UNL     1       3.585  -0.614  -0.040  0.00  0.00    -0.506 OA
ATOM     18  H   UNL     1       3.945  -0.803   0.838  0.00  0.00    +0.292 HD
ENDBRANCH  14  17
ENDBRANCH   9  15
ENDBRANCH   1  10
BRANCH   6  19
ATOM     19  C   UNL     1       6.255  -7.061  -1.372  0.00  0.00    +0.120 C 
BRANCH  19  20
ATOM     20  C   UNL     1       6.123  -8.560  -1.286  0.00  0.00    +0.219 C 
ATOM     21  O   UNL     1       5.629  -9.069  -0.302  0.00  0.00    -0.275 OA
ATOM     22  N   UNL     1       6.552  -9.334  -2.302  0.00  0.00    -0.285 N 
ATOM     23  H   UNL     1       6.885  -8.924  -3.116  0.00  0.00    +0.155 HD
BRANCH  22  24
ATOM     24  C   UNL     1       6.519 -10.728  -2.183  0.00  0.00    +0.034 A 
ATOM     25  C   UNL     1       7.519 -11.500  -2.759  0.00  0.00    +0.026 A 
ATOM     26  C   UNL     1       7.484 -12.875  -2.640  0.00  0.00    +0.040 A 
ATOM     27  C   UNL     1       6.451 -13.485  -1.948  0.00  0.00    +0.124 A 
ATOM     28  C   UNL     1       5.453 -12.717  -1.372  0.00  0.00    +0.040 A 
ATOM     29  C   UNL     1       5.487 -11.341  -1.484  0.00  0.00    +0.026 A 
ATOM     30  F   UNL     1       6.418 -14.831  -1.833  0.00  0.00    -0.205 F 
ENDBRANCH  22  24
ENDBRANCH  19  20
ENDBRANCH   6  19
TORSDOF 6
