REMARK  Name = ZINC13460258
REMARK  7 active torsions:
REMARK  status: ('A' for Active; 'I' for Inactive)
REMARK    1  A    between atoms: C_1  and  C_2
REMARK    2  A    between atoms: C_3  and  C_28
REMARK    3  A    between atoms: C_4  and  C_20
REMARK    4  A    between atoms: N_9  and  C_10
REMARK    5  A    between atoms: C_23  and  C_26
REMARK    6  A    between atoms: C_28  and  O_30
REMARK    7  A    between atoms: O_30  and  C_31
REMARK                            x       y       z     vdW  Elec       q    Type
REMARK                         _______ _______ _______ _____ _____    ______ ____
ROOT
ATOM      1  C   UNL     1       2.273  -2.734   0.186  0.00  0.00    +0.062 C 
ATOM      2  C   UNL     1       3.596  -2.025   0.057  0.00  0.00    +0.027 C 
ATOM      3  C   UNL     1       4.742  -2.735   0.149  0.00  0.00    +0.078 C 
ATOM      4  C   UNL     1       6.051  -1.982   0.019  0.00  0.00    +0.141 C 
ATOM      5  N   UNL     1       5.965  -0.528  -0.203  0.00  0.00    -0.315 N 
ATOM      6  C   UNL     1       4.744   0.038  -0.277  0.00  0.00    +0.142 C 
ATOM      7  S   UNL     1       4.630   1.727  -0.536  0.00  0.00    -0.018 S 
ATOM      8  N   UNL     1       3.618  -0.676  -0.156  0.00  0.00    -0.255 N 
ATOM      9  H   UNL     1       6.768   0.008  -0.293  0.00  0.00    +0.149 HD
ENDROOT
BRANCH   8  10
ATOM     10  C   UNL     1       2.393  -0.001  -0.246  0.00  0.00    +0.044 A 
ATOM     11  C   UNL     1       1.768   0.142  -1.477  0.00  0.00    +0.027 A 
ATOM     12  C   UNL     1       0.561   0.808  -1.567  0.00  0.00    +0.051 A 
ATOM     13  C   UNL     1      -0.029   1.337  -0.429  0.00  0.00    +0.162 A 
ATOM     14  C   UNL     1       0.593   1.193   0.806  0.00  0.00    +0.164 A 
ATOM     15  C   UNL     1       1.804   0.525   0.895  0.00  0.00    +0.073 A 
ATOM     16  O   UNL     1       0.024   1.697   1.935  0.00  0.00    -0.485 OA
ATOM     17  C   UNL     1      -1.000   2.682   1.757  0.00  0.00    +0.270 C 
ATOM     18  C   UNL     1      -1.962   2.183   0.670  0.00  0.00    +0.270 C 
ATOM     19  O   UNL     1      -1.215   1.998  -0.538  0.00  0.00    -0.485 OA
ENDBRANCH   8  10
BRANCH   4  20
ATOM     20  C   UNL     1       6.821  -2.582  -1.128  0.00  0.00    -0.023 A 
ATOM     21  C   UNL     1       6.607  -2.124  -2.416  0.00  0.00    +0.006 A 
ATOM     22  C   UNL     1       7.313  -2.666  -3.470  0.00  0.00    +0.015 A 
ATOM     23  C   UNL     1       8.237  -3.686  -3.237  0.00  0.00    +0.063 A 
ATOM     24  C   UNL     1       8.444  -4.147  -1.935  0.00  0.00    +0.015 A 
ATOM     25  C   UNL     1       7.735  -3.593  -0.890  0.00  0.00    +0.006 A 
BRANCH  23  26
ATOM     26  C   UNL     1       8.992  -4.275  -4.362  0.00  0.00    +0.387 C 
ATOM     27  O   UNL     1       9.795  -5.163  -4.156  0.00  0.00    -0.241 OA
ATOM     28  O   UNL     1       8.790  -3.828  -5.616  0.00  0.00    -0.241 OA
ENDBRANCH  23  26
ENDBRANCH   4  20
BRANCH   3  29
ATOM     29  C   UNL     1       4.721  -4.133   0.364  0.00  0.00    +0.339 C 
ATOM     30  O   UNL     1       3.659  -4.717   0.465  0.00  0.00    -0.245 OA
BRANCH  29  31
ATOM     31  O   UNL     1       5.880  -4.818   0.458  0.00  0.00    -0.465 OA
ATOM     32  C   UNL     1       5.784  -6.227   0.675  0.00  0.00    +0.280 C 
ENDBRANCH  29  31
ENDBRANCH   3  29
TORSDOF 5
