REMARK  Name = ZINC13243842
REMARK  10 active torsions:
REMARK  status: ('A' for Active; 'I' for Inactive)
REMARK    1  A    between atoms: C_1  and  C_2
REMARK    2  A    between atoms: C_2  and  C_3
REMARK    3  A    between atoms: C_3  and  C_4
REMARK    4  A    between atoms: C_4  and  N_5
REMARK    5  A    between atoms: C_18  and  S_19
REMARK    6  A    between atoms: S_19  and  C_20
REMARK    7  A    between atoms: C_20  and  C_21
REMARK    8  A    between atoms: N_23  and  C_24
REMARK    9  A    between atoms: C_25  and  C_32
REMARK   10  A    between atoms: C_29  and  C_30
REMARK                            x       y       z     vdW  Elec       q    Type
REMARK                         _______ _______ _______ _____ _____    ______ ____
ROOT
ATOM      1  N   UNL     1       0.372  -1.668  -1.505  0.00  0.00    -0.277 N 
ATOM      2  C   UNL     1       1.206  -1.869  -2.546  0.00  0.00    +0.263 A 
ATOM      3  O   UNL     1       1.440  -2.995  -2.943  0.00  0.00    -0.267 OA
ATOM      4  C   UNL     1       1.831  -0.701  -3.192  0.00  0.00    +0.064 A 
ATOM      5  C   UNL     1       2.700  -0.850  -4.272  0.00  0.00    +0.015 A 
ATOM      6  C   UNL     1       3.265   0.267  -4.851  0.00  0.00    +0.001 A 
ATOM      7  C   UNL     1       2.972   1.532  -4.365  0.00  0.00    +0.002 A 
ATOM      8  C   UNL     1       2.113   1.692  -3.297  0.00  0.00    +0.027 A 
ATOM      9  C   UNL     1       1.536   0.580  -2.702  0.00  0.00    +0.064 A 
ATOM     10  N   UNL     1       0.665   0.715  -1.623  0.00  0.00    -0.256 N 
ATOM     11  C   UNL     1       0.100  -0.389  -1.044  0.00  0.00    +0.240 A 
ATOM     12  N   UNL     1      -0.669   0.023  -0.061  0.00  0.00    -0.109 NA
ATOM     13  N   UNL     1      -0.597   1.420  -0.007  0.00  0.00    -0.120 NA
ATOM     14  C   UNL     1       0.212   1.821  -0.957  0.00  0.00    +0.198 A 
ENDROOT
BRANCH   1  15
ATOM     15  C   UNL     1      -0.256  -2.819  -0.852  0.00  0.00    +0.128 C 
BRANCH  15  16
ATOM     16  C   UNL     1      -1.590  -3.128  -1.535  0.00  0.00    +0.021 C 
BRANCH  16  18
ATOM     17  C   UNL     1      -3.580  -4.639  -1.535  0.00  0.00    +0.004 C 
ATOM     18  C   UNL     1      -2.246  -4.330  -0.853  0.00  0.00    -0.002 C 
ENDBRANCH  16  18
ENDBRANCH  15  16
ENDBRANCH   1  15
BRANCH  14  19
ATOM     19  S   UNL     1       0.641   3.493  -1.315  0.00  0.00    -0.076 S 
BRANCH  19  20
ATOM     20  C   UNL     1      -0.283   4.455  -0.086  0.00  0.00    +0.173 C 
BRANCH  20  21
ATOM     21  C   UNL     1      -0.003   5.923  -0.283  0.00  0.00    +0.228 C 
ATOM     22  O   UNL     1       0.747   6.284  -1.165  0.00  0.00    -0.275 OA
ATOM     23  N   UNL     1      -0.585   6.834   0.521  0.00  0.00    -0.284 N 
ATOM     24  H   UNL     1      -1.226   6.550   1.192  0.00  0.00    +0.155 HD
BRANCH  23  25
ATOM     25  C   UNL     1      -0.266   8.183   0.390  0.00  0.00    +0.051 A 
ATOM     26  C   UNL     1       1.058   8.597   0.450  0.00  0.00    -0.028 A 
ATOM     27  C   UNL     1       1.373   9.934   0.315  0.00  0.00    +0.005 A 
ATOM     28  C   UNL     1       0.372  10.874   0.129  0.00  0.00    +0.001 A 
ATOM     29  C   UNL     1      -0.948  10.484   0.072  0.00  0.00    +0.017 A 
ATOM     30  C   UNL     1      -1.282   9.133   0.202  0.00  0.00    +0.085 A 
ATOM     31  C   UNL     1       2.154   7.583   0.658  0.00  0.00    +0.046 C 
BRANCH  30  32
ATOM     32  C   UNL     1      -2.692   8.708   0.141  0.00  0.00    +0.388 C 
ATOM     33  O   UNL     1      -2.986   7.548   0.351  0.00  0.00    -0.241 OA
ATOM     34  O   UNL     1      -3.654   9.607  -0.147  0.00  0.00    -0.241 OA
ENDBRANCH  30  32
ENDBRANCH  23  25
ENDBRANCH  20  21
ENDBRANCH  19  20
ENDBRANCH  14  19
TORSDOF 8
