REMARK  Name = ZINC59278202
REMARK  6 active torsions:
REMARK  status: ('A' for Active; 'I' for Inactive)
REMARK    1  A    between atoms: C_6  and  C_7
REMARK    2  A    between atoms: C_7  and  N_8
REMARK    3  A    between atoms: N_8  and  C_9
REMARK    4  A    between atoms: C_9  and  C_10
REMARK    5  A    between atoms: N_21  and  C_22
REMARK    6  A    between atoms: C_22  and  C_23
REMARK                            x       y       z     vdW  Elec       q    Type
REMARK                         _______ _______ _______ _____ _____    ______ ____
ROOT
ATOM      1  N   UNL     1      -1.726  -1.017  -1.368  0.00  0.00    -0.277 N 
ATOM      2  C   UNL     1      -2.522  -0.125  -1.991  0.00  0.00    +0.303 C 
ATOM      3  O   UNL     1      -2.881  -0.327  -3.135  0.00  0.00    -0.253 OA
ATOM      4  N   UNL     1      -2.919   0.989  -1.346  0.00  0.00    -0.295 N 
ATOM      5  H   UNL     1      -2.633   1.149  -0.433  0.00  0.00    +0.151 HD
ENDROOT
BRANCH   1   6
ATOM      6  C   UNL     1      -1.293  -0.775   0.010  0.00  0.00    +0.144 C 
BRANCH   6  12
ATOM      7  C   UNL     1      -0.017   1.378   0.010  0.00  0.00    +0.008 A 
ATOM      8  C   UNL     1       1.170   2.086   0.002  0.00  0.00    +0.038 A 
ATOM      9  C   UNL     1       2.379   1.410  -0.013  0.00  0.00    +0.123 A 
ATOM     10  C   UNL     1       2.396   0.026  -0.021  0.00  0.00    +0.038 A 
ATOM     11  C   UNL     1       1.208  -0.680  -0.013  0.00  0.00    +0.008 A 
ATOM     12  C   UNL     1       0.002  -0.004   0.002  0.00  0.00    -0.030 A 
ATOM     13  F   UNL     1       3.540   2.101  -0.021  0.00  0.00    -0.205 F 
ENDBRANCH   6  12
ENDBRANCH   1   6
BRANCH   1  14
ATOM     14  C   UNL     1      -1.294  -2.228  -2.070  0.00  0.00    +0.145 C 
BRANCH  14  15
ATOM     15  C   UNL     1      -2.292  -3.331  -1.829  0.00  0.00    -0.026 A 
ATOM     16  C   UNL     1      -2.139  -4.176  -0.745  0.00  0.00    +0.009 A 
ATOM     17  C   UNL     1      -3.053  -5.189  -0.520  0.00  0.00    +0.050 A 
ATOM     18  C   UNL     1      -4.124  -5.360  -1.381  0.00  0.00    +0.166 A 
ATOM     19  C   UNL     1      -4.278  -4.509  -2.474  0.00  0.00    +0.167 A 
ATOM     20  C   UNL     1      -3.362  -3.493  -2.689  0.00  0.00    +0.054 A 
ATOM     21  O   UNL     1      -5.397  -4.880  -3.161  0.00  0.00    -0.453 OA
ATOM     22  C   UNL     1      -5.698  -6.216  -2.715  0.00  0.00    +0.466 C 
ATOM     23  O   UNL     1      -5.147  -6.264  -1.385  0.00  0.00    -0.453 OA
ENDBRANCH  14  15
ENDBRANCH   1  14
BRANCH   4  24
ATOM     24  C   UNL     1      -3.784   1.958  -2.023  0.00  0.00    +0.141 C 
BRANCH  24  25
ATOM     25  C   UNL     1      -4.081   3.105  -1.091  0.00  0.00    -0.027 A 
ATOM     26  C   UNL     1      -5.180   3.047  -0.255  0.00  0.00    +0.009 A 
ATOM     27  C   UNL     1      -5.456   4.096   0.603  0.00  0.00    +0.050 A 
ATOM     28  C   UNL     1      -4.630   5.208   0.625  0.00  0.00    +0.166 A 
ATOM     29  C   UNL     1      -3.523   5.266  -0.217  0.00  0.00    +0.167 A 
ATOM     30  C   UNL     1      -3.250   4.209  -1.070  0.00  0.00    +0.054 A 
ATOM     31  O   UNL     1      -2.877   6.451  -0.008  0.00  0.00    -0.453 OA
ATOM     32  C   UNL     1      -3.827   7.291   0.673  0.00  0.00    +0.466 C 
ATOM     33  O   UNL     1      -4.679   6.356   1.362  0.00  0.00    -0.453 OA
ENDBRANCH  24  25
ENDBRANCH   4  24
TORSDOF 6
