REMARK  Name = ZINC13301442
REMARK  6 active torsions:
REMARK  status: ('A' for Active; 'I' for Inactive)
REMARK    1  A    between atoms: C_4  and  C_7
REMARK    2  A    between atoms: C_8  and  C_9
REMARK    3  A    between atoms: C_10  and  C_11
REMARK    4  A    between atoms: C_10  and  N_19
REMARK    5  A    between atoms: C_20  and  C_22
REMARK    6  A    between atoms: C_25  and  N_28
REMARK                            x       y       z     vdW  Elec       q    Type
REMARK                         _______ _______ _______ _____ _____    ______ ____
ROOT
ATOM      1  C   UNL     1       4.780  -2.577   0.022  0.00  0.00    +0.028 C 
ATOM      2  C   UNL     1       5.020  -3.913  -0.069  0.00  0.00    +0.096 C 
ENDROOT
BRANCH   2   3
ATOM      3  C   UNL     1       6.388  -4.399  -0.285  0.00  0.00    +0.261 C 
ATOM      4  O   UNL     1       7.076  -4.722   0.665  0.00  0.00    -0.269 OA
ATOM      5  N   UNL     1       6.881  -4.489  -1.536  0.00  0.00    -0.296 N 
ATOM      6  C   UNL     1       6.029  -4.205  -2.699  0.00  0.00    +0.108 C 
ATOM      7  C   UNL     1       6.719  -3.151  -3.571  0.00  0.00    +0.019 C 
ATOM      8  C   UNL     1       8.128  -3.632  -3.926  0.00  0.00    +0.003 C 
ATOM      9  C   UNL     1       8.946  -3.810  -2.645  0.00  0.00    +0.019 C 
ATOM     10  C   UNL     1       8.283  -4.866  -1.762  0.00  0.00    +0.108 C 
ENDBRANCH   2   3
BRANCH   2  11
ATOM     11  N   UNL     1       3.965  -4.822   0.044  0.00  0.00    -0.277 N 
ATOM     12  C   UNL     1       4.215  -6.146   0.059  0.00  0.00    +0.248 C 
ATOM     13  O   UNL     1       5.363  -6.548   0.073  0.00  0.00    -0.270 OA
ATOM     14  H   UNL     1       3.053  -4.500   0.111  0.00  0.00    +0.155 HD
BRANCH  12  15
ATOM     15  C   UNL     1       3.095  -7.110   0.058  0.00  0.00    +0.037 A 
ATOM     16  C   UNL     1       1.776  -6.652   0.036  0.00  0.00    +0.015 A 
ATOM     17  C   UNL     1       0.735  -7.557   0.035  0.00  0.00    +0.033 A 
ATOM     18  C   UNL     1       0.995  -8.915   0.056  0.00  0.00    +0.126 A 
ATOM     19  C   UNL     1       2.300  -9.376   0.078  0.00  0.00    +0.033 A 
ATOM     20  C   UNL     1       3.350  -8.482   0.073  0.00  0.00    +0.015 A 
BRANCH  18  21
ATOM     21  N   UNL     1      -0.127  -9.881   0.056  0.00  0.00    +0.056 N 
ATOM     22  O   UNL     1      -1.268  -9.481   0.037  0.00  0.00    -0.126 OA
ATOM     23  O   UNL     1       0.097 -11.069   0.074  0.00  0.00    -0.126 OA
ENDBRANCH  18  21
ENDBRANCH  12  15
ENDBRANCH   2  11
BRANCH   1  25
ATOM     24  C   UNL     1       3.215  -0.775   0.211  0.00  0.00    +0.008 C 
ATOM     25  C   UNL     1       3.454  -2.104   0.121  0.00  0.00    +0.003 C 
BRANCH  24  29
ATOM     26  C   UNL     1      -0.769   0.647   0.510  0.00  0.00    +0.000 A 
ATOM     27  C   UNL     1       0.284   1.545   0.505  0.00  0.00    +0.001 A 
ATOM     28  C   UNL     1       1.582   1.091   0.408  0.00  0.00    +0.008 A 
ATOM     29  C   UNL     1       1.833  -0.282   0.315  0.00  0.00    -0.025 A 
ATOM     30  C   UNL     1       0.763  -1.184   0.320  0.00  0.00    +0.008 A 
ATOM     31  C   UNL     1      -0.529  -0.713   0.417  0.00  0.00    +0.001 A 
ENDBRANCH  24  29
ENDBRANCH   1  25
TORSDOF 6
