REMARK  Name = ZINC08072788
REMARK  10 active torsions:
REMARK  status: ('A' for Active; 'I' for Inactive)
REMARK    1  A    between atoms: C_1  and  C_2
REMARK    2  A    between atoms: C_2  and  C_4
REMARK    3  A    between atoms: C_2  and  O_20
REMARK    4  A    between atoms: N_6  and  C_7
REMARK    5  A    between atoms: C_10  and  S_13
REMARK    6  A    between atoms: S_13  and  N_16
REMARK    7  A    between atoms: N_16  and  C_17
REMARK    8  A    between atoms: C_17  and  C_18
REMARK    9  A    between atoms: O_20  and  C_21
REMARK   10  A    between atoms: C_26  and  N_27
REMARK                            x       y       z     vdW  Elec       q    Type
REMARK                         _______ _______ _______ _____ _____    ______ ____
ROOT
ATOM      1  C   UNL     1      -2.983   4.324   5.315  0.00  0.00    +0.258 C 
ATOM      2  O   UNL     1      -2.313   5.165   4.754  0.00  0.00    -0.271 OA
ATOM      3  N   UNL     1      -3.276   3.167   4.689  0.00  0.00    -0.282 N 
ATOM      4  H   UNL     1      -3.871   2.526   5.107  0.00  0.00    +0.155 HD
ENDROOT
BRANCH   3   5
ATOM      5  C   UNL     1      -2.721   2.891   3.434  0.00  0.00    +0.034 A 
ATOM      6  C   UNL     1      -1.447   3.346   3.122  0.00  0.00    +0.025 A 
ATOM      7  C   UNL     1      -0.902   3.072   1.882  0.00  0.00    +0.030 A 
ATOM      8  C   UNL     1      -1.623   2.345   0.954  0.00  0.00    +0.105 A 
ATOM      9  C   UNL     1      -2.894   1.894   1.260  0.00  0.00    +0.030 A 
ATOM     10  C   UNL     1      -3.443   2.161   2.499  0.00  0.00    +0.025 A 
BRANCH   8  11
ATOM     11  S   UNL     1      -0.925   1.998  -0.626  0.00  0.00    +0.059 S 
ATOM     12  O   UNL     1       0.055   2.999  -0.866  0.00  0.00    -0.153 OA
ATOM     13  O   UNL     1      -2.014   1.770  -1.511  0.00  0.00    -0.153 OA
BRANCH  11  14
ATOM     14  N   UNL     1      -0.111   0.561  -0.497  0.00  0.00    -0.186 NA
ATOM     15  H   UNL     1       0.852   0.538  -0.604  0.00  0.00    +0.148 HD
BRANCH  14  16
ATOM     16  C   UNL     1      -0.848  -0.675  -0.222  0.00  0.00    +0.132 C 
BRANCH  16  17
ATOM     17  C   UNL     1       0.035  -1.861  -0.514  0.00  0.00    -0.018 C 
ATOM     18  C   UNL     1       0.244  -2.765   0.411  0.00  0.00    +0.005 C 
ENDBRANCH  16  17
ENDBRANCH  14  16
ENDBRANCH  11  14
ENDBRANCH   8  11
ENDBRANCH   3   5
BRANCH   1  20
ATOM     19  C   UNL     1      -5.017   4.526   6.718  0.00  0.00    +0.062 C 
ATOM     20  C   UNL     1      -3.488   4.572   6.713  0.00  0.00    +0.256 C 
BRANCH  20  21
ATOM     21  O   UNL     1      -3.049   5.858   7.156  0.00  0.00    -0.478 OA
BRANCH  21  22
ATOM     22  C   UNL     1      -2.942   6.045   8.498  0.00  0.00    +0.152 A 
ATOM     23  C   UNL     1      -3.365   5.054   9.373  0.00  0.00    +0.048 A 
ATOM     24  C   UNL     1      -3.255   5.246  10.737  0.00  0.00    +0.004 A 
ATOM     25  C   UNL     1      -2.725   6.424  11.230  0.00  0.00    +0.002 A 
ATOM     26  C   UNL     1      -2.303   7.412  10.360  0.00  0.00    +0.036 A 
ATOM     27  C   UNL     1      -2.406   7.223   8.995  0.00  0.00    +0.168 A 
BRANCH  27  28
ATOM     28  N   UNL     1      -1.950   8.280   8.065  0.00  0.00    +0.060 N 
ATOM     29  O   UNL     1      -1.479   9.315   8.502  0.00  0.00    -0.126 OA
ATOM     30  O   UNL     1      -2.045   8.114   6.862  0.00  0.00    -0.126 OA
ENDBRANCH  27  28
ENDBRANCH  21  22
ENDBRANCH  20  21
ENDBRANCH   1  20
TORSDOF 9
