REMARK  Name = ZINC38729579
REMARK  9 active torsions:
REMARK  status: ('A' for Active; 'I' for Inactive)
REMARK    1  A    between atoms: C_4  and  C_7
REMARK    2  A    between atoms: C_7  and  C_38
REMARK    3  A    between atoms: C_13  and  C_15
REMARK    4  A    between atoms: C_21  and  C_23
REMARK    5  A    between atoms: N_25  and  C_26
REMARK    6  A    between atoms: C_26  and  C_27
REMARK    7  A    between atoms: C_27  and  C_28
REMARK    8  A    between atoms: C_31  and  S_34
REMARK    9  A    between atoms: S_34  and  N_37
REMARK                            x       y       z     vdW  Elec       q    Type
REMARK                         _______ _______ _______ _____ _____    ______ ____
ROOT
ATOM      1  C   UNL     1       5.820  -4.825   1.667  0.00  0.00    +0.091 C 
ATOM      2  C   UNL     1       4.299  -4.991   1.704  0.00  0.00    +0.040 C 
ATOM      3  C   UNL     1       3.791  -4.785   3.101  0.00  0.00    -0.030 C 
ATOM      4  C   UNL     1       4.537  -4.824   4.157  0.00  0.00    -0.030 C 
ATOM      5  C   UNL     1       6.017  -5.070   4.133  0.00  0.00    +0.040 C 
ATOM      6  C   UNL     1       6.433  -5.676   2.786  0.00  0.00    +0.091 C 
ENDROOT
BRANCH   1  13
ATOM      7  C   UNL     1       7.183  -1.147  -1.421  0.00  0.00    +0.085 C 
ATOM      8  C   UNL     1       6.581  -0.523  -0.160  0.00  0.00    +0.045 C 
ATOM      9  C   UNL     1       7.111  -1.262   1.073  0.00  0.00    +0.109 C 
ATOM     10  N   UNL     1       6.835  -2.697   0.919  0.00  0.00    -0.301 N 
ATOM     11  C   UNL     1       7.290  -3.377  -0.301  0.00  0.00    +0.109 C 
ATOM     12  C   UNL     1       6.759  -2.614  -1.519  0.00  0.00    +0.045 C 
ATOM     13  C   UNL     1       6.176  -3.376   1.879  0.00  0.00    +0.220 C 
ATOM     14  O   UNL     1       5.871  -2.822   2.913  0.00  0.00    -0.275 OA
BRANCH   7  18
ATOM     15  C   UNL     1       5.789   0.968  -4.862  0.00  0.00    +0.000 A 
ATOM     16  C   UNL     1       6.503   1.634  -3.883  0.00  0.00    +0.000 A 
ATOM     17  C   UNL     1       6.954   0.949  -2.770  0.00  0.00    +0.005 A 
ATOM     18  C   UNL     1       6.690  -0.401  -2.635  0.00  0.00    -0.027 A 
ATOM     19  C   UNL     1       5.975  -1.067  -3.612  0.00  0.00    +0.005 A 
ATOM     20  C   UNL     1       5.525  -0.383  -4.726  0.00  0.00    +0.000 A 
ENDBRANCH   7  18
BRANCH   7  21
ATOM     21  C   UNL     1       8.651  -1.064  -1.357  0.00  0.00    +0.074 C 
ATOM     22  N   UNL     1       9.784  -1.000  -1.307  0.00  0.00    -0.196 NA
ENDBRANCH   7  21
ENDBRANCH   1  13
BRANCH   6  23
ATOM     23  C   UNL     1       7.935  -5.671   2.662  0.00  0.00    +0.217 C 
ATOM     24  O   UNL     1       8.467  -5.049   1.767  0.00  0.00    -0.275 OA
ATOM     25  N   UNL     1       8.687  -6.358   3.545  0.00  0.00    -0.315 N 
ATOM     26  H   UNL     1       8.261  -6.855   4.260  0.00  0.00    +0.149 HD
BRANCH  25  27
ATOM     27  C   UNL     1      10.146  -6.353   3.424  0.00  0.00    +0.109 C 
BRANCH  27  28
ATOM     28  C   UNL     1      10.754  -7.203   4.542  0.00  0.00    +0.054 C 
BRANCH  28  29
ATOM     29  C   UNL     1      12.256  -7.198   4.417  0.00  0.00    -0.046 A 
ATOM     30  C   UNL     1      12.889  -8.158   3.651  0.00  0.00    +0.005 A 
ATOM     31  C   UNL     1      14.267  -8.153   3.536  0.00  0.00    +0.029 A 
ATOM     32  C   UNL     1      15.011  -7.188   4.188  0.00  0.00    +0.105 A 
ATOM     33  C   UNL     1      14.377  -6.227   4.954  0.00  0.00    +0.029 A 
ATOM     34  C   UNL     1      13.000  -6.229   5.064  0.00  0.00    +0.005 A 
BRANCH  32  35
ATOM     35  S   UNL     1      16.767  -7.183   4.043  0.00  0.00    +0.056 S 
ATOM     36  O   UNL     1      17.267  -6.506   5.189  0.00  0.00    -0.153 OA
ATOM     37  O   UNL     1      17.151  -8.511   3.715  0.00  0.00    -0.153 OA
BRANCH  35  38
ATOM     38  N   UNL     1      17.148  -6.242   2.735  0.00  0.00    -0.204 NA
ATOM     39  H   UNL     1      16.442  -5.822   2.218  0.00  0.00    +0.144 HD
ATOM     40  H   UNL     1      18.076  -6.112   2.485  0.00  0.00    +0.144 HD
ENDBRANCH  35  38
ENDBRANCH  32  35
ENDBRANCH  28  29
ENDBRANCH  27  28
ENDBRANCH  25  27
ENDBRANCH   6  23
TORSDOF 9
