REMARK  Name = ZINC04742751
REMARK  6 active torsions:
REMARK  status: ('A' for Active; 'I' for Inactive)
REMARK    1  A    between atoms: C_1  and  C_2
REMARK    2  A    between atoms: C_6  and  C_21
REMARK    3  A    between atoms: C_7  and  N_8
REMARK    4  A    between atoms: N_8  and  S_9
REMARK    5  A    between atoms: S_9  and  C_12
REMARK    6  A    between atoms: C_16  and  N_18
REMARK                            x       y       z     vdW  Elec       q    Type
REMARK                         _______ _______ _______ _____ _____    ______ ____
ROOT
ATOM      1  S   UNL     1      -0.489   4.985   0.177  0.00  0.00    +0.072 S 
ATOM      2  O   UNL     1      -1.779   5.420   0.585  0.00  0.00    -0.150 OA
ATOM      3  O   UNL     1       0.666   5.165   0.985  0.00  0.00    -0.150 OA
ENDROOT
BRANCH   1   4
ATOM      4  C   UNL     1      -0.617   3.257  -0.141  0.00  0.00    +0.111 A 
ATOM      5  C   UNL     1       0.522   2.474  -0.175  0.00  0.00    +0.029 A 
ATOM      6  C   UNL     1       0.422   1.118  -0.425  0.00  0.00    +0.004 A 
ATOM      7  C   UNL     1      -0.817   0.545  -0.641  0.00  0.00    +0.033 A 
ATOM      8  C   UNL     1      -1.956   1.329  -0.613  0.00  0.00    +0.128 A 
ATOM      9  C   UNL     1      -1.856   2.684  -0.358  0.00  0.00    +0.061 A 
BRANCH   8  10
ATOM     10  N   UNL     1      -3.282   0.716  -0.851  0.00  0.00    +0.056 N 
ATOM     11  O   UNL     1      -3.370  -0.479  -1.072  0.00  0.00    -0.126 OA
ATOM     12  O   UNL     1      -4.285   1.406  -0.826  0.00  0.00    -0.126 OA
ENDBRANCH   8  10
ENDBRANCH   1   4
BRANCH   1  13
ATOM     13  N   UNL     1      -0.175   5.727  -1.269  0.00  0.00    -0.216 N 
ATOM     14  H   UNL     1       0.676   6.170  -1.412  0.00  0.00    +0.174 HD
BRANCH  13  21
ATOM     15  C   UNL     1       0.215   3.963  -3.467  0.00  0.00    +0.046 C 
ATOM     16  C   UNL     1      -0.985   4.870  -3.375  0.00  0.00    -0.028 A 
ATOM     17  C   UNL     1      -1.939   4.857  -4.373  0.00  0.00    +0.005 A 
ATOM     18  C   UNL     1      -3.038   5.694  -4.293  0.00  0.00    +0.001 A 
ATOM     19  C   UNL     1      -3.188   6.541  -3.210  0.00  0.00    +0.005 A 
ATOM     20  C   UNL     1      -2.240   6.555  -2.206  0.00  0.00    -0.028 A 
ATOM     21  C   UNL     1      -1.135   5.716  -2.283  0.00  0.00    +0.054 A 
ATOM     22  C   UNL     1      -2.405   7.478  -1.026  0.00  0.00    +0.046 C 
ENDBRANCH  13  21
ENDBRANCH   1  13
TORSDOF 4
