REMARK  Name = ZINC00124088
REMARK  2 active torsions:
REMARK  status: ('A' for Active; 'I' for Inactive)
REMARK    1  A    between atoms: C_15  and  C_17
REMARK    2  A    between atoms: C_20  and  N_23
REMARK                            x       y       z     vdW  Elec       q    Type
REMARK                         _______ _______ _______ _____ _____    ______ ____
ROOT
ATOM      1  C   UNL     1      -3.631   1.767   0.045  0.00  0.00    +0.001 A 
ATOM      2  C   UNL     1      -3.634   3.160   0.052  0.00  0.00    +0.001 A 
ATOM      3  C   UNL     1      -2.469   3.864   0.045  0.00  0.00    +0.010 A 
ATOM      4  C   UNL     1      -1.244   3.179   0.031  0.00  0.00    +0.004 A 
ATOM      5  C   UNL     1      -1.239   1.762   0.018  0.00  0.00    -0.016 A 
ATOM      6  C   UNL     1      -2.462   1.069   0.032  0.00  0.00    +0.008 A 
ATOM      7  C   UNL     1      -0.013   1.076   0.008  0.00  0.00    +0.009 A 
ATOM      8  C   UNL     1       1.157   1.773   0.001  0.00  0.00    +0.006 A 
ATOM      9  C   UNL     1       1.166   3.165   0.008  0.00  0.00    -0.018 A 
ATOM     10  C   UNL     1      -0.016   3.874   0.024  0.00  0.00    +0.045 A 
ATOM     11  N   UNL     1       0.001   5.268   0.032  0.00  0.00    -0.285 N 
ATOM     12  C   UNL     1       1.103   5.941  -0.349  0.00  0.00    +0.218 C 
ATOM     13  O   UNL     1       1.104   7.153  -0.329  0.00  0.00    -0.275 OA
ATOM     14  C   UNL     1       2.333   5.200  -0.800  0.00  0.00    +0.109 C 
ATOM     15  C   UNL     1       2.480   3.906   0.000  0.00  0.00    +0.059 C 
ATOM     16  H   UNL     1      -0.787   5.757   0.315  0.00  0.00    +0.155 HD
ENDROOT
BRANCH  15  17
ATOM     17  C   UNL     1       2.880   4.233   1.415  0.00  0.00    -0.039 A 
ATOM     18  C   UNL     1       2.062   5.024   2.200  0.00  0.00    +0.006 A 
ATOM     19  C   UNL     1       2.427   5.321   3.500  0.00  0.00    +0.033 A 
ATOM     20  C   UNL     1       3.615   4.835   4.012  0.00  0.00    +0.126 A 
ATOM     21  C   UNL     1       4.436   4.048   3.226  0.00  0.00    +0.033 A 
ATOM     22  C   UNL     1       4.069   3.748   1.927  0.00  0.00    +0.006 A 
BRANCH  20  23
ATOM     23  N   UNL     1       4.008   5.156   5.402  0.00  0.00    +0.056 N 
ATOM     24  O   UNL     1       5.055   4.727   5.854  0.00  0.00    -0.126 OA
ATOM     25  O   UNL     1       3.284   5.848   6.095  0.00  0.00    -0.126 OA
ENDBRANCH  20  23
ENDBRANCH  15  17
TORSDOF 2
