REMARK  Name = ZINC66248228
REMARK  6 active torsions:
REMARK  status: ('A' for Active; 'I' for Inactive)
REMARK    1  A    between atoms: C_1  and  C_2
REMARK    2  A    between atoms: C_5  and  N_23
REMARK    3  A    between atoms: C_7  and  S_8
REMARK    4  A    between atoms: S_8  and  N_11
REMARK    5  A    between atoms: N_11  and  C_12
REMARK    6  A    between atoms: N_16  and  C_17
REMARK                            x       y       z     vdW  Elec       q    Type
REMARK                         _______ _______ _______ _____ _____    ______ ____
ROOT
ATOM      1  S   UNL     1      -0.119   0.003   2.810  0.00  0.00    +0.074 S 
ATOM      2  O   UNL     1      -1.285   0.808   2.911  0.00  0.00    -0.150 OA
ATOM      3  O   UNL     1       0.143  -1.074   3.700  0.00  0.00    -0.150 OA
ENDROOT
BRANCH   1  10
ATOM      4  C   UNL     1       2.074  -1.770   1.714  0.00  0.00    +0.046 C 
ATOM      5  C   UNL     1       0.934  -1.476   0.772  0.00  0.00    -0.024 A 
ATOM      6  C   UNL     1       0.935  -2.013  -0.502  0.00  0.00    +0.007 A 
ATOM      7  C   UNL     1      -0.110  -1.744  -1.366  0.00  0.00    +0.033 A 
ATOM      8  C   UNL     1      -1.156  -0.938  -0.956  0.00  0.00    +0.128 A 
ATOM      9  C   UNL     1      -1.157  -0.403   0.318  0.00  0.00    +0.061 A 
ATOM     10  C   UNL     1      -0.114  -0.675   1.184  0.00  0.00    +0.114 A 
BRANCH   8  11
ATOM     11  N   UNL     1      -2.274  -0.649  -1.881  0.00  0.00    +0.056 N 
ATOM     12  O   UNL     1      -2.273  -1.118  -2.996  0.00  0.00    -0.126 OA
ATOM     13  O   UNL     1      -3.189   0.055  -1.523  0.00  0.00    -0.126 OA
ENDBRANCH   8  11
ENDBRANCH   1  10
BRANCH   1  14
ATOM     14  N   UNL     1       1.176   1.029   2.916  0.00  0.00    -0.200 N 
ATOM     15  H   UNL     1       1.908   0.827   3.520  0.00  0.00    +0.175 HD
BRANCH  14  16
ATOM     16  C   UNL     1       1.215   2.184   2.139  0.00  0.00    +0.136 A 
ATOM     17  C   UNL     1       0.307   2.546   1.191  0.00  0.00    +0.066 A 
ATOM     18  C   UNL     1       0.717   3.768   0.651  0.00  0.00    +0.136 A 
ATOM     19  N   UNL     1       1.825   4.130   1.246  0.00  0.00    -0.178 NA
ATOM     20  N   UNL     1       2.158   3.152   2.192  0.00  0.00    -0.246 N 
BRANCH  20  21
ATOM     21  C   UNL     1       3.324   3.172   3.079  0.00  0.00    +0.109 C 
ATOM     22  C   UNL     1       3.265   4.414   3.970  0.00  0.00    +0.027 C 
ATOM     23  C   UNL     1       4.483   4.435   4.897  0.00  0.00    +0.002 C 
ATOM     24  C   UNL     1       5.762   4.469   4.058  0.00  0.00    +0.000 C 
ATOM     25  C   UNL     1       5.820   3.227   3.167  0.00  0.00    +0.002 C 
ATOM     26  C   UNL     1       4.603   3.206   2.240  0.00  0.00    +0.027 C 
ENDBRANCH  20  21
ENDBRANCH  14  16
ENDBRANCH   1  14
TORSDOF 5
