REMARK  Name = ZINC13506850
REMARK  8 active torsions:
REMARK  status: ('A' for Active; 'I' for Inactive)
REMARK    1  A    between atoms: C_4  and  C_7
REMARK    2  A    between atoms: C_7  and  C_9
REMARK    3  A    between atoms: C_7  and  N_17
REMARK    4  A    between atoms: N_11  and  C_12
REMARK    5  A    between atoms: N_17  and  C_18
REMARK    6  A    between atoms: C_27  and  C_29
REMARK    7  A    between atoms: C_29  and  N_30
REMARK    8  A    between atoms: C_31  and  C_33
REMARK                            x       y       z     vdW  Elec       q    Type
REMARK                         _______ _______ _______ _____ _____    ______ ____
ROOT
ATOM      1  N   UNL     1      -2.444   1.033   0.583  0.00  0.00    -0.254 N 
ATOM      2  C   UNL     1      -2.554  -0.310   0.628  0.00  0.00    +0.238 C 
ATOM      3  O   UNL     1      -3.588  -0.845   0.287  0.00  0.00    -0.274 OA
ENDROOT
BRANCH   1   4
ATOM      4  C   UNL     1      -1.223   1.646   0.891  0.00  0.00    +0.041 A 
ATOM      5  C   UNL     1      -1.088   2.375   2.066  0.00  0.00    +0.027 A 
ATOM      6  C   UNL     1       0.114   2.984   2.369  0.00  0.00    +0.051 A 
ATOM      7  C   UNL     1       1.190   2.866   1.504  0.00  0.00    +0.166 A 
ATOM      8  C   UNL     1       1.060   2.133   0.327  0.00  0.00    +0.168 A 
ATOM      9  C   UNL     1      -0.146   1.522   0.025  0.00  0.00    +0.073 A 
ATOM     10  O   UNL     1       2.248   2.169  -0.344  0.00  0.00    -0.453 OA
ATOM     11  C   UNL     1       2.980   3.268   0.230  0.00  0.00    +0.466 C 
ATOM     12  O   UNL     1       2.461   3.363   1.569  0.00  0.00    -0.453 OA
ENDBRANCH   1   4
BRANCH   1  13
ATOM     13  C   UNL     1      -3.602   1.851   0.213  0.00  0.00    +0.197 C 
BRANCH  13  17
ATOM     14  C   UNL     1      -2.656   5.982   0.752  0.00  0.00    +0.000 A 
ATOM     15  C   UNL     1      -3.748   5.432   1.398  0.00  0.00    +0.000 A 
ATOM     16  C   UNL     1      -4.054   4.096   1.224  0.00  0.00    +0.006 A 
ATOM     17  C   UNL     1      -3.268   3.308   0.403  0.00  0.00    -0.018 A 
ATOM     18  C   UNL     1      -2.173   3.856  -0.238  0.00  0.00    +0.006 A 
ATOM     19  C   UNL     1      -1.870   5.194  -0.068  0.00  0.00    +0.000 A 
ENDBRANCH  13  17
BRANCH  13  20
ATOM     20  C   UNL     1      -3.953   1.600  -1.231  0.00  0.00    +0.239 C 
ATOM     21  O   UNL     1      -3.300   0.815  -1.886  0.00  0.00    -0.273 OA
ATOM     22  N   UNL     1      -4.991   2.248  -1.794  0.00  0.00    -0.311 N 
ATOM     23  H   UNL     1      -5.513   2.876  -1.270  0.00  0.00    +0.149 HD
BRANCH  22  24
ATOM     24  C   UNL     1      -5.332   2.004  -3.198  0.00  0.00    +0.073 C 
ATOM     25  C   UNL     1      -4.527   2.953  -4.110  0.00  0.00    +0.022 C 
ATOM     26  C   UNL     1      -5.517   3.321  -5.243  0.00  0.00    +0.002 C 
ATOM     27  C   UNL     1      -6.866   3.446  -4.492  0.00  0.00    +0.002 C 
ATOM     28  C   UNL     1      -6.819   2.317  -3.441  0.00  0.00    +0.022 C 
ENDBRANCH  22  24
ENDBRANCH  13  20
ENDBRANCH   1  13
BRANCH   2  29
ATOM     29  C   UNL     1      -1.393  -1.146   1.101  0.00  0.00    +0.201 C 
BRANCH  29  30
ATOM     30  N   UNL     1      -1.732  -2.566   0.977  0.00  0.00    -0.300 N 
ATOM     31  C   UNL     1      -0.838  -3.506   1.343  0.00  0.00    +0.280 C 
ATOM     32  O   UNL     1       0.249  -3.175   1.778  0.00  0.00    -0.267 OA
ATOM     33  H   UNL     1      -2.598  -2.830   0.630  0.00  0.00    +0.150 HD
BRANCH  31  34
ATOM     34  C   UNL     1      -1.176  -4.928   1.218  0.00  0.00    +0.189 A 
ATOM     35  C   UNL     1      -0.369  -5.977   1.552  0.00  0.00    +0.054 A 
ATOM     36  C   UNL     1      -1.091  -7.147   1.271  0.00  0.00    +0.042 A 
ATOM     37  C   UNL     1      -2.293  -6.766   0.785  0.00  0.00    +0.196 A 
ATOM     38  O   UNL     1      -2.342  -5.428   0.760  0.00  0.00    -0.458 OA
ENDBRANCH  31  34
ENDBRANCH  29  30
ENDBRANCH   2  29
TORSDOF 8
