REMARK  Name = ZINC08916028
REMARK  8 active torsions:
REMARK  status: ('A' for Active; 'I' for Inactive)
REMARK    1  A    between atoms: C_1  and  C_2
REMARK    2  A    between atoms: C_3  and  N_9
REMARK    3  A    between atoms: C_10  and  C_12
REMARK    4  A    between atoms: N_14  and  N_15
REMARK    5  A    between atoms: C_16  and  C_17
REMARK    6  A    between atoms: C_16  and  C_18
REMARK    7  A    between atoms: C_18  and  C_19
REMARK    8  A    between atoms: N_21  and  C_22
REMARK                            x       y       z     vdW  Elec       q    Type
REMARK                         _______ _______ _______ _____ _____    ______ ____
ROOT
ATOM      1  C   UNL     1      -0.022   5.630  -0.189  0.00  0.00    +0.318 C 
ATOM      2  O   UNL     1       1.026   6.244  -0.200  0.00  0.00    -0.263 OA
ATOM      3  N   UNL     1      -1.192   6.293  -0.271  0.00  0.00    -0.199 N 
ATOM      4  H   UNL     1      -2.029   5.802  -0.262  0.00  0.00    +0.178 HD
ENDROOT
BRANCH   1   6
ATOM      5  N   UNL     1       1.158   3.479  -0.002  0.00  0.00    -0.277 N 
ATOM      6  C   UNL     1      -0.013   4.142  -0.084  0.00  0.00    +0.305 C 
ATOM      7  O   UNL     1      -1.060   3.528  -0.073  0.00  0.00    -0.265 OA
ATOM      8  H   UNL     1       1.990   3.972   0.071  0.00  0.00    +0.155 HD
BRANCH   5  11
ATOM      9  C   UNL     1       3.359   2.143   1.210  0.00  0.00    +0.047 C 
ATOM     10  C   UNL     1       2.228   1.389   0.560  0.00  0.00    -0.011 A 
ATOM     11  C   UNL     1       1.173   2.082  -0.020  0.00  0.00    +0.038 A 
ATOM     12  C   UNL     1       0.132   1.383  -0.619  0.00  0.00    +0.023 A 
ATOM     13  C   UNL     1       0.149   0.002  -0.635  0.00  0.00    +0.003 A 
ATOM     14  C   UNL     1       1.200  -0.685  -0.058  0.00  0.00    +0.020 A 
ATOM     15  C   UNL     1       2.239   0.007   0.540  0.00  0.00    +0.046 A 
ATOM     16 CL   UNL     1       3.557  -0.860   1.264  0.00  0.00    -0.083 Cl
ENDBRANCH   5  11
ENDBRANCH   1   6
BRANCH   3  17
ATOM     17  N   UNL     1      -1.201   7.690  -0.369  0.00  0.00    -0.189 NA
ATOM     18  C   UNL     1      -2.313   8.320  -0.447  0.00  0.00    +0.043 C 
ATOM     19  C   UNL     1      -3.613   7.558  -0.433  0.00  0.00    +0.063 C 
BRANCH  18  20
ATOM     20  C   UNL     1      -2.322   9.823  -0.553  0.00  0.00    +0.148 C 
BRANCH  20  21
ATOM     21  C   UNL     1      -2.886  10.229  -1.890  0.00  0.00    +0.223 C 
ATOM     22  O   UNL     1      -3.245   9.381  -2.680  0.00  0.00    -0.275 OA
ATOM     23  N   UNL     1      -2.991  11.534  -2.209  0.00  0.00    -0.285 N 
ATOM     24  H   UNL     1      -2.641  12.210  -1.608  0.00  0.00    +0.155 HD
BRANCH  23  25
ATOM     25  C   UNL     1      -3.606  11.915  -3.407  0.00  0.00    +0.033 A 
ATOM     26  C   UNL     1      -3.458  11.131  -4.544  0.00  0.00    +0.024 A 
ATOM     27  C   UNL     1      -4.070  11.507  -5.724  0.00  0.00    +0.017 A 
ATOM     28  C   UNL     1      -4.821  12.667  -5.777  0.00  0.00    +0.018 A 
ATOM     29  C   UNL     1      -4.965  13.453  -4.647  0.00  0.00    +0.017 A 
ATOM     30  C   UNL     1      -4.360  13.080  -3.463  0.00  0.00    +0.024 A 
ATOM     31 BR   UNL     1      -5.652  13.181  -7.396  0.00  0.00    -0.050 Br
ENDBRANCH  23  25
ENDBRANCH  20  21
ENDBRANCH  18  20
ENDBRANCH   3  17
TORSDOF 6
