REMARK  Name = ZINC10127156
REMARK  6 active torsions:
REMARK  status: ('A' for Active; 'I' for Inactive)
REMARK    1  A    between atoms: C_1  and  S_2
REMARK    2  A    between atoms: S_2  and  N_5
REMARK    3  A    between atoms: N_5  and  C_6
REMARK    4  A    between atoms: C_9  and  C_12
REMARK    5  A    between atoms: C_18  and  C_20
REMARK    6  A    between atoms: N_23  and  C_25
REMARK                            x       y       z     vdW  Elec       q    Type
REMARK                         _______ _______ _______ _____ _____    ______ ____
ROOT
ATOM      1  C   UNL     1      -0.080  -0.004   0.075  0.00  0.00    +0.080 A 
ATOM      2  C   UNL     1      -1.259  -0.693   0.026  0.00  0.00    +0.076 A 
ATOM      3  S   UNL     1      -0.661  -2.378   0.066  0.00  0.00    -0.060 S 
ATOM      4  C   UNL     1       1.083  -1.993   0.143  0.00  0.00    +0.165 A 
ATOM      5  N   UNL     1       1.062  -0.673   0.127  0.00  0.00    -0.225 NA
ATOM      6  N   UNL     1       2.171  -2.854   0.199  0.00  0.00    -0.259 N 
ATOM      7  C   UNL     1       1.975  -4.188   0.200  0.00  0.00    +0.270 C 
ATOM      8  O   UNL     1       0.847  -4.637   0.151  0.00  0.00    -0.268 OA
ATOM      9  H   UNL     1       3.071  -2.496   0.238  0.00  0.00    +0.157 HD
ENDROOT
BRANCH   7  10
ATOM     10  C   UNL     1       3.132  -5.103   0.260  0.00  0.00    +0.151 A 
ATOM     11  C   UNL     1       3.086  -6.517   0.274  0.00  0.00    +0.006 A 
ATOM     12  C   UNL     1       4.372  -6.926   0.330  0.00  0.00    +0.049 A 
ATOM     13  N   UNL     1       5.145  -5.807   0.358  0.00  0.00    -0.236 N 
ATOM     14  N   UNL     1       4.404  -4.758   0.317  0.00  0.00    -0.161 NA
ATOM     15  C   UNL     1       4.438  -8.437   0.344  0.00  0.00    +0.056 C 
ATOM     16  C   UNL     1       3.050  -8.903  -0.149  0.00  0.00    +0.011 C 
ATOM     17  C   UNL     1       2.154  -7.704   0.232  0.00  0.00    +0.040 C 
BRANCH  13  18
ATOM     18  C   UNL     1       6.545  -5.799   0.423  0.00  0.00    +0.066 A 
ATOM     19  C   UNL     1       7.212  -6.772   1.155  0.00  0.00    +0.030 A 
ATOM     20  C   UNL     1       8.592  -6.765   1.214  0.00  0.00    +0.040 A 
ATOM     21  C   UNL     1       9.309  -5.783   0.551  0.00  0.00    +0.124 A 
ATOM     22  C   UNL     1       8.645  -4.809  -0.175  0.00  0.00    +0.040 A 
ATOM     23  C   UNL     1       7.266  -4.815  -0.240  0.00  0.00    +0.030 A 
ATOM     24  F   UNL     1      10.659  -5.775   0.614  0.00  0.00    -0.205 F 
ENDBRANCH  13  18
ENDBRANCH   7  10
BRANCH   1  28
ATOM     25  C   UNL     1      -0.076   4.250   0.043  0.00  0.00    +0.048 A 
ATOM     26  C   UNL     1       1.127   3.555   0.104  0.00  0.00    +0.025 A 
ATOM     27  C   UNL     1       1.128   2.176   0.114  0.00  0.00    +0.012 A 
ATOM     28  C   UNL     1      -0.078   1.479   0.064  0.00  0.00    +0.001 A 
ATOM     29  C   UNL     1      -1.283   2.178  -0.002  0.00  0.00    +0.012 A 
ATOM     30  C   UNL     1      -1.279   3.557  -0.007  0.00  0.00    +0.025 A 
BRANCH  25  31
ATOM     31  N   UNL     1      -0.074   5.647   0.033  0.00  0.00    -0.221 N 
ATOM     32  H   UNL     1       0.480   6.136   0.661  0.00  0.00    +0.173 HD
BRANCH  31  34
ATOM     33  C   UNL     1      -0.405   5.958  -2.682  0.00  0.00    +0.218 C 
ATOM     34  S   UNL     1      -1.018   6.468  -1.052  0.00  0.00    +0.040 S 
ATOM     35  O   UNL     1      -2.331   5.965  -0.844  0.00  0.00    -0.155 OA
ATOM     36  O   UNL     1      -0.723   7.839  -0.825  0.00  0.00    -0.155 OA
ENDBRANCH  31  34
ENDBRANCH  25  31
ENDBRANCH   1  28
TORSDOF 5
