REMARK  Name = ZINC09283573
REMARK  12 active torsions:
REMARK  status: ('A' for Active; 'I' for Inactive)
REMARK    1  A    between atoms: C_1  and  C_2
REMARK    2  A    between atoms: C_2  and  C_4
REMARK    3  A    between atoms: C_2  and  S_17
REMARK    4  A    between atoms: N_6  and  C_7
REMARK    5  A    between atoms: C_10  and  S_13
REMARK    6  A    between atoms: S_13  and  N_16
REMARK    7  A    between atoms: S_17  and  C_18
REMARK    8  A    between atoms: C_21  and  C_27
REMARK    9  A    between atoms: N_22  and  C_23
REMARK   10  A    between atoms: C_23  and  C_24
REMARK   11  A    between atoms: C_24  and  O_25
REMARK   12  A    between atoms: O_25  and  C_26
REMARK                            x       y       z     vdW  Elec       q    Type
REMARK                         _______ _______ _______ _____ _____    ______ ____
ROOT
ATOM      1  C   UNL     1      -0.787   1.551  -1.328  0.00  0.00    +0.029 C 
ATOM      2  C   UNL     1      -0.088   0.994  -0.086  0.00  0.00    +0.137 C 
ENDROOT
BRANCH   2   3
ATOM      3  C   UNL     1      -0.835   1.430   1.148  0.00  0.00    +0.230 C 
ATOM      4  O   UNL     1      -0.482   2.422   1.751  0.00  0.00    -0.274 OA
ATOM      5  N   UNL     1      -1.893   0.718   1.583  0.00  0.00    -0.285 N 
ATOM      6  H   UNL     1      -2.123  -0.120   1.153  0.00  0.00    +0.155 HD
BRANCH   5   7
ATOM      7  C   UNL     1      -2.660   1.188   2.655  0.00  0.00    +0.034 A 
ATOM      8  C   UNL     1      -3.372   0.295   3.445  0.00  0.00    +0.025 A 
ATOM      9  C   UNL     1      -4.123   0.762   4.506  0.00  0.00    +0.030 A 
ATOM     10  C   UNL     1      -4.176   2.118   4.774  0.00  0.00    +0.105 A 
ATOM     11  C   UNL     1      -3.473   3.010   3.986  0.00  0.00    +0.030 A 
ATOM     12  C   UNL     1      -2.715   2.549   2.927  0.00  0.00    +0.025 A 
BRANCH  10  13
ATOM     13  S   UNL     1      -5.142   2.709   6.125  0.00  0.00    +0.056 S 
ATOM     14  O   UNL     1      -5.266   1.629   7.039  0.00  0.00    -0.153 OA
ATOM     15  O   UNL     1      -4.590   3.964   6.499  0.00  0.00    -0.153 OA
BRANCH  13  16
ATOM     16  N   UNL     1      -6.662   3.015   5.543  0.00  0.00    -0.204 NA
ATOM     17  H   UNL     1      -6.864   2.857   4.608  0.00  0.00    +0.144 HD
ATOM     18  H   UNL     1      -7.350   3.352   6.138  0.00  0.00    +0.144 HD
ENDBRANCH  13  16
ENDBRANCH  10  13
ENDBRANCH   5   7
ENDBRANCH   2   3
BRANCH   2  19
ATOM     19  S   UNL     1       1.609   1.618  -0.018  0.00  0.00    -0.074 S 
BRANCH  19  20
ATOM     20  C   UNL     1       2.274   0.856  -1.460  0.00  0.00    +0.193 A 
ATOM     21  N   UNL     1       1.633   0.062  -2.288  0.00  0.00    -0.122 NA
ATOM     22  N   UNL     1       2.417  -0.314  -3.235  0.00  0.00    -0.128 NA
ATOM     23  C   UNL     1       3.608   0.209  -3.064  0.00  0.00    +0.165 A 
ATOM     24  N   UNL     1       3.554   0.974  -1.922  0.00  0.00    -0.300 N 
BRANCH  23  25
ATOM     25  C   UNL     1       4.787   0.013  -3.935  0.00  0.00    +0.019 A 
ATOM     26  C   UNL     1       6.069   0.272  -3.448  0.00  0.00    +0.013 A 
ATOM     27  C   UNL     1       7.165   0.082  -4.263  0.00  0.00    +0.021 A 
ATOM     28  C   UNL     1       6.995  -0.355  -5.566  0.00  0.00    +0.041 A 
ATOM     29  C   UNL     1       5.725  -0.608  -6.057  0.00  0.00    +0.021 A 
ATOM     30  C   UNL     1       4.622  -0.426  -5.249  0.00  0.00    +0.013 A 
ATOM     31 CL   UNL     1       8.379  -0.585  -6.589  0.00  0.00    -0.084 Cl
ENDBRANCH  23  25
BRANCH  24  32
ATOM     32  C   UNL     1       4.642   1.754  -1.326  0.00  0.00    +0.154 C 
BRANCH  32  33
ATOM     33  C   UNL     1       5.335   0.920  -0.247  0.00  0.00    +0.181 C 
BRANCH  33  34
ATOM     34  O   UNL     1       6.396   1.680   0.335  0.00  0.00    -0.381 OA
ATOM     35  C   UNL     1       7.112   0.989   1.361  0.00  0.00    +0.194 C 
ENDBRANCH  33  34
ENDBRANCH  32  33
ENDBRANCH  24  32
ENDBRANCH  19  20
ENDBRANCH   2  19
TORSDOF 10
