REMARK  Name = ZINC13064627
REMARK  11 active torsions:
REMARK  status: ('A' for Active; 'I' for Inactive)
REMARK    1  A    between atoms: C_1  and  C_2
REMARK    2  A    between atoms: C_2  and  C_3
REMARK    3  A    between atoms: C_3  and  C_5
REMARK    4  A    between atoms: C_3  and  N_73
REMARK    5  A    between atoms: N_9  and  C_10
REMARK    6  A    between atoms: C_10  and  C_11
REMARK    7  A    between atoms: C_17  and  C_18
REMARK    8  A    between atoms: C_17  and  N_73
REMARK    9  A    between atoms: C_22  and  C_31
REMARK   10  A    between atoms: C_23  and  C_30
REMARK   11  A    between atoms: C_32  and  N_73
REMARK                            x       y       z     vdW  Elec       q    Type
REMARK                         _______ _______ _______ _____ _____    ______ ____
ROOT
ATOM      1  N   UNL     1      -1.792   3.352   2.950  0.00  0.00    +0.391 N 
ATOM      2  H   UNL     1      -2.292   4.247   3.011  0.00  0.00    -0.080 HD
ENDROOT
BRANCH   1   3
ATOM      3  C   UNL     1      -0.688   3.485   1.976  0.00  0.00    -0.067 C 
ATOM      4  C   UNL     1      -0.252   2.108   1.472  0.00  0.00    -0.015 C 
ATOM      5  C   UNL     1       0.883   2.272   0.459  0.00  0.00    -0.002 C 
ATOM      6  C   UNL     1       0.397   3.117  -0.720  0.00  0.00    -0.000 C 
ATOM      7  C   UNL     1      -0.038   4.494  -0.215  0.00  0.00    -0.002 C 
ATOM      8  C   UNL     1      -1.174   4.330   0.797  0.00  0.00    -0.015 C 
ENDBRANCH   1   3
BRANCH   1   9
ATOM      9  C   UNL     1      -1.252   3.013   4.283  0.00  0.00    +0.003 C 
BRANCH   9  10
ATOM     10  C   UNL     1      -1.250   1.519   4.483  0.00  0.00    +0.138 A 
ATOM     11  N   UNL     1      -0.703   0.625   3.697  0.00  0.00    -0.115 NA
ATOM     12  N   UNL     1      -0.914  -0.539   4.209  0.00  0.00    -0.023 NA
ATOM     13  N   UNL     1      -1.590  -0.410   5.298  0.00  0.00    -0.044 NA
ATOM     14  N   UNL     1      -1.817   0.844   5.501  0.00  0.00    -0.228 N 
BRANCH  14  15
ATOM     15  C   UNL     1      -2.552   1.423   6.627  0.00  0.00    +0.178 C 
BRANCH  15  16
ATOM     16  C   UNL     1      -4.050   1.412   6.318  0.00  0.00    +0.140 C 
ATOM     17  C   UNL     1      -4.832   2.039   7.493  0.00  0.00    +0.035 C 
ATOM     18  C   UNL     1      -6.087   1.129   7.577  0.00  0.00    +0.031 C 
ATOM     19  C   UNL     1      -5.485  -0.240   7.173  0.00  0.00    +0.160 C 
ATOM     20  O   UNL     1      -4.505   0.063   6.167  0.00  0.00    -0.375 OA
ENDBRANCH  15  16
ENDBRANCH  14  15
ENDBRANCH   9  10
BRANCH   9  22
ATOM     21  C   UNL     1       0.168   5.068   4.267  0.00  0.00    +0.002 C 
ATOM     22  C   UNL     1       0.177   3.545   4.407  0.00  0.00    -0.011 C 
ENDBRANCH   9  22
ENDBRANCH   1   9
BRANCH   1  23
ATOM     23  C   UNL     1      -2.735   2.305   2.505  0.00  0.00    -0.036 C 
BRANCH  23  24
ATOM     24  C   UNL     1      -3.614   2.875   1.422  0.00  0.00    +0.001 A 
ATOM     25  C   UNL     1      -3.706   2.245   0.225  0.00  0.00    +0.017 A 
ATOM     26  C   UNL     1      -4.568   2.825  -0.806  0.00  0.00    -0.001 A 
ATOM     27  C   UNL     1      -4.704   2.219  -2.060  0.00  0.00    +0.013 A 
ATOM     28  C   UNL     1      -5.517   2.785  -3.001  0.00  0.00    -0.047 A 
ATOM     29  C   UNL     1      -6.209   3.956  -2.724  0.00  0.00    -0.046 A 
ATOM     30  C   UNL     1      -6.090   4.570  -1.496  0.00  0.00    +0.030 A 
ATOM     31  C   UNL     1      -5.269   4.012  -0.522  0.00  0.00    +0.049 A 
ATOM     32  N   UNL     1      -5.132   4.604   0.716  0.00  0.00    -0.322 N 
ATOM     33  H   UNL     1      -5.615   5.422   0.910  0.00  0.00    +0.169 HD
ATOM     34  C   UNL     1      -4.342   4.061   1.658  0.00  0.00    +0.251 A 
ATOM     35  O   UNL     1      -4.248   4.609   2.743  0.00  0.00    -0.268 OA
ATOM     36  C   UNL     1      -7.100   4.563  -3.777  0.00  0.00    +0.044 C 
ATOM     37  C   UNL     1      -5.662   2.133  -4.352  0.00  0.00    +0.044 C 
ENDBRANCH  23  24
ENDBRANCH   1  23
TORSDOF 8
