REMARK  Name = ZINC12662491
REMARK  11 active torsions:
REMARK  status: ('A' for Active; 'I' for Inactive)
REMARK    1  A    between atoms: C_1  and  C_2
REMARK    2  A    between atoms: C_13  and  C_14
REMARK    3  A    between atoms: C_13  and  O_15
REMARK    4  A    between atoms: N_21  and  O_22
REMARK    5  A    between atoms: O_22  and  C_23
REMARK    6  A    between atoms: C_23  and  C_24
REMARK    7  A    between atoms: N_26  and  C_27
REMARK    8  A    between atoms: C_27  and  C_28
REMARK    9  A    between atoms: C_28  and  C_29
REMARK   10  A    between atoms: C_32  and  O_35
REMARK   11  A    between atoms: C_38  and  C_39
REMARK                            x       y       z     vdW  Elec       q    Type
REMARK                         _______ _______ _______ _____ _____    ______ ____
ROOT
ATOM      1  C   UNL     1      -0.666   2.049   1.304  0.00  0.00    +0.014 C 
ATOM      2  C   UNL     1      -0.019   1.549   0.011  0.00  0.00    -0.000 C 
ATOM      3  C   UNL     1      -0.844   2.000  -1.178  0.00  0.00    +0.010 C 
ATOM      4  C   UNL     1      -2.284   1.509  -0.951  0.00  0.00    +0.005 C 
ATOM      5  C   UNL     1      -2.328  -0.009  -0.779  0.00  0.00    +0.006 C 
ATOM      6  C   UNL     1      -1.400  -0.464   0.353  0.00  0.00    -0.003 C 
ATOM      7  C   UNL     1       0.002  -0.004   0.002  0.00  0.00    +0.001 C 
ATOM      8  C   UNL     1       1.087  -0.304   1.042  0.00  0.00    +0.007 C 
ATOM      9  C   UNL     1       2.180   0.751   0.717  0.00  0.00    +0.035 C 
ATOM     10  C   UNL     1       1.460   1.920  -0.002  0.00  0.00    +0.069 C 
ATOM     11  C   UNL     1       1.963   2.048  -1.441  0.00  0.00    +0.042 C 
ATOM     12  C   UNL     1      -1.453  -1.991   0.460  0.00  0.00    +0.008 C 
ATOM     13  C   UNL     1      -0.694  -2.575  -0.732  0.00  0.00    +0.032 C 
ATOM     14  C   UNL     1      -1.184  -1.955  -2.009  0.00  0.00    -0.058 C 
ATOM     15  C   UNL     1      -0.846  -2.544  -3.175  0.00  0.00    +0.031 C 
ATOM     16  C   UNL     1      -1.329  -1.831  -4.396  0.00  0.00    +0.102 C 
ATOM     17  N   UNL     1      -1.818  -2.459  -5.430  0.00  0.00    -0.085 NA
ATOM     18  C   UNL     1      -1.207  -0.343  -4.341  0.00  0.00    +0.027 C 
ATOM     19  C   UNL     1      -1.542   0.211  -3.160  0.00  0.00    -0.014 C 
ATOM     20  C   UNL     1      -2.014  -0.721  -2.079  0.00  0.00    +0.011 C 
ATOM     21  C   UNL     1      -3.377  -1.208  -2.575  0.00  0.00    +0.020 C 
ENDROOT
BRANCH  10  22
ATOM     22  O   UNL     1       1.670   3.142   0.708  0.00  0.00    -0.388 OA
ATOM     23  H   UNL     1       2.593   3.428   0.734  0.00  0.00    +0.210 HD
ENDBRANCH  10  22
BRANCH  17  24
ATOM     24  O   UNL     1      -2.259  -1.728  -6.560  0.00  0.00    -0.384 OA
BRANCH  24  25
ATOM     25  C   UNL     1      -2.771  -2.542  -7.617  0.00  0.00    +0.358 C 
BRANCH  25  26
ATOM     26  C   UNL     1      -3.209  -1.664  -8.760  0.00  0.00    +0.253 C 
ATOM     27  O   UNL     1      -3.094  -0.460  -8.679  0.00  0.00    -0.272 OA
ATOM     28  N   UNL     1      -3.728  -2.218  -9.874  0.00  0.00    -0.312 N 
ATOM     29  H   UNL     1      -3.820  -3.181  -9.940  0.00  0.00    +0.149 HD
BRANCH  28  30
ATOM     30  C   UNL     1      -4.153  -1.364 -10.986  0.00  0.00    +0.109 C 
BRANCH  30  31
ATOM     31  C   UNL     1      -4.701  -2.236 -12.118  0.00  0.00    +0.054 C 
BRANCH  31  32
ATOM     32  C   UNL     1      -5.139  -1.358 -13.262  0.00  0.00    -0.046 A 
ATOM     33  C   UNL     1      -6.438  -0.889 -13.313  0.00  0.00    +0.007 A 
ATOM     34  C   UNL     1      -6.840  -0.079 -14.358  0.00  0.00    +0.045 A 
ATOM     35  C   UNL     1      -5.942   0.254 -15.362  0.00  0.00    +0.117 A 
ATOM     36  C   UNL     1      -4.641  -0.224 -15.311  0.00  0.00    +0.045 A 
ATOM     37  C   UNL     1      -4.242  -1.029 -14.261  0.00  0.00    +0.007 A 
BRANCH  35  38
ATOM     38  O   UNL     1      -6.337   1.045 -16.393  0.00  0.00    -0.507 OA
ATOM     39  H   UNL     1      -6.696   0.558 -17.148  0.00  0.00    +0.292 HD
ENDBRANCH  35  38
ENDBRANCH  31  32
ENDBRANCH  30  31
ENDBRANCH  28  30
ENDBRANCH  25  26
ENDBRANCH  24  25
ENDBRANCH  17  24
TORSDOF 8
