REMARK  Name = ZINC00467632
REMARK  6 active torsions:
REMARK  status: ('A' for Active; 'I' for Inactive)
REMARK    1  A    between atoms: C_1  and  C_2
REMARK    2  A    between atoms: C_4  and  C_22
REMARK    3  A    between atoms: C_5  and  S_9
REMARK    4  A    between atoms: C_6  and  C_8
REMARK    5  A    between atoms: S_9  and  N_12
REMARK    6  A    between atoms: N_12  and  C_13
REMARK                            x       y       z     vdW  Elec       q    Type
REMARK                         _______ _______ _______ _____ _____    ______ ____
ROOT
ATOM      1  S   UNL     1       4.444  -1.197  -1.277  0.00  0.00    +0.073 S 
ATOM      2  O   UNL     1       4.652  -2.485  -1.840  0.00  0.00    -0.150 OA
ATOM      3  O   UNL     1       4.979  -0.015  -1.858  0.00  0.00    -0.150 OA
ENDROOT
BRANCH   1   8
ATOM      4  C   UNL     1      -1.528  -0.403  -0.956  0.00  0.00    +0.044 C 
ATOM      5  C   UNL     1      -0.036  -0.601  -1.031  0.00  0.00    -0.050 A 
ATOM      6  C   UNL     1       0.804   0.495  -1.091  0.00  0.00    +0.008 A 
ATOM      7  C   UNL     1       2.173   0.313  -1.166  0.00  0.00    -0.023 A 
ATOM      8  C   UNL     1       2.700  -0.965  -1.181  0.00  0.00    +0.114 A 
ATOM      9  C   UNL     1       1.860  -2.061  -1.120  0.00  0.00    -0.023 A 
ATOM     10  C   UNL     1       0.491  -1.879  -1.045  0.00  0.00    +0.008 A 
ATOM     11  C   UNL     1       2.435  -3.453  -1.137  0.00  0.00    +0.046 C 
ATOM     12  C   UNL     1       3.089   1.507  -1.232  0.00  0.00    +0.046 C 
ENDBRANCH   1   8
BRANCH   1  13
ATOM     13  N   UNL     1       5.016  -1.261   0.276  0.00  0.00    -0.216 N 
ATOM     14  H   UNL     1       5.605  -0.564   0.605  0.00  0.00    +0.174 HD
BRANCH  13  15
ATOM     15  C   UNL     1       4.650  -2.320   1.113  0.00  0.00    +0.052 A 
ATOM     16  C   UNL     1       3.380  -2.354   1.675  0.00  0.00    +0.028 A 
ATOM     17  C   UNL     1       3.015  -3.402   2.498  0.00  0.00    +0.051 A 
ATOM     18  C   UNL     1       3.917  -4.417   2.773  0.00  0.00    +0.166 A 
ATOM     19  C   UNL     1       5.193  -4.383   2.215  0.00  0.00    +0.168 A 
ATOM     20  C   UNL     1       5.556  -3.335   1.386  0.00  0.00    +0.074 A 
ATOM     21  O   UNL     1       5.882  -5.484   2.635  0.00  0.00    -0.453 OA
ATOM     22  C   UNL     1       5.159  -5.978   3.778  0.00  0.00    +0.466 C 
ATOM     23  O   UNL     1       3.808  -5.540   3.543  0.00  0.00    -0.453 OA
ENDBRANCH  13  15
ENDBRANCH   1  13
TORSDOF 3
