REMARK  Name = ZINC60208207
REMARK  11 active torsions:
REMARK  status: ('A' for Active; 'I' for Inactive)
REMARK    1  A    between atoms: C_1  and  C_2
REMARK    2  A    between atoms: C_2  and  C_3
REMARK    3  A    between atoms: C_2  and  N_4
REMARK    4  A    between atoms: N_4  and  C_5
REMARK    5  A    between atoms: N_4  and  C_14
REMARK    6  A    between atoms: C_5  and  C_6
REMARK    7  A    between atoms: C_9  and  C_12
REMARK    8  A    between atoms: C_14  and  C_15
REMARK    9  A    between atoms: N_17  and  C_18
REMARK   10  A    between atoms: C_22  and  S_24
REMARK   11  A    between atoms: S_24  and  N_27
REMARK                            x       y       z     vdW  Elec       q    Type
REMARK                         _______ _______ _______ _____ _____    ______ ____
ROOT
ATOM      1  C   UNL     1      -3.519   1.783  -0.511  0.00  0.00    +0.201 C 
ATOM      2  O   UNL     1      -2.798   2.530   0.116  0.00  0.00    -0.278 OA
ATOM      3  N   UNL     1      -4.701   2.227  -0.983  0.00  0.00    -0.287 N 
ATOM      4  H   UNL     1      -5.309   1.612  -1.423  0.00  0.00    +0.155 HD
ENDROOT
BRANCH   3   5
ATOM      5  C   UNL     1      -5.051   3.574  -0.841  0.00  0.00    +0.035 A 
ATOM      6  C   UNL     1      -5.730   4.228  -1.860  0.00  0.00    +0.023 A 
ATOM      7  C   UNL     1      -6.074   5.558  -1.716  0.00  0.00    +0.004 A 
ATOM      8  C   UNL     1      -5.741   6.238  -0.558  0.00  0.00    +0.028 A 
ATOM      9  C   UNL     1      -5.064   5.590   0.458  0.00  0.00    +0.107 A 
ATOM     10  C   UNL     1      -4.723   4.258   0.323  0.00  0.00    +0.051 A 
BRANCH   9  11
ATOM     11  S   UNL     1      -4.642   6.461   1.930  0.00  0.00    +0.061 S 
ATOM     12  O   UNL     1      -3.532   5.781   2.501  0.00  0.00    -0.153 OA
ATOM     13  O   UNL     1      -4.596   7.839   1.588  0.00  0.00    -0.153 OA
BRANCH  11  14
ATOM     14  N   UNL     1      -5.904   6.277   2.987  0.00  0.00    -0.172 NA
ATOM     15  C   UNL     1      -7.023   7.233   3.003  0.00  0.00    +0.137 C 
ATOM     16  C   UNL     1      -8.335   6.442   2.931  0.00  0.00    +0.177 C 
ATOM     17  O   UNL     1      -8.338   5.442   3.953  0.00  0.00    -0.377 OA
ATOM     18  C   UNL     1      -7.304   4.465   3.819  0.00  0.00    +0.177 C 
ATOM     19  C   UNL     1      -5.942   5.151   3.932  0.00  0.00    +0.137 C 
ENDBRANCH  11  14
ENDBRANCH   9  11
ENDBRANCH   3   5
BRANCH   1  20
ATOM     20  C   UNL     1      -3.094   0.359  -0.761  0.00  0.00    +0.020 C 
BRANCH  20  21
ATOM     21  N   UNL     1      -1.704   0.179  -0.323  0.00  0.00    +0.390 N 
ATOM     22  H   UNL     1      -1.544   0.715   0.517  0.00  0.00    -0.080 HD
BRANCH  21  24
ATOM     23  C   UNL     1      -1.129  -0.073  -2.690  0.00  0.00    -0.013 C 
ATOM     24  C   UNL     1      -0.793   0.641  -1.379  0.00  0.00    -0.074 C 
ATOM     25  C   UNL     1      -0.954   2.151  -1.566  0.00  0.00    -0.013 C 
ENDBRANCH  21  24
BRANCH  21  26
ATOM     26  C   UNL     1      -1.456  -1.243  -0.051  0.00  0.00    -0.042 C 
BRANCH  26  27
ATOM     27  C   UNL     1      -0.077  -1.411   0.532  0.00  0.00    -0.064 A 
ATOM     28  C   UNL     1       0.986  -1.732  -0.295  0.00  0.00    +0.003 A 
ATOM     29  C   UNL     1       2.251  -1.887   0.232  0.00  0.00    +0.019 A 
ATOM     30  C   UNL     1       2.459  -1.718   1.602  0.00  0.00    +0.052 A 
ATOM     31  C   UNL     1       1.382  -1.394   2.431  0.00  0.00    +0.019 A 
ATOM     32  C   UNL     1       0.123  -1.238   1.890  0.00  0.00    +0.003 A 
BRANCH  30  33
ATOM     33  C   UNL     1       3.770  -1.878   2.156  0.00  0.00    +0.099 C 
ATOM     34  N   UNL     1       4.810  -2.005   2.595  0.00  0.00    -0.191 NA
ENDBRANCH  30  33
ENDBRANCH  26  27
ENDBRANCH  21  26
ENDBRANCH  20  21
ENDBRANCH   1  20
TORSDOF 9
