REMARK  Name = ZINC60212975
REMARK  7 active torsions:
REMARK  status: ('A' for Active; 'I' for Inactive)
REMARK    1  A    between atoms: C_1  and  C_2
REMARK    2  A    between atoms: C_3  and  N_25
REMARK    3  A    between atoms: C_4  and  C_24
REMARK    4  A    between atoms: N_5  and  C_7
REMARK    5  A    between atoms: C_7  and  N_8
REMARK    6  A    between atoms: C_11  and  N_14
REMARK    7  A    between atoms: N_17  and  C_18
REMARK                            x       y       z     vdW  Elec       q    Type
REMARK                         _______ _______ _______ _____ _____    ______ ____
ROOT
ATOM      1  N   UNL     1       1.445  -3.672   1.766  0.00  0.00    +0.393 N 
ATOM      2  C   UNL     1       2.092  -2.608   2.543  0.00  0.00    -0.074 C 
ATOM      3  C   UNL     1       3.564  -2.959   2.769  0.00  0.00    +0.004 C 
ATOM      4  C   UNL     1       3.656  -4.281   3.537  0.00  0.00    +0.071 C 
ATOM      5  C   UNL     1       2.914  -5.367   2.753  0.00  0.00    +0.004 C 
ATOM      6  C   UNL     1       1.466  -4.927   2.527  0.00  0.00    -0.074 C 
ATOM      7  H   UNL     1       1.940  -3.800   0.896  0.00  0.00    -0.079 HD
ENDROOT
BRANCH   4   8
ATOM      8  N   UNL     1       5.062  -4.662   3.690  0.00  0.00    -0.297 N 
ATOM      9  C   UNL     1       5.436  -5.460   4.710  0.00  0.00    +0.300 C 
ATOM     10  O   UNL     1       4.607  -5.863   5.502  0.00  0.00    -0.253 OA
ATOM     11  N   UNL     1       6.730  -5.810   4.851  0.00  0.00    -0.297 N 
ATOM     12  H   UNL     1       5.723  -4.339   3.058  0.00  0.00    +0.151 HD
ATOM     13  H   UNL     1       7.392  -5.487   4.219  0.00  0.00    +0.151 HD
BRANCH  11  14
ATOM     14  C   UNL     1       7.137  -6.677   5.960  0.00  0.00    +0.074 C 
ATOM     15  C   UNL     1       7.383  -5.828   7.208  0.00  0.00    +0.022 C 
ATOM     16  C   UNL     1       7.808  -6.734   8.366  0.00  0.00    +0.002 C 
ATOM     17  C   UNL     1       9.095  -7.471   7.990  0.00  0.00    +0.000 C 
ATOM     18  C   UNL     1       8.849  -8.321   6.741  0.00  0.00    +0.002 C 
ATOM     19  C   UNL     1       8.424  -7.415   5.583  0.00  0.00    +0.022 C 
ENDBRANCH  11  14
ENDBRANCH   4   8
BRANCH   1  20
ATOM     20  C   UNL     1       0.053  -3.295   1.485  0.00  0.00    +0.069 C 
BRANCH  20  25
ATOM     21  C   UNL     1      -0.018   1.503   0.010  0.00  0.00    +0.070 C 
ATOM     22  C   UNL     1       0.002  -0.004   0.002  0.00  0.00    +0.090 A 
ATOM     23  C   UNL     1       0.008  -0.818  -1.135  0.00  0.00    +0.169 A 
ATOM     24  C   UNL     1       0.027  -2.107  -0.725  0.00  0.00    +0.064 A 
ATOM     25  N   UNL     1       0.034  -2.109   0.625  0.00  0.00    -0.283 N 
ATOM     26  N   UNL     1       0.023  -0.777   1.058  0.00  0.00    -0.176 NA
ATOM     27  C   UNL     1       0.039  -3.323  -1.615  0.00  0.00    +0.067 C 
BRANCH  23  28
ATOM     28  N   UNL     1      -0.005  -0.351  -2.540  0.00  0.00    +0.060 N 
ATOM     29  O   UNL     1       1.036  -0.147  -3.119  0.00  0.00    -0.126 OA
ATOM     30  O   UNL     1      -1.058  -0.175  -3.109  0.00  0.00    -0.126 OA
ENDBRANCH  23  28
ENDBRANCH  20  25
ENDBRANCH   1  20
TORSDOF 5
