REMARK  Name = ZINC35642672
REMARK  10 active torsions:
REMARK  status: ('A' for Active; 'I' for Inactive)
REMARK    1  A    between atoms: C_1  and  C_2
REMARK    2  A    between atoms: C_2  and  N_3
REMARK    3  A    between atoms: C_4  and  C_23
REMARK    4  A    between atoms: C_5  and  C_18
REMARK    5  A    between atoms: C_6  and  C_11
REMARK    6  A    between atoms: C_18  and  O_20
REMARK    7  A    between atoms: O_20  and  C_21
REMARK    8  A    between atoms: C_21  and  C_22
REMARK    9  A    between atoms: C_23  and  N_24
REMARK   10  A    between atoms: C_31  and  C_33
REMARK                            x       y       z     vdW  Elec       q    Type
REMARK                         _______ _______ _______ _____ _____    ______ ____
ROOT
ATOM      1  N   UNL     1      -1.855  -0.490  -0.122  0.00  0.00    -0.261 N 
ATOM      2  C   UNL     1      -2.197  -0.965   1.111  0.00  0.00    +0.010 C 
ATOM      3  C   UNL     1      -3.312  -1.706   1.289  0.00  0.00    +0.076 C 
ATOM      4  C   UNL     1      -4.170  -1.991   0.073  0.00  0.00    +0.143 C 
ATOM      5  N   UNL     1      -3.714  -1.433  -1.211  0.00  0.00    -0.288 N 
ATOM      6  C   UNL     1      -2.578  -0.708  -1.228  0.00  0.00    +0.307 C 
ATOM      7  O   UNL     1      -2.195  -0.239  -2.283  0.00  0.00    -0.252 OA
ATOM      8  H   UNL     1      -4.220  -1.581  -2.025  0.00  0.00    +0.151 HD
ENDROOT
BRANCH   4   9
ATOM      9  C   UNL     1      -4.274  -3.486  -0.082  0.00  0.00    -0.022 A 
ATOM     10  C   UNL     1      -3.237  -4.195  -0.659  0.00  0.00    +0.008 A 
ATOM     11  C   UNL     1      -3.331  -5.566  -0.801  0.00  0.00    +0.038 A 
ATOM     12  C   UNL     1      -4.464  -6.231  -0.365  0.00  0.00    +0.123 A 
ATOM     13  C   UNL     1      -5.502  -5.520   0.214  0.00  0.00    +0.038 A 
ATOM     14  C   UNL     1      -5.404  -4.149   0.359  0.00  0.00    +0.008 A 
ATOM     15  F   UNL     1      -4.558  -7.571  -0.504  0.00  0.00    -0.205 F 
ENDBRANCH   4   9
BRANCH   1  17
ATOM     16  C   UNL     1      -0.978   1.793  -0.132  0.00  0.00    +0.025 C 
ATOM     17  C   UNL     1      -0.631   0.306  -0.242  0.00  0.00    +0.111 C 
ENDBRANCH   1  17
BRANCH   3  18
ATOM     18  C   UNL     1      -3.667  -2.199   2.566  0.00  0.00    +0.339 C 
ATOM     19  O   UNL     1      -3.002  -1.899   3.541  0.00  0.00    -0.245 OA
BRANCH  18  20
ATOM     20  O   UNL     1      -4.742  -3.002   2.705  0.00  0.00    -0.462 OA
BRANCH  20  21
ATOM     21  C   UNL     1      -5.042  -3.463   4.024  0.00  0.00    +0.229 C 
ATOM     22  C   UNL     1      -6.286  -4.353   3.982  0.00  0.00    +0.048 C 
ENDBRANCH  20  21
ENDBRANCH  18  20
ENDBRANCH   3  18
BRANCH   2  23
ATOM     23  C   UNL     1      -1.315  -0.658   2.294  0.00  0.00    -0.026 C 
BRANCH  23  24
ATOM     24  N   UNL     1      -0.449  -1.812   2.572  0.00  0.00    +0.384 N 
ATOM     25  C   UNL     1       0.224  -1.586   3.849  0.00  0.00    -0.077 C 
ATOM     26  C   UNL     1       0.509  -2.918   4.506  0.00  0.00    +0.000 C 
ATOM     27  C   UNL     1       1.928  -3.382   4.129  0.00  0.00    +0.106 C 
ATOM     28  N   UNL     1       2.225  -3.083   2.713  0.00  0.00    -0.297 N 
ATOM     29  C   UNL     1       1.253  -3.282   1.658  0.00  0.00    +0.089 C 
ATOM     30  C   UNL     1       0.413  -1.998   1.470  0.00  0.00    -0.059 C 
ATOM     31  C   UNL     1       3.445  -2.608   2.392  0.00  0.00    +0.282 C 
ATOM     32  O   UNL     1       4.311  -2.527   3.243  0.00  0.00    -0.267 OA
ATOM     33  H   UNL     1      -1.032  -2.631   2.663  0.00  0.00    -0.081 HD
BRANCH  31  34
ATOM     34  C   UNL     1       3.729  -2.189   1.015  0.00  0.00    +0.189 A 
ATOM     35  C   UNL     1       4.946  -1.805   0.529  0.00  0.00    +0.054 A 
ATOM     36  C   UNL     1       4.758  -1.492  -0.827  0.00  0.00    +0.042 A 
ATOM     37  C   UNL     1       3.451  -1.696  -1.104  0.00  0.00    +0.196 A 
ATOM     38  O   UNL     1       2.836  -2.121   0.007  0.00  0.00    -0.458 OA
ENDBRANCH  31  34
ENDBRANCH  23  24
ENDBRANCH   2  23
TORSDOF 8
