REMARK  Name = ZINC39848536
REMARK  5 active torsions:
REMARK  status: ('A' for Active; 'I' for Inactive)
REMARK    1  A    between atoms: C_1  and  C_2
REMARK    2  A    between atoms: C_8  and  C_26
REMARK    3  A    between atoms: C_10  and  C_15
REMARK    4  A    between atoms: C_15  and  C_17
REMARK    5  A    between atoms: C_29  and  N_32
REMARK                            x       y       z     vdW  Elec       q    Type
REMARK                         _______ _______ _______ _____ _____    ______ ____
ROOT
ATOM      1  C   UNL     1      -0.728   1.078  -0.803  0.00  0.00    +0.066 C 
ATOM      2  C   UNL     1      -0.400  -0.380  -0.605  0.00  0.00    +0.047 A 
ATOM      3  C   UNL     1      -0.127  -1.193  -1.655  0.00  0.00    +0.071 A 
ATOM      4  S   UNL     1       0.172  -2.738  -0.811  0.00  0.00    -0.060 S 
ATOM      5  C   UNL     1      -0.079  -2.195   0.762  0.00  0.00    +0.168 A 
ATOM      6  N   UNL     1      -0.360  -0.920   0.598  0.00  0.00    -0.230 NA
ATOM      7  N   UNL     1      -0.001  -2.916   1.946  0.00  0.00    -0.232 N 
ATOM      8  C   UNL     1       0.332  -4.340   2.070  0.00  0.00    +0.152 C 
ATOM      9  C   UNL     1       0.288  -4.655   3.547  0.00  0.00    +0.080 C 
ATOM     10  C   UNL     1      -0.040  -3.505   4.181  0.00  0.00    +0.250 C 
ATOM     11  C   UNL     1      -0.211  -2.431   3.183  0.00  0.00    +0.293 C 
ATOM     12  O   UNL     1      -0.503  -1.280   3.441  0.00  0.00    -0.266 OA
ATOM     13  O   UNL     1      -0.183  -3.361   5.520  0.00  0.00    -0.282 OA
ENDROOT
BRANCH   8  14
ATOM     14  C   UNL     1       1.712  -4.599   1.524  0.00  0.00    -0.022 A 
ATOM     15  C   UNL     1       2.758  -3.761   1.862  0.00  0.00    +0.008 A 
ATOM     16  C   UNL     1       4.024  -3.999   1.361  0.00  0.00    +0.033 A 
ATOM     17  C   UNL     1       4.245  -5.075   0.522  0.00  0.00    +0.126 A 
ATOM     18  C   UNL     1       3.199  -5.914   0.184  0.00  0.00    +0.033 A 
ATOM     19  C   UNL     1       1.933  -5.678   0.689  0.00  0.00    +0.008 A 
BRANCH  17  20
ATOM     20  N   UNL     1       5.600  -5.330  -0.015  0.00  0.00    +0.056 N 
ATOM     21  O   UNL     1       6.515  -4.596   0.280  0.00  0.00    -0.126 OA
ATOM     22  O   UNL     1       5.793  -6.271  -0.749  0.00  0.00    -0.126 OA
ENDBRANCH  17  20
ENDBRANCH   8  14
BRANCH   9  23
ATOM     23  C   UNL     1       0.550  -5.955   4.172  0.00  0.00    +0.230 C 
ATOM     24  O   UNL     1       1.514  -6.096   4.904  0.00  0.00    -0.283 OA
BRANCH  23  25
ATOM     25  C   UNL     1      -0.349  -7.088   3.916  0.00  0.00    +0.176 A 
ATOM     26  C   UNL     1      -0.252  -8.313   4.500  0.00  0.00    +0.061 A 
ATOM     27  C   UNL     1      -1.345  -9.112   3.950  0.00  0.00    +0.021 A 
ATOM     28  C   UNL     1      -1.783 -10.425   4.140  0.00  0.00    +0.011 A 
ATOM     29  C   UNL     1      -2.872 -10.882   3.452  0.00  0.00    +0.001 A 
ATOM     30  C   UNL     1      -3.545 -10.050   2.568  0.00  0.00    +0.004 A 
ATOM     31  C   UNL     1      -3.129  -8.751   2.367  0.00  0.00    +0.047 A 
ATOM     32  C   UNL     1      -2.024  -8.264   3.055  0.00  0.00    +0.136 A 
ATOM     33  O   UNL     1      -1.401  -7.069   3.071  0.00  0.00    -0.452 OA
ENDBRANCH  23  25
ENDBRANCH   9  23
TORSDOF 4
