REMARK  Name = ZINC20730670
REMARK  8 active torsions:
REMARK  status: ('A' for Active; 'I' for Inactive)
REMARK    1  A    between atoms: C_4  and  C_7
REMARK    2  A    between atoms: C_8  and  C_17
REMARK    3  A    between atoms: C_17  and  C_19
REMARK    4  A    between atoms: C_17  and  N_22
REMARK    5  A    between atoms: N_25  and  C_28
REMARK    6  A    between atoms: C_28  and  C_29
REMARK    7  A    between atoms: N_31  and  C_32
REMARK    8  A    between atoms: C_32  and  C_33
REMARK                            x       y       z     vdW  Elec       q    Type
REMARK                         _______ _______ _______ _____ _____    ______ ____
ROOT
ATOM      1  C   UNL     1       6.708   9.646  -3.949  0.00  0.00    +0.080 C 
ENDROOT
BRANCH   1   3
ATOM      2  C   UNL     1       5.344  10.723  -5.827  0.00  0.00    +0.050 A 
ATOM      3  C   UNL     1       6.103   9.715  -5.328  0.00  0.00    -0.017 A 
ATOM      4  C   UNL     1       6.228   8.713  -6.384  0.00  0.00    +0.002 A 
ATOM      5  C   UNL     1       6.867   7.472  -6.471  0.00  0.00    +0.010 A 
ATOM      6  C   UNL     1       6.789   6.748  -7.627  0.00  0.00    +0.001 A 
ATOM      7  C   UNL     1       6.076   7.232  -8.715  0.00  0.00    +0.002 A 
ATOM      8  C   UNL     1       5.434   8.449  -8.650  0.00  0.00    +0.026 A 
ATOM      9  C   UNL     1       5.498   9.204  -7.483  0.00  0.00    +0.047 A 
ATOM     10  N   UNL     1       4.977  10.426  -7.119  0.00  0.00    -0.354 N 
ATOM     11  H   UNL     1       4.354  11.131  -7.690  0.00  0.00    +0.166 HD
BRANCH   2  15
ATOM     12  C   UNL     1       4.268  14.253  -3.723  0.00  0.00    +0.000 A 
ATOM     13  C   UNL     1       4.713  14.338  -5.031  0.00  0.00    +0.001 A 
ATOM     14  C   UNL     1       5.064  13.196  -5.719  0.00  0.00    +0.010 A 
ATOM     15  C   UNL     1       4.970  11.951  -5.095  0.00  0.00    -0.001 A 
ATOM     16  C   UNL     1       4.515  11.871  -3.778  0.00  0.00    +0.010 A 
ATOM     17  C   UNL     1       4.172  13.022  -3.098  0.00  0.00    +0.001 A 
ENDBRANCH   2  15
ENDBRANCH   1   3
BRANCH   1  18
ATOM     18  N   UNL     1       6.488   8.308  -3.385  0.00  0.00    +0.393 N 
ATOM     19  C   UNL     1       6.849   8.271  -1.961  0.00  0.00    -0.062 C 
ATOM     20  C   UNL     1       6.682   6.845  -1.431  0.00  0.00    +0.066 C 
ATOM     21  N   UNL     1       5.292   6.411  -1.630  0.00  0.00    -0.298 NA
ATOM     22  C   UNL     1       4.930   6.448  -3.054  0.00  0.00    +0.066 C 
ATOM     23  C   UNL     1       5.098   7.875  -3.584  0.00  0.00    -0.062 C 
ATOM     24  H   UNL     1       7.143   7.605  -3.920  0.00  0.00    -0.080 HD
BRANCH  21  25
ATOM     25  C   UNL     1       5.071   5.073  -1.066  0.00  0.00    +0.180 C 
BRANCH  25  26
ATOM     26  C   UNL     1       3.596   4.764  -1.066  0.00  0.00    +0.227 C 
ATOM     27  O   UNL     1       2.806   5.579  -1.494  0.00  0.00    -0.274 OA
ATOM     28  N   UNL     1       3.155   3.583  -0.590  0.00  0.00    -0.312 N 
ATOM     29  H   UNL     1       3.872   2.844  -0.202  0.00  0.00    +0.149 HD
BRANCH  28  30
ATOM     30  C   UNL     1       1.721   3.283  -0.590  0.00  0.00    +0.135 C 
BRANCH  30  31
ATOM     31  C   UNL     1       1.492   1.889  -0.002  0.00  0.00    +0.135 C 
ATOM     32  C   UNL     1      -0.019   1.544   0.011  0.00  0.00    +0.035 C 
ATOM     33  C   UNL     1       0.002  -0.004   0.002  0.00  0.00    +0.031 C 
ATOM     34  C   UNL     1       1.398  -0.360  -0.546  0.00  0.00    +0.160 C 
ATOM     35  O   UNL     1       2.062   0.876  -0.858  0.00  0.00    -0.375 OA
ENDBRANCH  30  31
ENDBRANCH  28  30
ENDBRANCH  25  26
ENDBRANCH  21  25
ENDBRANCH   1  18
BRANCH   1  36
ATOM     36  C   UNL     1       8.188   9.918  -4.036  0.00  0.00    +0.347 C 
ATOM     37  O   UNL     1       8.978   9.082  -3.665  0.00  0.00    -0.248 OA
ATOM     38  O   UNL     1       8.628  11.088  -4.524  0.00  0.00    -0.248 OA
ENDBRANCH   1  36
TORSDOF 8
