REMARK  Name = ZINC40983791
REMARK  14 active torsions:
REMARK  status: ('A' for Active; 'I' for Inactive)
REMARK    1  A    between atoms: C_1  and  C_2
REMARK    2  A    between atoms: C_2  and  C_3
REMARK    3  A    between atoms: C_3  and  C_4
REMARK    4  A    between atoms: C_4  and  N_5
REMARK    5  A    between atoms: C_6  and  C_8
REMARK    6  A    between atoms: C_8  and  N_9
REMARK    7  A    between atoms: C_15  and  C_17
REMARK    8  A    between atoms: N_20  and  C_23
REMARK    9  A    between atoms: C_23  and  C_24
REMARK   10  A    between atoms: C_25  and  C_38
REMARK   11  A    between atoms: C_27  and  C_29
REMARK   12  A    between atoms: C_32  and  O_35
REMARK   13  A    between atoms: O_35  and  C_36
REMARK   14  A    between atoms: C_36  and  C_37
REMARK                            x       y       z     vdW  Elec       q    Type
REMARK                         _______ _______ _______ _____ _____    ______ ____
ROOT
ATOM      1  C   UNL     1       4.651  -9.928   5.412  0.00  0.00    +0.072 C 
ATOM      2  C   UNL     1       5.189  -8.759   6.242  0.00  0.00    -0.006 C 
ATOM      3  C   UNL     1       5.683  -9.284   7.591  0.00  0.00    -0.078 C 
ATOM      4  N   UNL     1       6.752 -10.266   7.377  0.00  0.00    +0.383 N 
ATOM      5  C   UNL     1       6.225 -11.423   6.644  0.00  0.00    -0.078 C 
ATOM      6  C   UNL     1       5.752 -10.981   5.258  0.00  0.00    -0.006 C 
ATOM      7  H   UNL     1       7.496  -9.841   6.844  0.00  0.00    -0.081 HD
ENDROOT
BRANCH   1  14
ATOM      8  N   UNL     1       0.313  -8.647   3.273  0.00  0.00    -0.291 NA
ATOM      9  C   UNL     1       0.716  -9.368   4.488  0.00  0.00    +0.104 C 
ATOM     10  C   UNL     1       2.054  -8.812   4.987  0.00  0.00    +0.123 C 
ATOM     11  N   UNL     1       3.023  -8.865   3.882  0.00  0.00    -0.299 N 
ATOM     12  C   UNL     1       2.636  -8.284   2.588  0.00  0.00    +0.123 C 
ATOM     13  C   UNL     1       1.275  -8.860   2.183  0.00  0.00    +0.104 C 
ATOM     14  C   UNL     1       4.234  -9.431   4.051  0.00  0.00    +0.219 C 
ATOM     15  O   UNL     1       4.990  -9.541   3.108  0.00  0.00    -0.275 OA
BRANCH   8  16
ATOM     16  C   UNL     1      -1.044  -9.030   2.859  0.00  0.00    +0.180 C 
BRANCH  16  18
ATOM     17  N   UNL     1      -3.349  -8.817   3.732  0.00  0.00    -0.314 N 
ATOM     18  C   UNL     1      -2.034  -8.574   3.900  0.00  0.00    +0.227 C 
ATOM     19  O   UNL     1      -1.647  -7.988   4.889  0.00  0.00    -0.274 OA
ATOM     20  H   UNL     1      -3.658  -9.286   2.941  0.00  0.00    +0.149 HD
BRANCH  17  21
ATOM     21  C   UNL     1      -4.311  -8.374   4.744  0.00  0.00    +0.104 C 
BRANCH  21  22
ATOM     22  C   UNL     1      -5.724  -8.772   4.314  0.00  0.00    +0.018 C 
BRANCH  22  24
ATOM     23  C   UNL     1      -8.142  -8.707   4.940  0.00  0.00    +0.004 C 
ATOM     24  C   UNL     1      -6.728  -8.309   5.370  0.00  0.00    -0.002 C 
ENDBRANCH  22  24
ENDBRANCH  21  22
ENDBRANCH  17  21
ENDBRANCH  16  18
ENDBRANCH   8  16
ENDBRANCH   1  14
BRANCH   4  25
ATOM     25  C   UNL     1       7.276 -10.709   8.676  0.00  0.00    -0.019 C 
BRANCH  25  26
ATOM     26  C   UNL     1       8.454 -11.623   8.458  0.00  0.00    +0.066 A 
ATOM     27  C   UNL     1       8.403 -12.959   8.316  0.00  0.00    +0.124 A 
ATOM     28  O   UNL     1       9.668 -13.392   8.142  0.00  0.00    -0.440 OA
ATOM     29  C   UNL     1      10.476 -12.318   8.179  0.00  0.00    +0.228 A 
ATOM     30  N   UNL     1       9.739 -11.247   8.365  0.00  0.00    -0.216 NA
ATOM     31  C   UNL     1       7.163 -13.815   8.346  0.00  0.00    +0.088 C 
BRANCH  29  32
ATOM     32  C   UNL     1      11.946 -12.338   8.030  0.00  0.00    +0.037 A 
ATOM     33  C   UNL     1      12.672 -11.147   8.095  0.00  0.00    +0.017 A 
ATOM     34  C   UNL     1      14.043 -11.170   7.956  0.00  0.00    +0.046 A 
ATOM     35  C   UNL     1      14.702 -12.375   7.752  0.00  0.00    +0.121 A 
ATOM     36  C   UNL     1      13.983 -13.562   7.687  0.00  0.00    +0.046 A 
ATOM     37  C   UNL     1      12.613 -13.548   7.830  0.00  0.00    +0.017 A 
BRANCH  35  38
ATOM     38  O   UNL     1      16.054 -12.394   7.615  0.00  0.00    -0.492 OA
BRANCH  38  39
ATOM     39  C   UNL     1      16.667 -13.668   7.408  0.00  0.00    +0.225 C 
ATOM     40  C   UNL     1      18.181 -13.489   7.278  0.00  0.00    +0.048 C 
ENDBRANCH  38  39
ENDBRANCH  35  38
ENDBRANCH  29  32
ENDBRANCH  25  26
ENDBRANCH   4  25
TORSDOF 11
