REMARK  Name = ZINC05415547
REMARK  5 active torsions:
REMARK  status: ('A' for Active; 'I' for Inactive)
REMARK    1  A    between atoms: C_4  and  C_7
REMARK    2  A    between atoms: C_7  and  N_55
REMARK    3  A    between atoms: C_8  and  N_55
REMARK    4  A    between atoms: C_18  and  N_20
REMARK    5  A    between atoms: C_25  and  C_27
REMARK                            x       y       z     vdW  Elec       q    Type
REMARK                         _______ _______ _______ _____ _____    ______ ____
ROOT
ATOM      1  C   UNL     1       0.002  -0.004   0.002  0.00  0.00    -0.013 C 
ATOM      2  C   UNL     1      -0.019   1.540   0.011  0.00  0.00    +0.147 C 
ATOM      3  O   UNL     1       1.373   1.929  -0.001  0.00  0.00    -0.374 OA
ATOM      4  C   UNL     1       2.027   1.012   0.898  0.00  0.00    +0.168 C 
ATOM      5  C   UNL     1       1.387  -0.368   0.586  0.00  0.00    +0.137 C 
ATOM      6  O   UNL     1       2.176  -0.964  -0.447  0.00  0.00    -0.374 OA
ATOM      7  C   UNL     1       3.437  -0.306  -0.574  0.00  0.00    +0.185 C 
ATOM      8  C   UNL     1       3.494   0.826   0.464  0.00  0.00    +0.130 C 
ENDROOT
BRANCH   8   9
ATOM      9  N   UNL     1       4.322   0.433   1.607  0.00  0.00    -0.306 N 
ATOM     10  C   UNL     1       5.679   0.705   1.605  0.00  0.00    +0.216 A 
ATOM     11  N   UNL     1       6.213   1.317   0.558  0.00  0.00    -0.223 NA
ATOM     12  C   UNL     1       7.506   1.599   0.520  0.00  0.00    +0.116 A 
ATOM     13  C   UNL     1       8.309   1.239   1.587  0.00  0.00    +0.048 A 
ATOM     14  C   UNL     1       7.719   0.590   2.675  0.00  0.00    +0.076 A 
ATOM     15  N   UNL     1       6.410   0.343   2.647  0.00  0.00    -0.214 NA
ATOM     16  H   UNL     1       3.918  -0.017   2.366  0.00  0.00    +0.149 HD
BRANCH  14  17
ATOM     17  C   UNL     1       8.536   0.183   3.842  0.00  0.00    +0.004 A 
ATOM     18  C   UNL     1       9.883   0.538   3.909  0.00  0.00    +0.014 A 
ATOM     19  C   UNL     1      10.643   0.160   4.997  0.00  0.00    +0.050 A 
ATOM     20  C   UNL     1      10.071  -0.573   6.026  0.00  0.00    +0.166 A 
ATOM     21  C   UNL     1       8.725  -0.931   5.964  0.00  0.00    +0.167 A 
ATOM     22  C   UNL     1       7.959  -0.549   4.878  0.00  0.00    +0.059 A 
ATOM     23  O   UNL     1       8.411  -1.641   7.087  0.00  0.00    -0.453 OA
ATOM     24  C   UNL     1       9.671  -2.064   7.639  0.00  0.00    +0.466 C 
ATOM     25  O   UNL     1      10.598  -1.059   7.188  0.00  0.00    -0.453 OA
ENDBRANCH  14  17
ENDBRANCH   8   9
BRANCH   1  26
ATOM     26  N   UNL     1      -1.071  -0.540   0.860  0.00  0.00    +0.387 N 
ATOM     27  H   UNL     1      -0.798  -1.468   1.204  0.00  0.00    -0.085 HD
ATOM     28  H   UNL     1      -1.216   0.092   1.656  0.00  0.00    -0.085 HD
BRANCH  26  29
ATOM     29  C   UNL     1      -2.328  -0.655   0.096  0.00  0.00    -0.046 C 
BRANCH  29  33
ATOM     30  C   UNL     1      -5.380  -2.211   2.647  0.00  0.00    +0.000 A 
ATOM     31  C   UNL     1      -5.184  -0.846   2.558  0.00  0.00    +0.000 A 
ATOM     32  C   UNL     1      -4.197  -0.342   1.732  0.00  0.00    +0.002 A 
ATOM     33  C   UNL     1      -3.405  -1.204   0.996  0.00  0.00    -0.064 A 
ATOM     34  C   UNL     1      -3.604  -2.569   1.082  0.00  0.00    +0.002 A 
ATOM     35  C   UNL     1      -4.589  -3.073   1.911  0.00  0.00    +0.000 A 
ENDBRANCH  29  33
ENDBRANCH  26  29
ENDBRANCH   1  26
TORSDOF 5
