REMARK  Name = ZINC33928522
REMARK  7 active torsions:
REMARK  status: ('A' for Active; 'I' for Inactive)
REMARK    1  A    between atoms: C_1  and  O_2
REMARK    2  A    between atoms: O_2  and  C_3
REMARK    3  A    between atoms: C_3  and  C_5
REMARK    4  A    between atoms: C_8  and  C_11
REMARK    5  A    between atoms: C_11  and  N_12
REMARK    6  A    between atoms: C_17  and  C_29
REMARK    7  A    between atoms: CA_20  and  C_26
REMARK                            x       y       z     vdW  Elec       q    Type
REMARK                         _______ _______ _______ _____ _____    ______ ____
ROOT
ATOM      1  N   UNL     1       2.141  -6.997   0.733  0.00  0.00    -0.237 N 
ATOM      2  C   UNL     1       2.141  -7.259  -0.615  0.00  0.00    +0.225 C 
ATOM      3  O   UNL     1       1.268  -7.007  -1.418  0.00  0.00    -0.275 OA
ATOM      4  C   UNL     1       3.408  -7.900  -0.865  0.00  0.00    +0.077 C 
ATOM      5  C   UNL     1       4.342  -8.181  -1.969  0.00  0.00    -0.026 C 
ATOM      6  N   UNL     1       5.550  -8.696  -1.237  0.00  0.00    +0.394 N 
ATOM      7  CA  UNL     1       5.492  -8.175   0.162  0.00  0.00    +0.057 C 
ATOM      8  C   UNL     1       4.352  -7.146   0.153  0.00  0.00    +0.083 C 
ATOM      9  C   UNL     1       3.377  -7.138   1.298  0.00  0.00    +0.225 C 
ATOM     10  O   UNL     1       3.635  -7.237   2.478  0.00  0.00    -0.275 OA
ATOM     11  H1  UNL     1       5.538  -9.705  -1.226  0.00  0.00    -0.084 HD
ATOM     12  H2  UNL     1       6.390  -8.368  -1.689  0.00  0.00    -0.084 HD
ENDROOT
BRANCH   5  13
ATOM     13  C   UNL     1       3.783  -9.232  -2.893  0.00  0.00    -0.040 A 
ATOM     14  C   UNL     1       2.723 -10.019  -2.483  0.00  0.00    +0.023 A 
ATOM     15  C   UNL     1       2.210 -10.985  -3.330  0.00  0.00    +0.043 A 
ATOM     16  C   UNL     1       2.757 -11.164  -4.588  0.00  0.00    +0.041 A 
ATOM     17  C   UNL     1       3.817 -10.376  -4.999  0.00  0.00    +0.061 A 
ATOM     18  C   UNL     1       4.327  -9.406  -4.153  0.00  0.00    +0.061 A 
ATOM     19 CL   UNL     1       5.654  -8.413  -4.670  0.00  0.00    -0.082 Cl
ATOM     20 CL   UNL     1       4.504 -10.600  -6.577  0.00  0.00    -0.082 Cl
ATOM     21 CL   UNL     1       0.880 -11.974  -2.814  0.00  0.00    -0.083 Cl
ENDBRANCH   5  13
BRANCH   7  22
ATOM     22  C   UNL     1       5.210  -9.298   1.126  0.00  0.00    +0.343 C 
ATOM     23  O   UNL     1       5.092 -10.440   0.714  0.00  0.00    -0.248 OA
ATOM     24  OXT UNL     1       5.099  -9.065   2.318  0.00  0.00    -0.248 OA
ENDBRANCH   7  22
BRANCH   1  25
ATOM     25  C   UNL     1       0.946  -6.604   1.483  0.00  0.00    +0.151 C 
BRANCH  25  29
ATOM     26  C   UNL     1       0.577  -2.343   1.444  0.00  0.00    +0.059 A 
ATOM     27  C   UNL     1      -0.019  -3.108   0.439  0.00  0.00    +0.015 A 
ATOM     28  C   UNL     1       0.104  -4.482   0.458  0.00  0.00    +0.006 A 
ATOM     29  C   UNL     1       0.816  -5.102   1.469  0.00  0.00    -0.030 A 
ATOM     30  C   UNL     1       1.409  -4.350   2.468  0.00  0.00    +0.006 A 
ATOM     31  C   UNL     1       1.299  -2.975   2.458  0.00  0.00    +0.015 A 
BRANCH  26  32
ATOM     32  C   UNL     1       0.450  -0.872   1.430  0.00  0.00    +0.339 C 
ATOM     33  O   UNL     1       0.973  -0.208   2.303  0.00  0.00    -0.245 OA
BRANCH  32  35
ATOM     34  C   UNL     1      -0.330   1.161   0.499  0.00  0.00    +0.280 C 
ATOM     35  O   UNL     1      -0.248  -0.265   0.450  0.00  0.00    -0.464 OA
ENDBRANCH  32  35
ENDBRANCH  26  32
ENDBRANCH  25  29
ENDBRANCH   1  25
TORSDOF 6
