REMARK  Name = ZINC39673187
REMARK  7 active torsions:
REMARK  status: ('A' for Active; 'I' for Inactive)
REMARK    1  A    between atoms: C_1  and  C_2
REMARK    2  A    between atoms: C_5  and  C_9
REMARK    3  A    between atoms: C_7  and  C_8
REMARK    4  A    between atoms: C_9  and  N_10
REMARK    5  A    between atoms: C_11  and  C_13
REMARK    6  A    between atoms: C_24  and  C_26
REMARK    7  A    between atoms: C_29  and  C_31
REMARK                            x       y       z     vdW  Elec       q    Type
REMARK                         _______ _______ _______ _____ _____    ______ ____
ROOT
ATOM      1  C   UNL     1       3.137  -6.551  -0.051  0.00  0.00    +0.100 C 
ATOM      2  C   UNL     1       3.900  -6.003   1.176  0.00  0.00    +0.121 C 
ATOM      3  N   UNL     1       3.805  -7.081   2.188  0.00  0.00    -0.294 N 
ATOM      4  C   UNL     1       3.965  -8.333   1.411  0.00  0.00    +0.115 C 
ATOM      5  C   UNL     1       3.185  -8.081   0.105  0.00  0.00    -0.004 C 
ATOM      6  C   UNL     1       3.917  -8.710  -1.077  0.00  0.00    -0.010 C 
ATOM      7  C   UNL     1       3.901 -10.234  -0.929  0.00  0.00    -0.082 C 
ATOM      8  N   UNL     1       2.512 -10.708  -0.878  0.00  0.00    +0.379 N 
ATOM      9  C   UNL     1       1.843 -10.171   0.314  0.00  0.00    -0.082 C 
ATOM     10  C   UNL     1       1.772  -8.645   0.218  0.00  0.00    -0.010 C 
ATOM     11  C   UNL     1       3.615  -6.952   3.517  0.00  0.00    +0.282 C 
ATOM     12  O   UNL     1       3.559  -7.942   4.222  0.00  0.00    -0.267 OA
ATOM     13  H   UNL     1       2.022 -10.399  -1.704  0.00  0.00    -0.086 HD
ATOM     14  H   UNL     1       2.503 -11.716  -0.842  0.00  0.00    -0.086 HD
ENDROOT
BRANCH  11  15
ATOM     15  C   UNL     1       3.477  -5.620   4.111  0.00  0.00    +0.190 A 
ATOM     16  C   UNL     1       3.285  -5.346   5.447  0.00  0.00    +0.055 A 
ATOM     17  C   UNL     1       3.208  -3.955   5.568  0.00  0.00    +0.051 A 
ATOM     18  C   UNL     1       3.354  -3.435   4.313  0.00  0.00    +0.139 A 
ATOM     19  O   UNL     1       3.520  -4.447   3.445  0.00  0.00    -0.450 OA
BRANCH  18  20
ATOM     20  C   UNL     1       3.337  -1.999   3.970  0.00  0.00    +0.052 A 
ATOM     21  C   UNL     1       2.308  -1.178   4.436  0.00  0.00    +0.014 A 
ATOM     22  C   UNL     1       2.299   0.162   4.111  0.00  0.00    +0.001 A 
ATOM     23  C   UNL     1       3.305   0.696   3.325  0.00  0.00    +0.003 A 
ATOM     24  C   UNL     1       4.328  -0.110   2.858  0.00  0.00    +0.039 A 
ATOM     25  C   UNL     1       4.355  -1.454   3.180  0.00  0.00    +0.134 A 
ATOM     26  F   UNL     1       5.357  -2.239   2.729  0.00  0.00    -0.205 F 
ENDBRANCH  18  20
ENDBRANCH  11  15
BRANCH   1  28
ATOM     27  N   UNL     1       1.041  -5.918  -1.200  0.00  0.00    -0.311 N 
ATOM     28  C   UNL     1       1.710  -6.067  -0.040  0.00  0.00    +0.218 C 
ATOM     29  O   UNL     1       1.164  -5.812   1.012  0.00  0.00    -0.275 OA
ATOM     30  H   UNL     1       1.478  -6.122  -2.042  0.00  0.00    +0.149 HD
BRANCH  27  31
ATOM     31  C   UNL     1      -0.347  -5.448  -1.190  0.00  0.00    +0.139 C 
BRANCH  31  36
ATOM     32  C   UNL     1      -2.320  -5.141  -6.613  0.00  0.00    +0.044 C 
ATOM     33  C   UNL     1      -1.805  -5.221  -5.199  0.00  0.00    -0.048 A 
ATOM     34  C   UNL     1      -1.952  -6.389  -4.475  0.00  0.00    +0.004 A 
ATOM     35  C   UNL     1      -1.479  -6.463  -3.178  0.00  0.00    +0.005 A 
ATOM     36  C   UNL     1      -0.861  -5.368  -2.605  0.00  0.00    -0.030 A 
ATOM     37  C   UNL     1      -0.713  -4.200  -3.329  0.00  0.00    +0.008 A 
ATOM     38  C   UNL     1      -1.182  -4.127  -4.627  0.00  0.00    -0.047 A 
ATOM     39  C   UNL     1      -1.017  -2.855  -5.418  0.00  0.00    +0.044 C 
ENDBRANCH  31  36
ENDBRANCH  27  31
ENDBRANCH   1  28
TORSDOF 5
