REMARK  Name = ZINC07449653
REMARK  8 active torsions:
REMARK  status: ('A' for Active; 'I' for Inactive)
REMARK    1  A    between atoms: C_1  and  C_2
REMARK    2  A    between atoms: C_3  and  N_9
REMARK    3  A    between atoms: C_10  and  C_12
REMARK    4  A    between atoms: C_12  and  C_14
REMARK    5  A    between atoms: C_12  and  S_15
REMARK    6  A    between atoms: S_15  and  C_16
REMARK    7  A    between atoms: C_19  and  C_22
REMARK    8  A    between atoms: N_20  and  N_21
REMARK                            x       y       z     vdW  Elec       q    Type
REMARK                         _______ _______ _______ _____ _____    ______ ____
ROOT
ATOM      1  C   UNL     1       0.192   0.111  -4.876  0.00  0.00    +0.137 C 
ATOM      2  C   UNL     1       1.650   0.497  -5.133  0.00  0.00    +0.029 C 
ENDROOT
BRANCH   1   4
ATOM      3  N   UNL     1      -0.010   0.011  -2.413  0.00  0.00    -0.284 N 
ATOM      4  C   UNL     1       0.095  -0.653  -3.581  0.00  0.00    +0.230 C 
ATOM      5  O   UNL     1       0.112  -1.866  -3.590  0.00  0.00    -0.274 OA
ATOM      6  H   UNL     1      -0.104   0.977  -2.411  0.00  0.00    +0.155 HD
BRANCH   3   9
ATOM      7  C   UNL     1      -1.263   1.190  -0.146  0.00  0.00    +0.047 C 
ATOM      8  C   UNL     1      -0.583  -0.153  -0.073  0.00  0.00    -0.011 A 
ATOM      9  C   UNL     1       0.017  -0.692  -1.204  0.00  0.00    +0.038 A 
ATOM     10  C   UNL     1       0.643  -1.929  -1.132  0.00  0.00    +0.023 A 
ATOM     11  C   UNL     1       0.667  -2.621   0.064  0.00  0.00    +0.003 A 
ATOM     12  C   UNL     1       0.069  -2.084   1.188  0.00  0.00    +0.020 A 
ATOM     13  C   UNL     1      -0.550  -0.848   1.122  0.00  0.00    +0.046 A 
ATOM     14 CL   UNL     1      -1.293  -0.173   2.538  0.00  0.00    -0.083 Cl
ENDBRANCH   3   9
ENDBRANCH   1   4
BRANCH   1  15
ATOM     15  S   UNL     1      -0.407  -0.928  -6.237  0.00  0.00    -0.072 S 
BRANCH  15  16
ATOM     16  C   UNL     1      -0.371   0.141  -7.638  0.00  0.00    +0.209 A 
ATOM     17  N   UNL     1       0.016   1.397  -7.649  0.00  0.00    -0.120 NA
ATOM     18  N   UNL     1      -0.085   1.880  -8.836  0.00  0.00    -0.123 NA
ATOM     19  C   UNL     1      -0.543   0.961  -9.657  0.00  0.00    +0.217 A 
ATOM     20  N   UNL     1      -0.735  -0.184  -8.915  0.00  0.00    -0.221 N 
BRANCH  19  21
ATOM     21  C   UNL     1      -0.797   1.122 -11.097  0.00  0.00    +0.173 A 
ATOM     22  C   UNL     1      -0.337   2.136 -11.882  0.00  0.00    +0.053 A 
ATOM     23  C   UNL     1      -0.817   1.892 -13.183  0.00  0.00    +0.042 A 
ATOM     24  C   UNL     1      -1.538   0.754 -13.132  0.00  0.00    +0.196 A 
ATOM     25  O   UNL     1      -1.520   0.289 -11.872  0.00  0.00    -0.460 OA
ENDBRANCH  19  21
BRANCH  20  26
ATOM     26  N   UNL     1      -1.195  -1.390  -9.360  0.00  0.00    -0.294 N 
ATOM     27  H   UNL     1      -2.201  -1.440  -9.296  0.00  0.00    +0.163 HD
ATOM     28  H   UNL     1      -0.884  -1.570 -10.303  0.00  0.00    +0.163 HD
ENDBRANCH  20  26
ENDBRANCH  15  16
ENDBRANCH   1  15
TORSDOF 6
