REMARK  Name = ZINC36571245
REMARK  12 active torsions:
REMARK  status: ('A' for Active; 'I' for Inactive)
REMARK    1  A    between atoms: C_1  and  C_2
REMARK    2  A    between atoms: C_2  and  C_3
REMARK    3  A    between atoms: C_3  and  N_4
REMARK    4  A    between atoms: N_4  and  C_5
REMARK    5  A    between atoms: C_5  and  C_7
REMARK    6  A    between atoms: C_5  and  C_20
REMARK    7  A    between atoms: C_7  and  C_8
REMARK    8  A    between atoms: C_7  and  C_14
REMARK    9  A    between atoms: N_22  and  C_23
REMARK   10  A    between atoms: C_29  and  C_31
REMARK   11  A    between atoms: C_35  and  O_38
REMARK   12  A    between atoms: C_36  and  O_37
REMARK                            x       y       z     vdW  Elec       q    Type
REMARK                         _______ _______ _______ _____ _____    ______ ____
ROOT
ATOM      1  C   UNL     1      -1.105  -2.350   1.316  0.00  0.00    +0.174 C 
ENDROOT
BRANCH   1   2
ATOM      2  C   UNL     1       0.096  -1.849   2.076  0.00  0.00    +0.235 C 
ATOM      3  O   UNL     1       0.743  -0.918   1.642  0.00  0.00    -0.274 OA
ATOM      4  N   UNL     1       0.452  -2.434   3.236  0.00  0.00    -0.311 N 
ATOM      5  H   UNL     1      -0.065  -3.178   3.583  0.00  0.00    +0.149 HD
BRANCH   4   6
ATOM      6  C   UNL     1       1.620  -1.946   3.975  0.00  0.00    +0.073 C 
ATOM      7  C   UNL     1       2.885  -2.607   3.423  0.00  0.00    +0.022 C 
ATOM      8  C   UNL     1       4.104  -2.098   4.194  0.00  0.00    +0.002 C 
ATOM      9  C   UNL     1       3.952  -2.445   5.676  0.00  0.00    +0.000 C 
ATOM     10  C   UNL     1       2.687  -1.784   6.228  0.00  0.00    +0.002 C 
ATOM     11  C   UNL     1       1.468  -2.294   5.457  0.00  0.00    +0.022 C 
ENDBRANCH   4   6
ENDBRANCH   1   2
BRANCH   1  12
ATOM     12  N   UNL     1      -1.030  -1.894  -0.074  0.00  0.00    -0.285 N 
ATOM     13  C   UNL     1      -0.974  -2.792  -1.076  0.00  0.00    +0.251 C 
ATOM     14  O   UNL     1      -0.901  -3.980  -0.825  0.00  0.00    -0.270 OA
BRANCH  13  15
ATOM     15  C   UNL     1      -1.001  -2.336  -2.479  0.00  0.00    +0.082 A 
ATOM     16  C   UNL     1      -0.047  -1.423  -2.939  0.00  0.00    +0.017 A 
ATOM     17  C   UNL     1      -0.076  -0.999  -4.250  0.00  0.00    +0.005 A 
ATOM     18  C   UNL     1      -1.046  -1.473  -5.117  0.00  0.00    +0.049 A 
ATOM     19  C   UNL     1      -1.998  -2.376  -4.677  0.00  0.00    +0.159 A 
ATOM     20  C   UNL     1      -1.979  -2.818  -3.357  0.00  0.00    +0.171 A 
BRANCH  20  21
ATOM     21  O   UNL     1      -2.906  -3.709  -2.922  0.00  0.00    -0.503 OA
ATOM     22  H   UNL     1      -3.708  -3.300  -2.569  0.00  0.00    +0.292 HD
ENDBRANCH  20  21
BRANCH  19  23
ATOM     23  O   UNL     1      -2.948  -2.836  -5.534  0.00  0.00    -0.503 OA
ATOM     24  H   UNL     1      -2.693  -3.638  -6.010  0.00  0.00    +0.292 HD
ENDBRANCH  19  23
ENDBRANCH  13  15
BRANCH  12  25
ATOM     25  C   UNL     1      -1.015  -0.460  -0.374  0.00  0.00    +0.108 C 
BRANCH  25  27
ATOM     26  C   UNL     1      -2.417   1.502  -1.028  0.00  0.00    +0.005 C 
ATOM     27  C   UNL     1      -2.434   0.006  -0.708  0.00  0.00    +0.016 C 
ENDBRANCH  25  27
ENDBRANCH  12  25
ENDBRANCH   1  12
BRANCH   1  28
ATOM     28  C   UNL     1      -2.381  -1.808   1.963  0.00  0.00    +0.078 C 
BRANCH  28  29
ATOM     29  C   UNL     1      -3.582  -2.309   1.204  0.00  0.00    -0.038 A 
ATOM     30  C   UNL     1      -3.642  -3.630   0.800  0.00  0.00    +0.004 A 
ATOM     31  C   UNL     1      -4.744  -4.090   0.104  0.00  0.00    +0.000 A 
ATOM     32  C   UNL     1      -5.785  -3.230  -0.189  0.00  0.00    +0.000 A 
ATOM     33  C   UNL     1      -5.725  -1.909   0.215  0.00  0.00    +0.000 A 
ATOM     34  C   UNL     1      -4.625  -1.450   0.915  0.00  0.00    +0.004 A 
ENDBRANCH  28  29
BRANCH  28  35
ATOM     35  C   UNL     1      -2.458  -2.277   3.393  0.00  0.00    -0.038 A 
ATOM     36  C   UNL     1      -2.503  -3.630   3.675  0.00  0.00    +0.004 A 
ATOM     37  C   UNL     1      -2.574  -4.061   4.986  0.00  0.00    +0.000 A 
ATOM     38  C   UNL     1      -2.600  -3.140   6.016  0.00  0.00    +0.000 A 
ATOM     39  C   UNL     1      -2.554  -1.787   5.735  0.00  0.00    +0.000 A 
ATOM     40  C   UNL     1      -2.478  -1.356   4.423  0.00  0.00    +0.004 A 
ENDBRANCH  28  35
ENDBRANCH   1  28
TORSDOF 11
