REMARK  Name = ZINC16167821
REMARK  8 active torsions:
REMARK  status: ('A' for Active; 'I' for Inactive)
REMARK    1  A    between atoms: C_1  and  O_2
REMARK    2  A    between atoms: O_2  and  C_3
REMARK    3  A    between atoms: C_6  and  N_9
REMARK    4  A    between atoms: C_13  and  C_15
REMARK    5  A    between atoms: C_15  and  O_16
REMARK    6  A    between atoms: O_16  and  C_17
REMARK    7  A    between atoms: C_17  and  C_19
REMARK    8  A    between atoms: C_19  and  C_24
REMARK                            x       y       z     vdW  Elec       q    Type
REMARK                         _______ _______ _______ _____ _____    ______ ____
ROOT
ATOM      1  O   UNL     1       4.911   1.051   1.188  0.00  0.00    -0.455 OA
ENDROOT
BRANCH   1   2
ATOM      2  C   UNL     1       4.549  -0.239   1.112  0.00  0.00    +0.318 C 
ATOM      3  O   UNL     1       4.930  -1.024   1.948  0.00  0.00    -0.250 OA
BRANCH   2   4
ATOM      4  C   UNL     1       3.668  -0.710  -0.017  0.00  0.00    +0.093 C 
ATOM      5  C   UNL     1       4.379  -0.494  -1.369  0.00  0.00    +0.023 C 
ATOM      6  C   UNL     1       5.037  -1.863  -1.674  0.00  0.00    +0.001 C 
ATOM      7  C   UNL     1       3.976  -2.873  -1.170  0.00  0.00    +0.001 C 
ATOM      8  C   UNL     1       3.412  -2.222   0.109  0.00  0.00    +0.023 C 
BRANCH   4   9
ATOM      9  C   UNL     1       2.360   0.039   0.004  0.00  0.00    -0.027 A 
ATOM     10  C   UNL     1       1.452  -0.131  -1.024  0.00  0.00    +0.008 A 
ATOM     11  C   UNL     1       0.252   0.555  -1.010  0.00  0.00    +0.050 A 
ATOM     12  C   UNL     1      -0.044   1.415   0.037  0.00  0.00    +0.162 A 
ATOM     13  C   UNL     1       0.868   1.584   1.072  0.00  0.00    +0.162 A 
ATOM     14  C   UNL     1       2.071   0.894   1.050  0.00  0.00    +0.054 A 
ATOM     15  O   UNL     1       0.594   2.417   2.112  0.00  0.00    -0.485 OA
ATOM     16  C   UNL     1      -0.453   3.373   1.913  0.00  0.00    +0.270 C 
ATOM     17  C   UNL     1      -1.650   2.651   1.281  0.00  0.00    +0.270 C 
ATOM     18  O   UNL     1      -1.226   2.090   0.033  0.00  0.00    -0.485 OA
ENDBRANCH   4   9
ENDBRANCH   2   4
ENDBRANCH   1   2
BRANCH   1  19
ATOM     19  C   UNL     1       5.761   1.433   2.301  0.00  0.00    +0.328 C 
BRANCH  19  24
ATOM     20  N   UNL     1       7.883   5.389   4.021  0.00  0.00    -0.269 N 
ATOM     21  C   UNL     1       7.106   4.808   3.086  0.00  0.00    +0.310 C 
ATOM     22  O   UNL     1       6.648   5.473   2.178  0.00  0.00    -0.252 OA
ATOM     23  N   UNL     1       6.838   3.489   3.157  0.00  0.00    -0.237 N 
ATOM     24  C   UNL     1       6.061   2.908   2.221  0.00  0.00    +0.258 C 
ATOM     25  O   UNL     1       5.604   3.571   1.315  0.00  0.00    -0.272 OA
ATOM     26  H   UNL     1       8.313   4.846   4.700  0.00  0.00    +0.156 HD
ATOM     27  H   UNL     1       7.204   2.958   3.882  0.00  0.00    +0.159 HD
BRANCH  20  31
ATOM     28  C   UNL     1       8.436   9.522   3.999  0.00  0.00    +0.120 A 
ATOM     29  C   UNL     1       7.217   8.983   3.613  0.00  0.00    +0.047 A 
ATOM     30  C   UNL     1       7.034   7.615   3.620  0.00  0.00    +0.027 A 
ATOM     31  C   UNL     1       8.069   6.778   4.013  0.00  0.00    +0.035 A 
ATOM     32  C   UNL     1       9.287   7.317   4.404  0.00  0.00    +0.027 A 
ATOM     33  C   UNL     1       9.471   8.686   4.392  0.00  0.00    +0.047 A 
BRANCH  28  35
ATOM     34  C   UNL     1       9.896  11.355   4.402  0.00  0.00    +0.277 C 
ATOM     35  O   UNL     1       8.616  10.870   3.992  0.00  0.00    -0.495 OA
ENDBRANCH  28  35
ENDBRANCH  20  31
ENDBRANCH  19  24
ENDBRANCH   1  19
TORSDOF 7
