REMARK  Name = ZINC03568828
REMARK  6 active torsions:
REMARK  status: ('A' for Active; 'I' for Inactive)
REMARK    1  A    between atoms: C_5  and  C_7
REMARK    2  A    between atoms: C_7  and  N_8
REMARK    3  A    between atoms: N_13  and  C_14
REMARK    4  A    between atoms: C_14  and  C_16
REMARK    5  A    between atoms: C_16  and  S_17
REMARK    6  A    between atoms: S_17  and  C_18
REMARK                            x       y       z     vdW  Elec       q    Type
REMARK                         _______ _______ _______ _____ _____    ______ ____
ROOT
ATOM      1  N   UNL     1      -3.001   0.816   1.392  0.00  0.00    -0.324 N 
ATOM      2  C   UNL     1      -2.555  -0.208   2.165  0.00  0.00    +0.095 A 
ATOM      3  C   UNL     1      -3.008  -0.310   3.419  0.00  0.00    +0.066 A 
ATOM      4  S   UNL     1      -4.121   1.081   3.524  0.00  0.00    -0.061 S 
ATOM      5  C   UNL     1      -3.901   1.695   1.916  0.00  0.00    +0.166 A 
ATOM      6  N   UNL     1      -4.469   2.757   1.340  0.00  0.00    -0.156 NA
ENDROOT
BRANCH   6   7
ATOM      7  C   UNL     1      -5.332   3.499   2.021  0.00  0.00    +0.249 C 
ATOM      8  O   UNL     1      -5.606   3.212   3.171  0.00  0.00    -0.273 OA
BRANCH   7   9
ATOM      9  C   UNL     1      -5.972   4.698   1.371  0.00  0.00    +0.175 C 
BRANCH   9  10
ATOM     10  S   UNL     1      -7.094   5.498   2.550  0.00  0.00    -0.075 S 
BRANCH  10  11
ATOM     11  C   UNL     1      -7.755   6.863   1.651  0.00  0.00    +0.210 A 
ATOM     12  N   UNL     1      -8.664   7.769   2.120  0.00  0.00    -0.188 NA
ATOM     13  H   UNL     1      -8.107   8.768  -0.924  0.00  0.00    +0.192 HD
ATOM     14  C   UNL     1      -8.919   8.666   1.122  0.00  0.00    +0.209 A 
ATOM     15  N   UNL     1      -8.202   8.327   0.080  0.00  0.00    -0.246 N 
ATOM     16  N   UNL     1      -7.461   7.186   0.416  0.00  0.00    -0.144 NA
ATOM     17  N   UNL     1      -9.787   9.748   1.199  0.00  0.00    -0.328 N 
ATOM     18  H   UNL     1      -9.919  10.410   0.331  0.00  0.00    +0.145 HD
ATOM     19  H   UNL     1     -10.344   9.942   2.128  0.00  0.00    +0.145 HD
ENDBRANCH  10  11
ENDBRANCH   9  10
ENDBRANCH   7   9
ENDBRANCH   6   7
BRANCH   1  20
ATOM     20  C   UNL     1      -2.527   0.969   0.014  0.00  0.00    +0.160 C 
BRANCH  20  25
ATOM     21  C   UNL     1      -0.583   4.187  -0.326  0.00  0.00    +0.000 A 
ATOM     22  C   UNL     1       0.707   3.759  -0.073  0.00  0.00    +0.001 A 
ATOM     23  C   UNL     1       0.952   2.428   0.206  0.00  0.00    +0.020 A 
ATOM     24  C   UNL     1      -0.095   1.523   0.231  0.00  0.00    +0.046 A 
ATOM     25  C   UNL     1      -1.386   1.953  -0.018  0.00  0.00    -0.009 A 
ATOM     26  C   UNL     1      -1.629   3.284  -0.302  0.00  0.00    +0.007 A 
ATOM     27 CL   UNL     1       0.211  -0.149   0.581  0.00  0.00    -0.083 Cl
ENDBRANCH  20  25
ENDBRANCH   1  20
TORSDOF 6
