REMARK  Name = ZINC12488755
REMARK  15 active torsions:
REMARK  status: ('A' for Active; 'I' for Inactive)
REMARK    1  A    between atoms: C_1  and  C_2
REMARK    2  A    between atoms: C_2  and  C_3
REMARK    3  A    between atoms: C_3  and  C_4
REMARK    4  A    between atoms: C_3  and  C_5
REMARK    5  A    between atoms: C_3  and  N_6
REMARK    6  A    between atoms: C_7  and  C_9
REMARK    7  A    between atoms: C_9  and  C_11
REMARK    8  A    between atoms: C_9  and  N_18
REMARK    9  A    between atoms: C_14  and  C_17
REMARK   10  A    between atoms: N_18  and  C_19
REMARK   11  A    between atoms: C_19  and  C_20
REMARK   12  A    between atoms: C_20  and  N_74
REMARK   13  A    between atoms: C_26  and  C_28
REMARK   14  A    between atoms: C_28  and  N_29
REMARK   15  A    between atoms: C_30  and  C_32
REMARK                            x       y       z     vdW  Elec       q    Type
REMARK                         _______ _______ _______ _____ _____    ______ ____
ROOT
ATOM      1  N   UNL     1      -1.138  -0.275  -0.649  0.00  0.00    -0.286 N 
ATOM      2  C   UNL     1      -1.162  -1.225  -1.605  0.00  0.00    +0.234 C 
ATOM      3  O   UNL     1      -0.122  -1.667  -2.047  0.00  0.00    -0.274 OA
ENDROOT
BRANCH   1   4
ATOM      4  C   UNL     1       0.143   0.224  -0.144  0.00  0.00    +0.192 C 
BRANCH   4   5
ATOM      5  C   UNL     1       0.926   0.837  -1.276  0.00  0.00    -0.018 A 
ATOM      6  C   UNL     1       0.266   1.510  -2.288  0.00  0.00    +0.006 A 
ATOM      7  C   UNL     1       0.984   2.077  -3.324  0.00  0.00    +0.004 A 
ATOM      8  C   UNL     1       2.361   1.963  -3.353  0.00  0.00    -0.050 A 
ATOM      9  C   UNL     1       3.021   1.286  -2.345  0.00  0.00    +0.004 A 
ATOM     10  C   UNL     1       2.303   0.723  -1.306  0.00  0.00    +0.006 A 
ATOM     11  C   UNL     1       3.144   2.576  -4.486  0.00  0.00    +0.044 C 
ENDBRANCH   4   5
BRANCH   4  13
ATOM     12  N   UNL     1       0.932   1.904   1.491  0.00  0.00    -0.308 N 
ATOM     13  C   UNL     1      -0.106   1.265   0.917  0.00  0.00    +0.238 C 
ATOM     14  O   UNL     1      -1.242   1.528   1.254  0.00  0.00    -0.273 OA
ATOM     15  H   UNL     1       1.840   1.694   1.222  0.00  0.00    +0.149 HD
BRANCH  12  16
ATOM     16  C   UNL     1       0.690   2.917   2.522  0.00  0.00    +0.029 C 
ATOM     17  C   UNL     1      -0.162   4.045   1.938  0.00  0.00    +0.031 C 
ATOM     18  C   UNL     1      -0.049   2.278   3.700  0.00  0.00    +0.031 C 
BRANCH  16  20
ATOM     19  C   UNL     1       1.773   4.541   4.081  0.00  0.00    +0.006 C 
ATOM     20  C   UNL     1       2.026   3.484   3.004  0.00  0.00    +0.022 C 
ENDBRANCH  16  20
ENDBRANCH  12  16
ENDBRANCH   4  13
ENDBRANCH   1   4
BRANCH   1  21
ATOM     21  C   UNL     1      -2.394   0.259  -0.116  0.00  0.00    +0.090 C 
BRANCH  21  22
ATOM     22  C   UNL     1      -2.611   1.678  -0.647  0.00  0.00    -0.059 C 
BRANCH  22  28
ATOM     23  C   UNL     1      -5.019   1.554  -0.416  0.00  0.00    -0.050 C 
ATOM     24  C   UNL     1      -6.221   2.156   0.316  0.00  0.00    +0.141 C 
ATOM     25  O   UNL     1      -6.289   3.557   0.037  0.00  0.00    -0.383 OA
ATOM     26  C   UNL     1      -5.116   4.279   0.422  0.00  0.00    +0.141 C 
ATOM     27  C   UNL     1      -3.903   3.698  -0.309  0.00  0.00    -0.050 C 
ATOM     28  N   UNL     1      -3.796   2.261   0.019  0.00  0.00    +0.384 N 
ATOM     29  H   UNL     1      -3.693   2.156   1.035  0.00  0.00    -0.082 HD
ENDBRANCH  22  28
ENDBRANCH  21  22
ENDBRANCH   1  21
BRANCH   2  30
ATOM     30  C   UNL     1      -2.480  -1.738  -2.126  0.00  0.00    +0.200 C 
BRANCH  30  31
ATOM     31  N   UNL     1      -2.237  -2.757  -3.150  0.00  0.00    -0.302 N 
ATOM     32  C   UNL     1      -3.277  -3.360  -3.760  0.00  0.00    +0.251 C 
ATOM     33  O   UNL     1      -4.417  -3.058  -3.460  0.00  0.00    -0.270 OA
ATOM     34  H   UNL     1      -1.329  -2.997  -3.389  0.00  0.00    +0.150 HD
BRANCH  32  35
ATOM     35  C   UNL     1      -3.034  -4.379  -4.785  0.00  0.00    +0.074 A 
ATOM     36  C   UNL     1      -3.951  -5.115  -5.520  0.00  0.00    +0.021 A 
ATOM     37  C   UNL     1      -3.447  -6.013  -6.428  0.00  0.00    +0.008 A 
ATOM     38  C   UNL     1      -2.101  -6.144  -6.555  0.00  0.00    +0.046 A 
ATOM     39  S   UNL     1      -1.482  -5.002  -5.406  0.00  0.00    -0.092 S 
ENDBRANCH  32  35
ENDBRANCH  30  31
ENDBRANCH   2  30
TORSDOF 11
