REMARK  Name = ZINC15240594
REMARK  9 active torsions:
REMARK  status: ('A' for Active; 'I' for Inactive)
REMARK    1  A    between atoms: C_1  and  C_2
REMARK    2  A    between atoms: C_6  and  C_28
REMARK    3  A    between atoms: C_7  and  O_8
REMARK    4  A    between atoms: O_8  and  C_9
REMARK    5  A    between atoms: C_9  and  C_10
REMARK    6  A    between atoms: C_10  and  C_12
REMARK    7  A    between atoms: C_10  and  O_27
REMARK    8  A    between atoms: C_12  and  N_13
REMARK    9  A    between atoms: C_20  and  N_24
REMARK                            x       y       z     vdW  Elec       q    Type
REMARK                         _______ _______ _______ _____ _____    ______ ____
ROOT
ATOM      1  C   UNL     1      -2.397   1.238   4.953  0.00  0.00    +0.151 C 
ENDROOT
BRANCH   1   2
ATOM      2  N   UNL     1      -2.203   1.958   6.213  0.00  0.00    -0.231 N 
ATOM      3  C   UNL     1      -1.982   1.367   7.402  0.00  0.00    +0.254 C 
ATOM      4  O   UNL     1      -1.913   0.170   7.596  0.00  0.00    -0.270 OA
ATOM      5  C   UNL     1      -1.836   2.417   8.431  0.00  0.00    +0.052 A 
ATOM      6  C   UNL     1      -1.603   2.409   9.796  0.00  0.00    +0.014 A 
ATOM      7  C   UNL     1      -1.520   3.607  10.487  0.00  0.00    +0.003 A 
ATOM      8  C   UNL     1      -1.669   4.811   9.823  0.00  0.00    +0.033 A 
ATOM      9  C   UNL     1      -1.903   4.835   8.457  0.00  0.00    +0.139 A 
ATOM     10  C   UNL     1      -1.988   3.644   7.754  0.00  0.00    +0.080 A 
ATOM     11  C   UNL     1      -2.215   3.298   6.335  0.00  0.00    +0.256 C 
ATOM     12  O   UNL     1      -2.387   4.090   5.430  0.00  0.00    -0.269 OA
BRANCH   9  13
ATOM     13  N   UNL     1      -2.061   6.127   7.753  0.00  0.00    +0.057 N 
ATOM     14  O   UNL     1      -1.986   7.165   8.370  0.00  0.00    -0.126 OA
ATOM     15  O   UNL     1      -2.265   6.146   6.562  0.00  0.00    -0.126 OA
ENDBRANCH   9  13
ENDBRANCH   1   2
BRANCH   1  16
ATOM     16  C   UNL     1      -1.043   1.022   4.274  0.00  0.00    +0.170 C 
BRANCH  16  17
ATOM     17  O   UNL     1      -0.435   2.289   4.011  0.00  0.00    -0.387 OA
ATOM     18  H   UNL     1      -0.956   2.862   3.432  0.00  0.00    +0.210 HD
ENDBRANCH  16  17
BRANCH  16  19
ATOM     19  C   UNL     1      -1.246   0.270   2.957  0.00  0.00    +0.262 C 
BRANCH  19  20
ATOM     20  O   UNL     1       0.025  -0.033   2.381  0.00  0.00    -0.489 OA
BRANCH  20  27
ATOM     21  C   UNL     1      -0.018   1.503   0.010  0.00  0.00    +0.047 C 
ATOM     22  C   UNL     1       0.002  -0.004   0.002  0.00  0.00    -0.009 A 
ATOM     23  C   UNL     1       0.006  -0.689  -1.198  0.00  0.00    +0.007 A 
ATOM     24  C   UNL     1       0.024  -2.071  -1.206  0.00  0.00    +0.001 A 
ATOM     25  C   UNL     1       0.040  -2.772  -0.014  0.00  0.00    +0.007 A 
ATOM     26  C   UNL     1       0.036  -2.092   1.188  0.00  0.00    -0.009 A 
ATOM     27  C   UNL     1       0.023  -0.705   1.199  0.00  0.00    +0.126 A 
ATOM     28  C   UNL     1       0.052  -2.856   2.487  0.00  0.00    +0.047 C 
ENDBRANCH  20  27
ENDBRANCH  19  20
ENDBRANCH  16  19
ENDBRANCH   1  16
TORSDOF 7
