REMARK  Name = ZINC41586081
REMARK  8 active torsions:
REMARK  status: ('A' for Active; 'I' for Inactive)
REMARK    1  A    between atoms: C_1  and  C_2
REMARK    2  A    between atoms: C_2  and  O_3
REMARK    3  A    between atoms: O_3  and  C_4
REMARK    4  A    between atoms: N_9  and  C_12
REMARK    5  A    between atoms: C_12  and  C_13
REMARK    6  A    between atoms: C_14  and  O_32
REMARK    7  A    between atoms: C_21  and  C_22
REMARK    8  A    between atoms: C_23  and  C_24
REMARK                            x       y       z     vdW  Elec       q    Type
REMARK                         _______ _______ _______ _____ _____    ______ ____
ROOT
ATOM      1  C   UNL     1      -6.565  -5.241   1.667  0.00  0.00    +0.051 A 
ATOM      2  C   UNL     1      -7.627  -5.455   0.803  0.00  0.00    +0.125 A 
ATOM      3  C   UNL     1      -8.037  -6.749   0.491  0.00  0.00    +0.046 A 
ATOM      4  C   UNL     1      -7.393  -7.823   1.038  0.00  0.00    +0.019 A 
ATOM      5  C   UNL     1      -6.323  -7.623   1.909  0.00  0.00    +0.068 A 
ATOM      6  C   UNL     1      -5.897  -6.323   2.227  0.00  0.00    +0.147 A 
ATOM      7  O   UNL     1      -4.849  -6.383   3.077  0.00  0.00    -0.451 OA
ATOM      8  C   UNL     1      -4.512  -7.660   3.370  0.00  0.00    +0.176 C 
ATOM      9  C   UNL     1      -3.501  -8.057   4.196  0.00  0.00    +0.050 C 
ATOM     10  C   UNL     1      -5.439  -8.541   2.650  0.00  0.00    +0.231 C 
ATOM     11  O   UNL     1      -5.463  -9.760   2.653  0.00  0.00    -0.283 OA
ENDROOT
BRANCH   9  12
ATOM     12  C   UNL     1      -2.694  -7.095   4.835  0.00  0.00    +0.004 C 
ATOM     13  C   UNL     1      -1.690  -7.489   5.654  0.00  0.00    +0.008 C 
BRANCH  13  14
ATOM     14  C   UNL     1      -0.848  -6.485   6.320  0.00  0.00    -0.025 A 
ATOM     15  C   UNL     1      -1.083  -5.121   6.114  0.00  0.00    +0.008 A 
ATOM     16  C   UNL     1      -0.289  -4.186   6.743  0.00  0.00    +0.001 A 
ATOM     17  C   UNL     1       0.740  -4.593   7.575  0.00  0.00    +0.000 A 
ATOM     18  C   UNL     1       0.980  -5.941   7.784  0.00  0.00    +0.001 A 
ATOM     19  C   UNL     1       0.190  -6.888   7.168  0.00  0.00    +0.008 A 
ENDBRANCH  13  14
ENDBRANCH   9  12
BRANCH   2  20
ATOM     20  O   UNL     1      -8.274  -4.395   0.255  0.00  0.00    -0.506 OA
ATOM     21  H   UNL     1      -7.902  -4.100  -0.587  0.00  0.00    +0.292 HD
ENDBRANCH   2  20
BRANCH   1  22
ATOM     22  C   UNL     1      -6.133  -3.836   1.995  0.00  0.00    +0.127 C 
BRANCH  22  28
ATOM     23  C   UNL     1      -1.497  -1.836   0.006  0.00  0.00    +0.403 C 
ATOM     24  O   UNL     1      -0.523  -2.563  -0.007  0.00  0.00    -0.226 OA
ATOM     25  N   UNL     1      -2.735  -2.368   0.015  0.00  0.00    -0.265 N 
ATOM     26  C   UNL     1      -3.927  -1.506   0.025  0.00  0.00    +0.126 C 
ATOM     27  C   UNL     1      -4.846  -1.960   1.164  0.00  0.00    +0.104 C 
ATOM     28  N   UNL     1      -5.120  -3.397   1.026  0.00  0.00    -0.295 NA
ATOM     29  C   UNL     1      -3.889  -4.188   1.155  0.00  0.00    +0.104 C 
ATOM     30  C   UNL     1      -2.930  -3.825   0.009  0.00  0.00    +0.126 C 
BRANCH  23  31
ATOM     31  O   UNL     1      -1.339  -0.499   0.012  0.00  0.00    -0.451 OA
BRANCH  31  33
ATOM     32  C   UNL     1      -0.019   1.526   0.010  0.00  0.00    +0.048 C 
ATOM     33  C   UNL     1       0.002  -0.004   0.002  0.00  0.00    +0.230 C 
ENDBRANCH  31  33
ENDBRANCH  23  31
ENDBRANCH  22  28
ENDBRANCH   1  22
TORSDOF 7
