REMARK  Name = ZINC08709140
REMARK  10 active torsions:
REMARK  status: ('A' for Active; 'I' for Inactive)
REMARK    1  A    between atoms: C_1  and  N_2
REMARK    2  A    between atoms: N_2  and  C_3
REMARK    3  A    between atoms: C_6  and  S_12
REMARK    4  A    between atoms: C_8  and  N_9
REMARK    5  A    between atoms: S_12  and  N_15
REMARK    6  A    between atoms: C_18  and  C_21
REMARK    7  A    between atoms: N_23  and  C_24
REMARK    8  A    between atoms: C_24  and  C_25
REMARK    9  A    between atoms: C_25  and  C_26
REMARK   10  A    between atoms: C_26  and  C_27
REMARK                            x       y       z     vdW  Elec       q    Type
REMARK                         _______ _______ _______ _____ _____    ______ ____
ROOT
ATOM      1  N   UNL     1       0.428  -0.534  -0.957  0.00  0.00    -0.177 NA
ATOM      2  C   UNL     1      -0.456  -0.027   0.102  0.00  0.00    +0.110 C 
ATOM      3  C   UNL     1      -0.396   1.504   0.102  0.00  0.00    +0.030 C 
ATOM      4  C   UNL     1       1.061   1.954   0.231  0.00  0.00    +0.077 C 
ATOM      5  C   UNL     1       1.863   1.440  -0.966  0.00  0.00    +0.030 C 
ATOM      6  C   UNL     1       1.829  -0.092  -0.979  0.00  0.00    +0.110 C 
ENDROOT
BRANCH   4   7
ATOM      7  C   UNL     1       1.120   3.459   0.266  0.00  0.00    +0.216 C 
ATOM      8  O   UNL     1       0.098   4.108   0.195  0.00  0.00    -0.276 OA
ATOM      9  N   UNL     1       2.309   4.084   0.377  0.00  0.00    -0.315 N 
ATOM     10  H   UNL     1       3.126   3.565   0.433  0.00  0.00    +0.149 HD
BRANCH   9  11
ATOM     11  C   UNL     1       2.366   5.548   0.410  0.00  0.00    +0.104 C 
BRANCH  11  12
ATOM     12  C   UNL     1       3.823   5.998   0.539  0.00  0.00    +0.023 C 
BRANCH  12  13
ATOM     13  C   UNL     1       3.883   7.526   0.575  0.00  0.00    +0.036 C 
BRANCH  13  14
ATOM     14  C   UNL     1       5.318   7.970   0.702  0.00  0.00    -0.047 A 
ATOM     15  C   UNL     1       5.876   8.155   1.953  0.00  0.00    +0.003 A 
ATOM     16  C   UNL     1       7.193   8.557   2.070  0.00  0.00    +0.000 A 
ATOM     17  C   UNL     1       7.950   8.784   0.935  0.00  0.00    +0.000 A 
ATOM     18  C   UNL     1       7.390   8.604  -0.316  0.00  0.00    +0.000 A 
ATOM     19  C   UNL     1       6.074   8.197  -0.432  0.00  0.00    +0.003 A 
ENDBRANCH  13  14
ENDBRANCH  12  13
ENDBRANCH  11  12
ENDBRANCH   9  11
ENDBRANCH   4   7
BRANCH   1  20
ATOM     20  S   UNL     1      -0.143  -1.584  -2.103  0.00  0.00    +0.061 S 
ATOM     21  O   UNL     1       0.981  -2.300  -2.595  0.00  0.00    -0.153 OA
ATOM     22  O   UNL     1      -1.270  -2.235  -1.531  0.00  0.00    -0.153 OA
BRANCH  20  26
ATOM     23  C   UNL     1      -1.700   0.911  -5.547  0.00  0.00    +0.058 A 
ATOM     24  C   UNL     1      -2.547   0.558  -4.504  0.00  0.00    +0.027 A 
ATOM     25  C   UNL     1      -2.071  -0.207  -3.458  0.00  0.00    +0.030 A 
ATOM     26  C   UNL     1      -0.749  -0.614  -3.442  0.00  0.00    +0.108 A 
ATOM     27  C   UNL     1       0.097  -0.265  -4.479  0.00  0.00    +0.063 A 
ATOM     28  C   UNL     1      -0.375   0.496  -5.531  0.00  0.00    +0.149 A 
BRANCH  23  30
ATOM     29  C   UNL     1      -3.540   2.223  -6.564  0.00  0.00    +0.125 C 
ATOM     30  N   UNL     1      -2.180   1.681  -6.609  0.00  0.00    -0.345 N 
ATOM     31  H   UNL     1      -1.613   1.856  -7.376  0.00  0.00    +0.146 HD
ENDBRANCH  23  30
BRANCH  28  32
ATOM     32  N   UNL     1       0.532   0.870  -6.640  0.00  0.00    +0.058 N 
ATOM     33  O   UNL     1       1.718   0.603  -6.573  0.00  0.00    -0.126 OA
ATOM     34  O   UNL     1       0.091   1.444  -7.619  0.00  0.00    -0.126 OA
ENDBRANCH  28  32
ENDBRANCH  20  26
ENDBRANCH   1  20
TORSDOF 9
