REMARK  Name = ZINC05413406
REMARK  7 active torsions:
REMARK  status: ('A' for Active; 'I' for Inactive)
REMARK    1  A    between atoms: C_3  and  C_6
REMARK    2  A    between atoms: C_13  and  C_15
REMARK    3  A    between atoms: N_17  and  C_18
REMARK    4  A    between atoms: C_18  and  C_20
REMARK    5  A    between atoms: C_18  and  C_27
REMARK    6  A    between atoms: C_20  and  C_21
REMARK    7  A    between atoms: C_30  and  C_32
REMARK                            x       y       z     vdW  Elec       q    Type
REMARK                         _______ _______ _______ _____ _____    ______ ____
ROOT
ATOM      1  C   UNL     1       1.998   7.885  -0.601  0.00  0.00    +0.254 C 
ATOM      2  O   UNL     1       2.489   7.162   0.247  0.00  0.00    -0.269 OA
ATOM      3  N   UNL     1       1.510   7.354  -1.739  0.00  0.00    -0.283 N 
ATOM      4  C   UNL     1       1.079   8.221  -2.845  0.00  0.00    +0.128 C 
ATOM      5  C   UNL     1      -0.372   7.876  -3.205  0.00  0.00    +0.127 C 
ATOM      6  N   UNL     1      -0.484   6.420  -3.362  0.00  0.00    -0.298 N 
ATOM      7  C   UNL     1      -0.057   5.553  -2.255  0.00  0.00    +0.139 C 
ATOM      8  C   UNL     1       1.394   5.897  -1.895  0.00  0.00    +0.179 C 
ATOM      9  C   UNL     1      -0.970   5.888  -4.501  0.00  0.00    +0.219 C 
ATOM     10  O   UNL     1      -1.041   4.683  -4.626  0.00  0.00    -0.275 OA
ENDROOT
BRANCH   9  11
ATOM     11  C   UNL     1      -1.427   6.790  -5.619  0.00  0.00    +0.072 C 
ATOM     12  C   UNL     1      -2.576   6.122  -6.378  0.00  0.00    -0.007 C 
ATOM     13  C   UNL     1      -2.994   7.014  -7.549  0.00  0.00    -0.082 C 
ATOM     14  C   UNL     1      -0.749   7.903  -7.748  0.00  0.00    -0.082 C 
ATOM     15  C   UNL     1      -0.264   7.037  -6.584  0.00  0.00    -0.007 C 
ATOM     16  N   UNL     1      -1.848   7.217  -8.455  0.00  0.00    +0.379 N 
ATOM     17  H   UNL     1      -2.145   7.789  -9.254  0.00  0.00    -0.086 HD
ATOM     18  H   UNL     1      -1.516   6.305  -8.790  0.00  0.00    -0.086 HD
ENDBRANCH   9  11
BRANCH   1  21
ATOM     19  C   UNL     1       2.424  11.466   0.485  0.00  0.00    +0.008 A 
ATOM     20  C   UNL     1       2.684  10.118   0.482  0.00  0.00    +0.021 A 
ATOM     21  C   UNL     1       1.939   9.334  -0.384  0.00  0.00    +0.074 A 
ATOM     22  S   UNL     1       0.895  10.547  -1.172  0.00  0.00    -0.092 S 
ATOM     23  C   UNL     1       1.468  11.959  -0.344  0.00  0.00    +0.046 A 
ENDBRANCH   1  21
BRANCH   8  24
ATOM     24  C   UNL     1       1.769   5.218  -0.603  0.00  0.00    +0.236 C 
ATOM     25  O   UNL     1       1.230   5.546   0.433  0.00  0.00    -0.274 OA
ATOM     26  N   UNL     1       2.704   4.247  -0.598  0.00  0.00    -0.302 N 
ATOM     27  H   UNL     1       3.135   3.985  -1.426  0.00  0.00    +0.150 HD
BRANCH  26  28
ATOM     28  C   UNL     1       3.068   3.588   0.658  0.00  0.00    +0.159 C 
BRANCH  28  29
ATOM     29  C   UNL     1       4.120   4.403   1.367  0.00  0.00    +0.231 C 
ATOM     30  O   UNL     1       4.524   5.433   0.871  0.00  0.00    -0.274 OA
ATOM     31  N   UNL     1       4.610   3.987   2.551  0.00  0.00    -0.328 N 
ATOM     32  H   UNL     1       4.286   3.163   2.948  0.00  0.00    +0.145 HD
ATOM     33  H   UNL     1       5.287   4.511   3.007  0.00  0.00    +0.145 HD
ENDBRANCH  28  29
BRANCH  28  34
ATOM     34  C   UNL     1       3.620   2.192   0.360  0.00  0.00    +0.035 C 
BRANCH  34  35
ATOM     35  C   UNL     1       2.518   1.329  -0.256  0.00  0.00    -0.009 C 
ATOM     36  C   UNL     1       3.111  -0.005  -0.715  0.00  0.00    +0.003 C 
ATOM     37  C   UNL     1       2.008  -0.868  -1.331  0.00  0.00    +0.000 C 
ATOM     38  C   UNL     1       0.919  -1.126  -0.287  0.00  0.00    +0.000 C 
ATOM     39  C   UNL     1       0.326   0.207   0.171  0.00  0.00    +0.000 C 
ATOM     40  C   UNL     1       1.429   1.071   0.787  0.00  0.00    +0.003 C 
ENDBRANCH  34  35
ENDBRANCH  28  34
ENDBRANCH  26  28
ENDBRANCH   8  24
TORSDOF 7
