REMARK  Name = ZINC09311627
REMARK  8 active torsions:
REMARK  status: ('A' for Active; 'I' for Inactive)
REMARK    1  A    between atoms: C_1  and  C_2
REMARK    2  A    between atoms: C_2  and  O_3
REMARK    3  A    between atoms: O_3  and  C_4
REMARK    4  A    between atoms: C_6  and  C_21
REMARK    5  A    between atoms: C_9  and  O_10
REMARK    6  A    between atoms: O_10  and  C_11
REMARK    7  A    between atoms: C_11  and  C_12
REMARK    8  A    between atoms: C_15  and  C_18
REMARK                            x       y       z     vdW  Elec       q    Type
REMARK                         _______ _______ _______ _____ _____    ______ ____
ROOT
ATOM      1  C   UNL     1       1.428   4.037  -1.132  0.00  0.00    +0.164 A 
ATOM      2  C   UNL     1       1.642   5.402  -1.156  0.00  0.00    +0.057 A 
ATOM      3  C   UNL     1       1.749   6.111   0.046  0.00  0.00    -0.018 A 
ATOM      4  C   UNL     1       1.634   5.434   1.266  0.00  0.00    +0.026 A 
ATOM      5  C   UNL     1       1.415   4.073   1.280  0.00  0.00    +0.059 A 
ATOM      6  C   UNL     1       1.309   3.371   0.087  0.00  0.00    +0.175 A 
ATOM      7  I   UNL     1       1.244   3.061   3.107  0.00  0.00    -0.040 I 
ENDROOT
BRANCH   3   8
ATOM      8  C   UNL     1       1.982   7.561   0.028  0.00  0.00    +0.036 C 
ATOM      9  C   UNL     1       2.564   8.168   1.093  0.00  0.00    +0.098 C 
ATOM     10  C   UNL     1       2.732   9.612   1.316  0.00  0.00    +0.266 C 
ATOM     11  O   UNL     1       2.373  10.512   0.579  0.00  0.00    -0.268 OA
ATOM     12  N   UNL     1       3.359   9.738   2.503  0.00  0.00    -0.235 N 
ATOM     13  C   UNL     1       3.599   8.525   3.022  0.00  0.00    +0.311 C 
ATOM     14  O   UNL     1       4.158   8.329   4.084  0.00  0.00    -0.252 OA
ATOM     15  N   UNL     1       3.141   7.554   2.213  0.00  0.00    -0.265 N 
ATOM     16  H   UNL     1       3.604  10.581   2.917  0.00  0.00    +0.159 HD
ATOM     17  H   UNL     1       3.199   6.599   2.375  0.00  0.00    +0.157 HD
ENDBRANCH   3   8
BRANCH   1  18
ATOM     18  O   UNL     1       1.329   3.345  -2.298  0.00  0.00    -0.489 OA
BRANCH  18  20
ATOM     19  C   UNL     1       1.321   3.149  -4.707  0.00  0.00    +0.048 C 
ATOM     20  C   UNL     1       1.460   4.091  -3.510  0.00  0.00    +0.226 C 
ENDBRANCH  18  20
ENDBRANCH   1  18
BRANCH   6  21
ATOM     21  O   UNL     1       1.094   2.030   0.107  0.00  0.00    -0.483 OA
BRANCH  21  22
ATOM     22  C   UNL     1      -0.266   1.591   0.110  0.00  0.00    +0.264 C 
BRANCH  22  23
ATOM     23  C   UNL     1      -0.308   0.085   0.133  0.00  0.00    -0.010 A 
ATOM     24  C   UNL     1      -0.329  -0.622  -1.056  0.00  0.00    +0.008 A 
ATOM     25  C   UNL     1      -0.363  -2.001  -1.042  0.00  0.00    +0.015 A 
ATOM     26  C   UNL     1      -0.385  -2.683   0.176  0.00  0.00    +0.063 A 
ATOM     27  C   UNL     1      -0.369  -1.964   1.372  0.00  0.00    +0.015 A 
ATOM     28  C   UNL     1      -0.330  -0.585   1.344  0.00  0.00    +0.008 A 
BRANCH  26  29
ATOM     29  C   UNL     1      -0.426  -4.160   0.198  0.00  0.00    +0.387 C 
ATOM     30  O   UNL     1      -0.445  -4.751   1.260  0.00  0.00    -0.241 OA
ATOM     31  O   UNL     1      -0.442  -4.851  -0.958  0.00  0.00    -0.241 OA
ENDBRANCH  26  29
ENDBRANCH  22  23
ENDBRANCH  21  22
ENDBRANCH   6  21
TORSDOF 7
