REMARK  Name = ZINC15102702
REMARK  18 active torsions:
REMARK  status: ('A' for Active; 'I' for Inactive)
REMARK    1  A    between atoms: C_1  and  C_2
REMARK    2  A    between atoms: C_2  and  C_3
REMARK    3  A    between atoms: C_3  and  C_4
REMARK    4  A    between atoms: C_4  and  N_5
REMARK    5  A    between atoms: N_5  and  C_6
REMARK    6  A    between atoms: C_7  and  N_19
REMARK    7  A    between atoms: N_8  and  C_15
REMARK    8  A    between atoms: C_15  and  C_16
REMARK    9  A    between atoms: C_16  and  C_17
REMARK   10  A    between atoms: C_16  and  C_18
REMARK   11  A    between atoms: C_20  and  C_22
REMARK   12  A    between atoms: C_22  and  N_70
REMARK   13  A    between atoms: C_23  and  N_70
REMARK   14  A    between atoms: C_24  and  C_25
REMARK   15  A    between atoms: C_24  and  N_70
REMARK   16  A    between atoms: C_25  and  O_26
REMARK   17  A    between atoms: O_26  and  C_27
REMARK   18  A    between atoms: C_30  and  C_33
REMARK                            x       y       z     vdW  Elec       q    Type
REMARK                         _______ _______ _______ _____ _____    ______ ____
ROOT
ATOM      1  N   UNL     1       1.076  -7.390  -3.400  0.00  0.00    -0.266 N 
ATOM      2  C   UNL     1       1.460  -6.136  -3.083  0.00  0.00    +0.203 C 
ATOM      3  O   UNL     1       1.459  -5.268  -3.931  0.00  0.00    -0.277 OA
ENDROOT
BRANCH   1   4
ATOM      4  C   UNL     1       0.583  -7.671  -4.691  0.00  0.00    +0.140 A 
ATOM      5  C   UNL     1      -0.577  -7.078  -5.145  0.00  0.00    +0.127 A 
ATOM      6  N   UNL     1      -1.032  -7.372  -6.409  0.00  0.00    -0.280 N 
ATOM      7  C   UNL     1      -0.354  -8.228  -7.194  0.00  0.00    +0.331 A 
ATOM      8  O   UNL     1      -0.773  -8.475  -8.309  0.00  0.00    -0.246 OA
ATOM      9  N   UNL     1       0.778  -8.816  -6.770  0.00  0.00    -0.273 N 
ATOM     10  H   UNL     1       1.261  -9.452  -7.372  0.00  0.00    +0.173 HD
ATOM     11  C   UNL     1       1.270  -8.558  -5.542  0.00  0.00    +0.277 A 
ATOM     12  O   UNL     1       2.300  -9.093  -5.168  0.00  0.00    -0.266 OA
BRANCH   5  13
ATOM     13  N   UNL     1      -1.270  -6.203  -4.342  0.00  0.00    -0.343 N 
ATOM     14  H   UNL     1      -0.920  -5.963  -3.470  0.00  0.00    +0.144 HD
ATOM     15  H   UNL     1      -2.110  -5.826  -4.648  0.00  0.00    +0.144 HD
ENDBRANCH   5  13
BRANCH   6  16
ATOM     16  C   UNL     1      -2.263  -6.749  -6.903  0.00  0.00    +0.131 C 
BRANCH  16  17
ATOM     17  C   UNL     1      -1.921  -5.434  -7.608  0.00  0.00    +0.003 C 
ATOM     18  C   UNL     1      -1.086  -5.727  -8.856  0.00  0.00    +0.009 C 
ATOM     19  C   UNL     1      -3.213  -4.723  -8.014  0.00  0.00    +0.009 C 
ENDBRANCH  16  17
ENDBRANCH   6  16
ENDBRANCH   1   4
BRANCH   1  20
ATOM     20  C   UNL     1       1.170  -8.459  -2.402  0.00  0.00    +0.114 C 
BRANCH  20  21
ATOM     21  C   UNL     1      -0.173  -8.608  -1.686  0.00  0.00    +0.019 C 
BRANCH  21  23
ATOM     22  C   UNL     1      -1.418  -9.873   0.072  0.00  0.00    +0.004 C 
ATOM     23  C   UNL     1      -0.075  -9.724  -0.644  0.00  0.00    -0.002 C 
ENDBRANCH  21  23
ENDBRANCH  20  21
ENDBRANCH   1  20
BRANCH   2  24
ATOM     24  C   UNL     1       1.891  -5.813  -1.675  0.00  0.00    +0.019 C 
BRANCH  24  26
ATOM     25  C   UNL     1       1.087  -3.533  -1.802  0.00  0.00    -0.095 C 
ATOM     26  N   UNL     1       2.277  -4.387  -1.610  0.00  0.00    +0.386 N 
ATOM     27  H   UNL     1       2.953  -4.190  -2.358  0.00  0.00    -0.081 HD
BRANCH  26  28
ATOM     28  C   UNL     1       2.905  -4.093  -0.305  0.00  0.00    -0.037 C 
BRANCH  28  29
ATOM     29  C   UNL     1       4.345  -4.611  -0.326  0.00  0.00    +0.210 C 
BRANCH  29  30
ATOM     30  O   UNL     1       5.087  -3.915  -1.330  0.00  0.00    -0.494 OA
BRANCH  30  31
ATOM     31  C   UNL     1       6.393  -4.258  -1.480  0.00  0.00    +0.120 A 
ATOM     32  C   UNL     1       7.172  -3.623  -2.437  0.00  0.00    +0.046 A 
ATOM     33  C   UNL     1       8.500  -3.973  -2.587  0.00  0.00    +0.007 A 
ATOM     34  C   UNL     1       9.053  -4.955  -1.786  0.00  0.00    -0.050 A 
ATOM     35  C   UNL     1       8.278  -5.590  -0.833  0.00  0.00    +0.007 A 
ATOM     36  C   UNL     1       6.950  -5.243  -0.678  0.00  0.00    +0.046 A 
ATOM     37  C   UNL     1      10.502  -5.335  -1.952  0.00  0.00    +0.044 C 
ENDBRANCH  30  31
ENDBRANCH  29  30
ENDBRANCH  28  29
ENDBRANCH  26  28
ENDBRANCH  24  26
ENDBRANCH   2  24
TORSDOF 13
