REMARK  Name = ZINC16604584
REMARK  10 active torsions:
REMARK  status: ('A' for Active; 'I' for Inactive)
REMARK    1  A    between atoms: C_1  and  C_2
REMARK    2  A    between atoms: C_2  and  C_3
REMARK    3  A    between atoms: C_3  and  C_4
REMARK    4  A    between atoms: C_4  and  N_5
REMARK    5  A    between atoms: C_13  and  C_15
REMARK    6  A    between atoms: C_20  and  S_22
REMARK    7  A    between atoms: S_22  and  C_23
REMARK    8  A    between atoms: C_23  and  C_24
REMARK    9  A    between atoms: N_26  and  C_27
REMARK   10  A    between atoms: C_27  and  C_28
REMARK                            x       y       z     vdW  Elec       q    Type
REMARK                         _______ _______ _______ _____ _____    ______ ____
ROOT
ATOM      1  N   UNL     1      -0.012   1.343   0.026  0.00  0.00    -0.299 N 
ATOM      2  C   UNL     1       0.005  -0.004   0.018  0.00  0.00    +0.303 C 
ATOM      3  O   UNL     1      -1.034  -0.626   0.123  0.00  0.00    -0.253 OA
ATOM      4  N   UNL     1       1.175  -0.662  -0.105  0.00  0.00    -0.280 N 
ATOM      5  C   UNL     1       2.453   0.065  -0.114  0.00  0.00    +0.128 C 
ATOM      6  C   UNL     1       3.388  -0.579   0.915  0.00  0.00    +0.125 C 
ATOM      7  N   UNL     1       3.491  -2.019   0.643  0.00  0.00    -0.312 N 
ATOM      8  C   UNL     1       2.191  -2.685   0.799  0.00  0.00    +0.128 C 
ATOM      9  C   UNL     1       1.207  -2.127  -0.228  0.00  0.00    +0.092 C 
ATOM     10  C   UNL     1      -0.188  -2.696   0.036  0.00  0.00    +0.030 C 
ATOM     11  C   UNL     1       4.450  -2.609   1.450  0.00  0.00    +0.127 A 
ATOM     12  C   UNL     1       5.765  -2.138   1.446  0.00  0.00    +0.083 A 
ATOM     13  C   UNL     1       6.688  -2.754   2.272  0.00  0.00    +0.135 A 
ATOM     14  N   UNL     1       6.304  -3.773   3.028  0.00  0.00    -0.210 NA
ATOM     15  C   UNL     1       5.050  -4.202   3.006  0.00  0.00    +0.192 A 
ATOM     16  N   UNL     1       4.135  -3.635   2.233  0.00  0.00    -0.207 NA
ATOM     17 CL   UNL     1       8.334  -2.203   2.312  0.00  0.00    -0.062 Cl
ATOM     18  H   UNL     1       0.821   1.839   0.015  0.00  0.00    +0.150 HD
ENDROOT
BRANCH   1  19
ATOM     19  C   UNL     1      -1.290   2.059   0.047  0.00  0.00    +0.106 C 
BRANCH  19  20
ATOM     20  C   UNL     1      -1.030   3.567   0.052  0.00  0.00    +0.018 C 
BRANCH  20  22
ATOM     21  C   UNL     1      -2.105   5.822   0.079  0.00  0.00    +0.004 C 
ATOM     22  C   UNL     1      -2.365   4.315   0.073  0.00  0.00    -0.002 C 
ENDBRANCH  20  22
ENDBRANCH  19  20
ENDBRANCH   1  19
BRANCH  15  23
ATOM     23  S   UNL     1       4.589  -5.560   4.030  0.00  0.00    -0.077 S 
BRANCH  23  24
ATOM     24  C   UNL     1       6.178  -5.908   4.825  0.00  0.00    +0.173 C 
BRANCH  24  25
ATOM     25  C   UNL     1       6.021  -7.068   5.774  0.00  0.00    +0.224 C 
ATOM     26  O   UNL     1       4.942  -7.606   5.901  0.00  0.00    -0.275 OA
ATOM     27  N   UNL     1       7.080  -7.507   6.482  0.00  0.00    -0.310 N 
ATOM     28  H   UNL     1       7.944  -7.077   6.380  0.00  0.00    +0.149 HD
BRANCH  27  29
ATOM     29  C   UNL     1       6.928  -8.635   7.405  0.00  0.00    +0.141 C 
BRANCH  29  30
ATOM     30  C   UNL     1       8.251  -8.925   8.066  0.00  0.00    -0.012 A 
ATOM     31  C   UNL     1       9.139  -9.823   7.495  0.00  0.00    +0.008 A 
ATOM     32  C   UNL     1      10.346 -10.055   8.136  0.00  0.00    +0.020 A 
ATOM     33  C   UNL     1      10.618  -9.396   9.320  0.00  0.00    +0.111 A 
ATOM     34  N   UNL     1       9.747  -8.552   9.837  0.00  0.00    -0.263 NA
ATOM     35  C   UNL     1       8.591  -8.303   9.252  0.00  0.00    +0.115 A 
ENDBRANCH  29  30
ENDBRANCH  27  29
ENDBRANCH  24  25
ENDBRANCH  23  24
ENDBRANCH  15  23
TORSDOF 8
