REMARK  Name = ZINC16254898
REMARK  13 active torsions:
REMARK  status: ('A' for Active; 'I' for Inactive)
REMARK    1  A    between atoms: C_1  and  C_2
REMARK    2  A    between atoms: C_2  and  C_3
REMARK    3  A    between atoms: C_2  and  C_4
REMARK    4  A    between atoms: C_2  and  C_5
REMARK    5  A    between atoms: C_8  and  C_11
REMARK    6  A    between atoms: C_14  and  S_19
REMARK    7  A    between atoms: N_15  and  C_16
REMARK    8  A    between atoms: C_16  and  C_17
REMARK    9  A    between atoms: S_19  and  C_20
REMARK   10  A    between atoms: C_20  and  C_21
REMARK   11  A    between atoms: C_21  and  C_23
REMARK   12  A    between atoms: C_24  and  N_35
REMARK   13  A    between atoms: N_25  and  C_32
REMARK                            x       y       z     vdW  Elec       q    Type
REMARK                         _______ _______ _______ _____ _____    ______ ____
ROOT
ATOM      1  S   UNL     1      -3.145  -1.099  -0.164  0.00  0.00    -0.078 S 
ENDROOT
BRANCH   1   5
ATOM      2  C   UNL     1      -1.332   2.140   1.052  0.00  0.00    +0.165 A 
ATOM      3  N   UNL     1      -2.032   1.790   2.105  0.00  0.00    -0.128 NA
ATOM      4  N   UNL     1      -2.692   0.716   1.856  0.00  0.00    -0.122 NA
ATOM      5  C   UNL     1      -2.458   0.318   0.625  0.00  0.00    +0.193 A 
ATOM      6  N   UNL     1      -1.580   1.207   0.073  0.00  0.00    -0.298 N 
BRANCH   2  10
ATOM      7  C   UNL     1       1.220   5.520   0.728  0.00  0.00    -0.042 A 
ATOM      8  C   UNL     1       0.251   5.481   1.715  0.00  0.00    +0.005 A 
ATOM      9  C   UNL     1      -0.581   4.387   1.825  0.00  0.00    +0.012 A 
ATOM     10  C   UNL     1      -0.444   3.317   0.939  0.00  0.00    +0.019 A 
ATOM     11  C   UNL     1       0.540   3.360  -0.050  0.00  0.00    +0.012 A 
ATOM     12  C   UNL     1       1.362   4.463  -0.153  0.00  0.00    +0.005 A 
BRANCH   7  14
ATOM     13  C   UNL     1       2.913   6.891   1.914  0.00  0.00    +0.015 C 
ATOM     14  C   UNL     1       2.126   6.719   0.613  0.00  0.00    -0.013 C 
ATOM     15  C   UNL     1       3.100   6.513  -0.548  0.00  0.00    +0.015 C 
ATOM     16  C   UNL     1       1.285   7.971   0.358  0.00  0.00    +0.015 C 
ENDBRANCH   7  14
ENDBRANCH   2  10
BRANCH   6  17
ATOM     17  C   UNL     1      -1.024   1.176  -1.282  0.00  0.00    +0.152 C 
BRANCH  17  18
ATOM     18  C   UNL     1       0.204   0.303  -1.302  0.00  0.00    -0.013 C 
ATOM     19  C   UNL     1       1.335   0.774  -1.763  0.00  0.00    +0.005 C 
ENDBRANCH  17  18
ENDBRANCH   6  17
ENDBRANCH   1   5
BRANCH   1  20
ATOM     20  C   UNL     1      -4.178  -1.737   1.179  0.00  0.00    +0.157 C 
BRANCH  20  21
ATOM     21  C   UNL     1      -4.885  -2.986   0.720  0.00  0.00    +0.182 C 
ATOM     22  O   UNL     1      -4.708  -3.405  -0.406  0.00  0.00    -0.291 OA
BRANCH  21  23
ATOM     23  C   UNL     1      -5.753  -3.669   1.598  0.00  0.00    +0.120 A 
ATOM     24  C   UNL     1      -6.349  -4.887   1.228  0.00  0.00    +0.116 A 
ATOM     25  N   UNL     1      -7.178  -5.513   2.114  0.00  0.00    -0.278 N 
ATOM     26  C   UNL     1      -7.439  -4.984   3.320  0.00  0.00    +0.331 A 
ATOM     27  O   UNL     1      -8.187  -5.578   4.071  0.00  0.00    -0.246 OA
ATOM     28  N   UNL     1      -6.904  -3.821   3.726  0.00  0.00    -0.274 N 
ATOM     29  H   UNL     1      -7.128  -3.465   4.633  0.00  0.00    +0.173 HD
ATOM     30  C   UNL     1      -6.068  -3.127   2.926  0.00  0.00    +0.266 A 
ATOM     31  O   UNL     1      -5.584  -2.074   3.298  0.00  0.00    -0.267 OA
BRANCH  25  32
ATOM     32  C   UNL     1      -7.799  -6.786   1.740  0.00  0.00    +0.094 C 
ATOM     33  C   UNL     1      -7.743  -7.926   2.760  0.00  0.00    +0.027 C 
ATOM     34  C   UNL     1      -6.873  -7.981   1.502  0.00  0.00    +0.027 C 
ENDBRANCH  25  32
BRANCH  24  35
ATOM     35  N   UNL     1      -6.100  -5.436   0.008  0.00  0.00    -0.344 N 
ATOM     36  H   UNL     1      -5.417  -5.054  -0.565  0.00  0.00    +0.144 HD
ATOM     37  H   UNL     1      -6.605  -6.209  -0.288  0.00  0.00    +0.144 HD
ENDBRANCH  24  35
ENDBRANCH  21  23
ENDBRANCH  20  21
ENDBRANCH   1  20
TORSDOF 10
