REMARK  Name = ZINC57354550
REMARK  5 active torsions:
REMARK  status: ('A' for Active; 'I' for Inactive)
REMARK    1  A    between atoms: C_10  and  C_11
REMARK    2  A    between atoms: C_11  and  C_12
REMARK    3  A    between atoms: C_14  and  C_22
REMARK    4  A    between atoms: C_15  and  O_21
REMARK    5  A    between atoms: C_16  and  N_18
REMARK                            x       y       z     vdW  Elec       q    Type
REMARK                         _______ _______ _______ _____ _____    ______ ____
ROOT
ATOM      1  C   UNL     1       5.341   0.519   1.367  0.00  0.00    -0.040 A 
ATOM      2  C   UNL     1       4.897   1.700   1.919  0.00  0.00    +0.018 A 
ATOM      3  C   UNL     1       5.250   2.033   3.231  0.00  0.00    +0.058 A 
ATOM      4  C   UNL     1       6.057   1.157   3.976  0.00  0.00    +0.157 A 
ATOM      5  C   UNL     1       6.495  -0.027   3.402  0.00  0.00    +0.168 A 
ATOM      6  C   UNL     1       6.133  -0.345   2.108  0.00  0.00    +0.040 A 
ENDROOT
BRANCH   5   7
ATOM      7  N   UNL     1       7.345  -0.955   4.181  0.00  0.00    +0.060 N 
ATOM      8  O   UNL     1       7.727  -1.988   3.682  0.00  0.00    -0.126 OA
ATOM      9  O   UNL     1       7.658  -0.680   5.316  0.00  0.00    -0.126 OA
ENDBRANCH   5   7
BRANCH   4  10
ATOM     10  O   UNL     1       6.407   1.468   5.248  0.00  0.00    -0.504 OA
ATOM     11  H   UNL     1       5.787   1.147   5.917  0.00  0.00    +0.292 HD
ENDBRANCH   4  10
BRANCH   3  12
ATOM     12  C   UNL     1       4.781   3.291   3.826  0.00  0.00    +0.262 C 
ATOM     13  O   UNL     1       5.090   3.575   4.964  0.00  0.00    -0.296 OA
ENDBRANCH   3  12
BRANCH   1  14
ATOM     14  C   UNL     1       4.960   0.161  -0.046  0.00  0.00    +0.071 C 
BRANCH  14  24
ATOM     15  C   UNL     1      -0.016   1.357   0.009  0.00  0.00    +0.001 A 
ATOM     16  C   UNL     1       1.169   2.091   0.002  0.00  0.00    +0.001 A 
ATOM     17  C   UNL     1       2.378   1.468  -0.013  0.00  0.00    +0.009 A 
ATOM     18  C   UNL     1       2.438   0.064  -0.021  0.00  0.00    -0.014 A 
ATOM     19  C   UNL     1       1.233  -0.683  -0.013  0.00  0.00    -0.018 A 
ATOM     20  C   UNL     1       0.002  -0.004   0.002  0.00  0.00    +0.008 A 
ATOM     21  C   UNL     1       1.292  -2.087  -0.021  0.00  0.00    +0.008 A 
ATOM     22  C   UNL     1       2.502  -2.709  -0.036  0.00  0.00    +0.001 A 
ATOM     23  C   UNL     1       3.687  -1.976  -0.043  0.00  0.00    +0.004 A 
ATOM     24  C   UNL     1       3.668  -0.615  -0.037  0.00  0.00    -0.035 A 
ENDBRANCH  14  24
ENDBRANCH   1  14
TORSDOF 5
