REMARK  Name = ZINC12875763
REMARK  13 active torsions:
REMARK  status: ('A' for Active; 'I' for Inactive)
REMARK    1  A    between atoms: C_1  and  C_2
REMARK    2  A    between atoms: C_2  and  C_3
REMARK    3  A    between atoms: C_2  and  C_4
REMARK    4  A    between atoms: C_7  and  N_10
REMARK    5  A    between atoms: C_11  and  C_13
REMARK    6  A    between atoms: N_19  and  C_26
REMARK    7  A    between atoms: C_22  and  C_24
REMARK    8  A    between atoms: C_22  and  C_25
REMARK    9  A    between atoms: C_26  and  C_27
REMARK   10  A    between atoms: C_27  and  O_29
REMARK   11  A    between atoms: O_29  and  C_30
REMARK   12  A    between atoms: C_30  and  C_31
REMARK   13  A    between atoms: C_30  and  C_32
REMARK                            x       y       z     vdW  Elec       q    Type
REMARK                         _______ _______ _______ _____ _____    ______ ____
ROOT
ATOM      1  C   UNL     1      -3.311   4.703   6.216  0.00  0.00    +0.039 A 
ATOM      2  C   UNL     1      -3.820   3.780   7.134  0.00  0.00    +0.017 A 
ATOM      3  C   UNL     1      -4.373   4.217   8.319  0.00  0.00    +0.048 A 
ATOM      4  C   UNL     1      -4.426   5.573   8.603  0.00  0.00    +0.143 A 
ATOM      5  C   UNL     1      -3.921   6.501   7.689  0.00  0.00    +0.080 A 
ATOM      6  C   UNL     1      -3.360   6.070   6.503  0.00  0.00    +0.040 A 
ATOM      7  N   UNL     1      -3.985   7.868   7.994  0.00  0.00    -0.254 N 
ATOM      8  C   UNL     1      -4.232   8.244   9.267  0.00  0.00    +0.264 C 
ATOM      9  O   UNL     1      -4.323   9.420   9.549  0.00  0.00    -0.271 OA
ATOM     10  C   UNL     1      -4.397   7.194  10.337  0.00  0.00    +0.181 C 
ATOM     11  O   UNL     1      -4.968   6.013   9.768  0.00  0.00    -0.475 OA
ATOM     12  C   UNL     1      -3.029   6.861  10.937  0.00  0.00    +0.065 C 
ATOM     13  C   UNL     1      -5.318   7.727  11.436  0.00  0.00    +0.065 C 
ENDROOT
BRANCH   1  15
ATOM     14  N   UNL     1      -2.667   2.915   4.675  0.00  0.00    -0.282 N 
ATOM     15  C   UNL     1      -2.719   4.234   4.948  0.00  0.00    +0.248 C 
ATOM     16  O   UNL     1      -2.276   5.038   4.150  0.00  0.00    -0.270 OA
ATOM     17  H   UNL     1      -3.088   2.279   5.275  0.00  0.00    +0.155 HD
BRANCH  14  21
ATOM     18  C   UNL     1      -0.703   1.570   1.257  0.00  0.00    -0.045 A 
ATOM     19  C   UNL     1      -0.235   2.685   1.928  0.00  0.00    +0.006 A 
ATOM     20  C   UNL     1      -0.888   3.137   3.058  0.00  0.00    +0.023 A 
ATOM     21  C   UNL     1      -2.008   2.464   3.527  0.00  0.00    +0.034 A 
ATOM     22  C   UNL     1      -2.472   1.340   2.855  0.00  0.00    +0.023 A 
ATOM     23  C   UNL     1      -1.818   0.897   1.722  0.00  0.00    +0.006 A 
BRANCH  18  25
ATOM     24  C   UNL     1       1.456   0.733   0.369  0.00  0.00    +0.012 C 
ATOM     25  C   UNL     1       0.008   1.083   0.021  0.00  0.00    +0.013 C 
ATOM     26  C   UNL     1      -0.009   2.183  -1.043  0.00  0.00    +0.012 C 
ENDBRANCH  18  25
ENDBRANCH  14  21
ENDBRANCH   1  15
BRANCH   7  27
ATOM     27  C   UNL     1      -3.787   8.874   6.947  0.00  0.00    +0.234 C 
BRANCH  27  28
ATOM     28  C   UNL     1      -5.114   9.213   6.318  0.00  0.00    +0.325 C 
ATOM     29  O   UNL     1      -6.122   8.671   6.705  0.00  0.00    -0.249 OA
BRANCH  28  30
ATOM     30  O   UNL     1      -5.176  10.118   5.329  0.00  0.00    -0.461 OA
BRANCH  30  31
ATOM     31  C   UNL     1      -6.488  10.395   4.770  0.00  0.00    +0.170 C 
ATOM     32  C   UNL     1      -6.535  11.841   4.271  0.00  0.00    +0.052 C 
ATOM     33  C   UNL     1      -6.756   9.443   3.603  0.00  0.00    +0.052 C 
ENDBRANCH  30  31
ENDBRANCH  28  30
ENDBRANCH  27  28
ENDBRANCH   7  27
TORSDOF 7
