REMARK  Name = ZINC14531709
REMARK  15 active torsions:
REMARK  status: ('A' for Active; 'I' for Inactive)
REMARK    1  A    between atoms: C_1  and  C_2
REMARK    2  A    between atoms: C_3  and  C_8
REMARK    3  A    between atoms: C_4  and  C_7
REMARK    4  A    between atoms: C_8  and  O_9
REMARK    5  A    between atoms: O_9  and  C_10
REMARK    6  A    between atoms: N_16  and  C_18
REMARK    7  A    between atoms: C_18  and  C_19
REMARK    8  A    between atoms: C_19  and  C_20
REMARK    9  A    between atoms: C_19  and  C_21
REMARK   10  A    between atoms: C_22  and  C_23
REMARK   11  A    between atoms: C_22  and  N_68
REMARK   12  A    between atoms: C_24  and  C_25
REMARK   13  A    between atoms: C_28  and  O_33
REMARK   14  A    between atoms: C_29  and  O_31
REMARK   15  A    between atoms: O_31  and  C_32
REMARK                            x       y       z     vdW  Elec       q    Type
REMARK                         _______ _______ _______ _____ _____    ______ ____
ROOT
ATOM      1  C   UNL     1      -5.124   0.661   2.686  0.00  0.00    +0.120 C 
ATOM      2  C   UNL     1      -4.411   0.472   1.360  0.00  0.00    -0.044 C 
ATOM      3  C   UNL     1      -3.712   2.775   1.009  0.00  0.00    +0.019 C 
ATOM      4  C   UNL     1      -3.849   3.392   2.385  0.00  0.00    +0.199 C 
ATOM      5  O   UNL     1      -3.043   4.216   2.761  0.00  0.00    -0.278 OA
ATOM      6  N   UNL     1      -4.855   3.030   3.187  0.00  0.00    -0.300 N 
ATOM      7  C   UNL     1      -5.827   2.021   2.734  0.00  0.00    +0.137 C 
ATOM      8  N   UNL     1      -3.256   1.375   1.185  0.00  0.00    +0.389 N 
ATOM      9  H   UNL     1      -2.665   1.323   2.023  0.00  0.00    -0.081 HD
ENDROOT
BRANCH   1  10
ATOM     10  O   UNL     1      -6.094  -0.376   2.849  0.00  0.00    -0.372 OA
BRANCH  10  11
ATOM     11  C   UNL     1      -6.316  -0.755   4.209  0.00  0.00    +0.200 C 
BRANCH  11  14
ATOM     12  C   UNL     1      -5.822  -3.959   4.090  0.00  0.00    +0.069 C 
ATOM     13  C   UNL     1      -7.144  -3.246   4.212  0.00  0.00    +0.086 A 
ATOM     14  C   UNL     1      -7.351  -1.849   4.262  0.00  0.00    +0.042 A 
ATOM     15  C   UNL     1      -8.695  -1.721   4.377  0.00  0.00    +0.140 A 
ATOM     16  O   UNL     1      -9.195  -2.964   4.380  0.00  0.00    -0.359 OA
ATOM     17  N   UNL     1      -8.322  -3.795   4.291  0.00  0.00    -0.083 NA
ATOM     18  C   UNL     1      -9.473  -0.434   4.477  0.00  0.00    +0.089 C 
ENDBRANCH  11  14
ENDBRANCH  10  11
ENDBRANCH   1  10
BRANCH   6  19
ATOM     19  C   UNL     1      -4.991   3.637   4.513  0.00  0.00    +0.110 C 
BRANCH  19  20
ATOM     20  C   UNL     1      -5.861   4.892   4.414  0.00  0.00    +0.000 C 
ATOM     21  C   UNL     1      -7.280   4.497   4.002  0.00  0.00    +0.009 C 
ATOM     22  C   UNL     1      -5.900   5.594   5.773  0.00  0.00    +0.009 C 
ENDBRANCH  19  20
ENDBRANCH   6  19
BRANCH   8  23
ATOM     23  C   UNL     1      -2.465   0.952   0.019  0.00  0.00    -0.050 C 
BRANCH  23  24
ATOM     24  C   UNL     1      -1.170   1.723   0.017  0.00  0.00    -0.045 C 
ATOM     25  C   UNL     1      -0.013   1.076   0.008  0.00  0.00    +0.002 C 
BRANCH  25  26
ATOM     26  C   UNL     1       1.257   1.832  -0.000  0.00  0.00    -0.022 A 
ATOM     27  C   UNL     1       1.240   3.228   0.002  0.00  0.00    +0.012 A 
ATOM     28  C   UNL     1       2.426   3.932  -0.001  0.00  0.00    +0.050 A 
ATOM     29  C   UNL     1       3.637   3.257  -0.016  0.00  0.00    +0.158 A 
ATOM     30  C   UNL     1       3.661   1.864  -0.023  0.00  0.00    +0.162 A 
ATOM     31  C   UNL     1       2.476   1.152  -0.015  0.00  0.00    +0.057 A 
BRANCH  30  32
ATOM     32  O   UNL     1       4.851   1.205  -0.038  0.00  0.00    -0.491 OA
ATOM     33  C   UNL     1       4.800  -0.223  -0.044  0.00  0.00    +0.277 C 
ENDBRANCH  30  32
BRANCH  29  34
ATOM     34  O   UNL     1       4.803   3.955  -0.025  0.00  0.00    -0.503 OA
ATOM     35  H   UNL     1       5.132   4.162  -0.910  0.00  0.00    +0.292 HD
ENDBRANCH  29  34
ENDBRANCH  25  26
ENDBRANCH  23  24
ENDBRANCH   8  23
TORSDOF 10
