REMARK  Name = ZINC24106366
REMARK  10 active torsions:
REMARK  status: ('A' for Active; 'I' for Inactive)
REMARK    1  A    between atoms: C_1  and  C_2
REMARK    2  A    between atoms: C_2  and  C_3
REMARK    3  A    between atoms: C_5  and  C_25
REMARK    4  A    between atoms: C_6  and  N_8
REMARK    5  A    between atoms: C_9  and  C_11
REMARK    6  A    between atoms: C_12  and  C_13
REMARK    7  A    between atoms: C_18  and  N_19
REMARK    8  A    between atoms: C_25  and  O_27
REMARK    9  A    between atoms: O_27  and  C_28
REMARK   10  A    between atoms: C_28  and  C_29
REMARK                            x       y       z     vdW  Elec       q    Type
REMARK                         _______ _______ _______ _____ _____    ______ ____
ROOT
ATOM      1  N   UNL     1      -0.098   1.108  -0.849  0.00  0.00    -0.276 N 
ATOM      2  C   UNL     1      -1.294   1.728  -0.807  0.00  0.00    +0.241 C 
ATOM      3  O   UNL     1      -1.364   2.929  -0.992  0.00  0.00    -0.270 OA
ATOM      4  H   UNL     1      -0.034   0.023  -0.678  0.00  0.00    +0.156 HD
ENDROOT
BRANCH   1   8
ATOM      5  C   UNL     1       2.964   3.641  -1.637  0.00  0.00    -0.008 A 
ATOM      6  C   UNL     1       3.374   2.369  -1.484  0.00  0.00    +0.028 A 
ATOM      7  C   UNL     1       2.362   1.381  -1.193  0.00  0.00    +0.088 A 
ATOM      8  C   UNL     1       1.050   1.836  -1.109  0.00  0.00    +0.086 A 
ATOM      9  S   UNL     1       1.202   3.536  -1.402  0.00  0.00    -0.078 S 
BRANCH   5  11
ATOM     10  C   UNL     1       3.902   5.047  -3.452  0.00  0.00    +0.009 C 
ATOM     11  C   UNL     1       3.796   4.861  -1.937  0.00  0.00    +0.039 C 
ENDBRANCH   5  11
BRANCH   7  12
ATOM     12  C   UNL     1       2.700  -0.030  -0.999  0.00  0.00    +0.342 C 
ATOM     13  O   UNL     1       1.823  -0.838  -0.759  0.00  0.00    -0.245 OA
BRANCH  12  14
ATOM     14  O   UNL     1       3.983  -0.435  -1.088  0.00  0.00    -0.461 OA
BRANCH  14  15
ATOM     15  C   UNL     1       4.244  -1.849  -0.884  0.00  0.00    +0.229 C 
ATOM     16  C   UNL     1       5.745  -2.116  -1.022  0.00  0.00    +0.048 C 
ENDBRANCH  14  15
ENDBRANCH  12  14
ENDBRANCH   7  12
ENDBRANCH   1   8
BRANCH   2  17
ATOM     17  C   UNL     1      -2.507   0.957  -0.538  0.00  0.00    +0.068 C 
ATOM     18  C   UNL     1      -3.706   1.578  -0.495  0.00  0.00    +0.015 C 
BRANCH  18  19
ATOM     19  C   UNL     1      -4.926   0.804  -0.225  0.00  0.00    +0.009 A 
ATOM     20  C   UNL     1      -4.911  -0.591  -0.338  0.00  0.00    +0.059 A 
ATOM     21  C   UNL     1      -6.059  -1.314  -0.082  0.00  0.00    +0.167 A 
ATOM     22  C   UNL     1      -7.232  -0.653   0.287  0.00  0.00    +0.168 A 
ATOM     23  C   UNL     1      -7.247   0.730   0.399  0.00  0.00    +0.082 A 
ATOM     24  C   UNL     1      -6.104   1.459   0.150  0.00  0.00    +0.137 A 
ATOM     25  O   UNL     1      -8.211  -1.583   0.480  0.00  0.00    -0.453 OA
ATOM     26  C   UNL     1      -7.742  -2.779  -0.170  0.00  0.00    +0.466 C 
ATOM     27  O   UNL     1      -6.308  -2.656  -0.119  0.00  0.00    -0.453 OA
BRANCH  24  28
ATOM     28  N   UNL     1      -6.124   2.933   0.276  0.00  0.00    +0.057 N 
ATOM     29  O   UNL     1      -5.155   3.519   0.727  0.00  0.00    -0.126 OA
ATOM     30  O   UNL     1      -7.108   3.561  -0.071  0.00  0.00    -0.126 OA
ENDBRANCH  24  28
ENDBRANCH  18  19
ENDBRANCH   2  17
TORSDOF 8
