REMARK  Name = ZINC10785142
REMARK  6 active torsions:
REMARK  status: ('A' for Active; 'I' for Inactive)
REMARK    1  A    between atoms: C_4  and  N_7
REMARK    2  A    between atoms: N_8  and  C_9
REMARK    3  A    between atoms: C_12  and  N_15
REMARK    4  A    between atoms: C_16  and  C_18
REMARK    5  A    between atoms: N_24  and  S_25
REMARK    6  A    between atoms: S_25  and  C_28
REMARK                            x       y       z     vdW  Elec       q    Type
REMARK                         _______ _______ _______ _____ _____    ______ ____
ROOT
ATOM      1  N   UNL     1       4.273   0.006   2.707  0.00  0.00    -0.284 N 
ATOM      2  C   UNL     1       3.017  -0.407   2.445  0.00  0.00    +0.236 C 
ATOM      3  O   UNL     1       2.453  -1.159   3.212  0.00  0.00    -0.274 OA
ATOM      4  H   UNL     1       4.700   0.657   2.129  0.00  0.00    +0.155 HD
ENDROOT
BRANCH   1   8
ATOM      5  C   UNL     1       6.322  -1.517   6.001  0.00  0.00    +0.086 A 
ATOM      6  C   UNL     1       7.012  -1.224   4.820  0.00  0.00    +0.031 A 
ATOM      7  C   UNL     1       6.331  -0.721   3.734  0.00  0.00    +0.025 A 
ATOM      8  C   UNL     1       4.959  -0.504   3.810  0.00  0.00    +0.034 A 
ATOM      9  C   UNL     1       4.270  -0.789   4.985  0.00  0.00    +0.025 A 
ATOM     10  C   UNL     1       4.942  -1.296   6.074  0.00  0.00    +0.031 A 
BRANCH   5  12
ATOM     11  N   UNL     1       6.355  -2.285   8.168  0.00  0.00    -0.149 NA
ATOM     12  N   UNL     1       6.993  -2.016   7.080  0.00  0.00    -0.149 NA
BRANCH  11  16
ATOM     13  C   UNL     1       8.389  -3.799  11.437  0.00  0.00    +0.000 A 
ATOM     14  C   UNL     1       7.025  -3.582  11.515  0.00  0.00    +0.002 A 
ATOM     15  C   UNL     1       6.340  -3.077  10.430  0.00  0.00    +0.029 A 
ATOM     16  C   UNL     1       7.027  -2.785   9.249  0.00  0.00    +0.086 A 
ATOM     17  C   UNL     1       8.405  -3.011   9.175  0.00  0.00    +0.029 A 
ATOM     18  C   UNL     1       9.077  -3.512  10.271  0.00  0.00    +0.002 A 
ENDBRANCH  11  16
ENDBRANCH   5  12
ENDBRANCH   1   8
BRANCH   2  19
ATOM     19  C   UNL     1       2.312   0.066   1.200  0.00  0.00    +0.166 C 
ATOM     20  C   UNL     1       1.079   0.889   1.584  0.00  0.00    +0.030 C 
ATOM     21  C   UNL     1       0.296   1.248   0.320  0.00  0.00    +0.003 C 
ATOM     22  C   UNL     1      -0.175  -0.033  -0.372  0.00  0.00    +0.017 C 
ATOM     23  C   UNL     1       1.044  -0.867  -0.779  0.00  0.00    +0.110 C 
ATOM     24  N   UNL     1       1.879  -1.094   0.408  0.00  0.00    -0.164 NA
BRANCH  24  25
ATOM     25  S   UNL     1       2.324  -2.627   0.846  0.00  0.00    +0.068 S 
ATOM     26  O   UNL     1       2.279  -3.416  -0.335  0.00  0.00    -0.152 OA
ATOM     27  O   UNL     1       3.500  -2.500   1.633  0.00  0.00    -0.152 OA
BRANCH  25  28
ATOM     28  C   UNL     1       1.068  -3.249   1.915  0.00  0.00    +0.143 A 
ATOM     29  C   UNL     1      -0.056  -3.938   1.600  0.00  0.00    +0.036 A 
ATOM     30  C   UNL     1      -0.908  -4.330   2.616  0.00  0.00    +0.010 A 
ATOM     31  C   UNL     1      -0.594  -4.015   3.896  0.00  0.00    +0.047 A 
ATOM     32  S   UNL     1       0.951  -3.143   3.693  0.00  0.00    -0.077 S 
ENDBRANCH  25  28
ENDBRANCH  24  25
ENDBRANCH   2  19
TORSDOF 6
