REMARK  Name = ZINC09491978
REMARK  9 active torsions:
REMARK  status: ('A' for Active; 'I' for Inactive)
REMARK    1  A    between atoms: C_3  and  N_11
REMARK    2  A    between atoms: C_5  and  S_7
REMARK    3  A    between atoms: S_7  and  N_10
REMARK    4  A    between atoms: C_12  and  C_14
REMARK    5  A    between atoms: C_14  and  S_15
REMARK    6  A    between atoms: S_15  and  C_16
REMARK    7  A    between atoms: C_19  and  C_28
REMARK    8  A    between atoms: N_20  and  C_21
REMARK    9  A    between atoms: C_21  and  C_22
REMARK                            x       y       z     vdW  Elec       q    Type
REMARK                         _______ _______ _______ _____ _____    ______ ____
ROOT
ATOM      1  C   UNL     1      -5.434   0.098  -5.160  0.00  0.00    +0.173 C 
ENDROOT
BRANCH   1   3
ATOM      2  N   UNL     1      -3.560   0.577  -3.619  0.00  0.00    -0.285 N 
ATOM      3  C   UNL     1      -4.345   0.996  -4.631  0.00  0.00    +0.227 C 
ATOM      4  O   UNL     1      -4.175   2.094  -5.116  0.00  0.00    -0.275 OA
ATOM      5  H   UNL     1      -3.645  -0.328  -3.282  0.00  0.00    +0.155 HD
BRANCH   2   8
ATOM      6  C   UNL     1      -0.496   1.821  -2.011  0.00  0.00    +0.004 A 
ATOM      7  C   UNL     1      -1.419   0.958  -2.568  0.00  0.00    +0.023 A 
ATOM      8  C   UNL     1      -2.623   1.450  -3.054  0.00  0.00    +0.035 A 
ATOM      9  C   UNL     1      -2.898   2.809  -2.972  0.00  0.00    +0.051 A 
ATOM     10  C   UNL     1      -1.969   3.667  -2.418  0.00  0.00    +0.107 A 
ATOM     11  C   UNL     1      -0.770   3.174  -1.936  0.00  0.00    +0.028 A 
BRANCH  10  12
ATOM     12  S   UNL     1      -2.315   5.392  -2.320  0.00  0.00    +0.056 S 
ATOM     13  O   UNL     1      -3.729   5.525  -2.343  0.00  0.00    -0.153 OA
ATOM     14  O   UNL     1      -1.519   5.906  -1.260  0.00  0.00    -0.153 OA
BRANCH  12  15
ATOM     15  N   UNL     1      -1.751   6.085  -3.714  0.00  0.00    -0.204 NA
ATOM     16  H   UNL     1      -1.846   7.040  -3.854  0.00  0.00    +0.144 HD
ATOM     17  H   UNL     1      -1.324   5.536  -4.390  0.00  0.00    +0.144 HD
ENDBRANCH  12  15
ENDBRANCH  10  12
ENDBRANCH   2   8
ENDBRANCH   1   3
BRANCH   1  18
ATOM     18  S   UNL     1      -6.306   0.937  -6.507  0.00  0.00    -0.077 S 
BRANCH  18  19
ATOM     19  C   UNL     1      -7.488  -0.301  -6.924  0.00  0.00    +0.192 A 
ATOM     20  N   UNL     1      -7.618  -1.477  -6.354  0.00  0.00    -0.122 NA
ATOM     21  N   UNL     1      -8.579  -2.131  -6.902  0.00  0.00    -0.128 NA
ATOM     22  C   UNL     1      -9.123  -1.412  -7.859  0.00  0.00    +0.172 A 
ATOM     23  N   UNL     1      -8.443  -0.214  -7.898  0.00  0.00    -0.299 N 
BRANCH  22  24
ATOM     24  C   UNL     1     -10.248  -1.808  -8.721  0.00  0.00    +0.056 A 
ATOM     25  C   UNL     1     -11.136  -2.843  -8.563  0.00  0.00    +0.019 A 
ATOM     26  C   UNL     1     -12.121  -3.018  -9.508  0.00  0.00    +0.008 A 
ATOM     27  C   UNL     1     -12.177  -2.174 -10.570  0.00  0.00    +0.046 A 
ATOM     28  S   UNL     1     -10.808  -1.074 -10.249  0.00  0.00    -0.094 S 
ENDBRANCH  22  24
BRANCH  23  29
ATOM     29  C   UNL     1      -8.691   0.915  -8.798  0.00  0.00    +0.157 C 
BRANCH  29  30
ATOM     30  C   UNL     1      -7.854   0.749 -10.068  0.00  0.00    +0.138 C 
ATOM     31  C   UNL     1      -8.015   1.993 -10.968  0.00  0.00    +0.035 C 
ATOM     32  C   UNL     1      -8.066   1.365 -12.389  0.00  0.00    +0.031 C 
ATOM     33  C   UNL     1      -8.797   0.030 -12.096  0.00  0.00    +0.160 C 
ATOM     34  O   UNL     1      -8.315  -0.387 -10.809  0.00  0.00    -0.375 OA
ENDBRANCH  29  30
ENDBRANCH  23  29
ENDBRANCH  18  19
ENDBRANCH   1  18
TORSDOF 9
