REMARK  Name = ZINC08668316
REMARK  7 active torsions:
REMARK  status: ('A' for Active; 'I' for Inactive)
REMARK    1  A    between atoms: C_1  and  C_2
REMARK    2  A    between atoms: C_2  and  C_4
REMARK    3  A    between atoms: C_2  and  O_17
REMARK    4  A    between atoms: N_6  and  C_7
REMARK    5  A    between atoms: O_17  and  C_18
REMARK    6  A    between atoms: C_18  and  C_20
REMARK    7  A    between atoms: N_29  and  C_31
REMARK                            x       y       z     vdW  Elec       q    Type
REMARK                         _______ _______ _______ _____ _____    ______ ____
ROOT
ATOM      1  C   UNL     1      -7.238   3.236   0.394  0.00  0.00    +0.361 C 
ATOM      2  O   UNL     1      -7.353   4.367   0.822  0.00  0.00    -0.243 OA
ENDROOT
BRANCH   1   3
ATOM      3  C   UNL     1      -8.376   2.300   0.468  0.00  0.00    +0.176 A 
ATOM      4  C   UNL     1      -9.655   2.729   1.058  0.00  0.00    +0.021 A 
ATOM      5  C   UNL     1      -9.860   4.006   1.567  0.00  0.00    +0.011 A 
ATOM      6  C   UNL     1     -11.087   4.332   2.104  0.00  0.00    +0.001 A 
ATOM      7  C   UNL     1     -12.117   3.401   2.140  0.00  0.00    +0.001 A 
ATOM      8  C   UNL     1     -11.935   2.129   1.641  0.00  0.00    +0.014 A 
ATOM      9  C   UNL     1     -10.704   1.780   1.096  0.00  0.00    +0.051 A 
ATOM     10  C   UNL     1     -10.425   0.449   0.542  0.00  0.00    +0.280 A 
ATOM     11  O   UNL     1     -11.281  -0.417   0.541  0.00  0.00    -0.265 OA
ATOM     12  N   UNL     1      -9.199   0.207   0.034  0.00  0.00    -0.196 N 
ATOM     13  N   UNL     1      -8.263   1.079   0.004  0.00  0.00    -0.156 NA
BRANCH  12  14
ATOM     14  C   UNL     1      -8.939  -1.063  -0.492  0.00  0.00    +0.069 A 
ATOM     15  C   UNL     1      -9.150  -2.195   0.285  0.00  0.00    +0.028 A 
ATOM     16  C   UNL     1      -8.899  -3.447  -0.239  0.00  0.00    +0.002 A 
ATOM     17  C   UNL     1      -8.424  -3.575  -1.532  0.00  0.00    +0.000 A 
ATOM     18  C   UNL     1      -8.207  -2.449  -2.306  0.00  0.00    +0.002 A 
ATOM     19  C   UNL     1      -8.462  -1.194  -1.790  0.00  0.00    +0.028 A 
ENDBRANCH  12  14
ENDBRANCH   1   3
BRANCH   1  20
ATOM     20  O   UNL     1      -6.071   2.835  -0.147  0.00  0.00    -0.448 OA
BRANCH  20  22
ATOM     21  C   UNL     1      -5.065   4.595  -1.497  0.00  0.00    +0.062 C 
ATOM     22  C   UNL     1      -4.994   3.808  -0.187  0.00  0.00    +0.259 C 
BRANCH  22  23
ATOM     23  C   UNL     1      -3.669   3.095  -0.100  0.00  0.00    +0.258 C 
ATOM     24  O   UNL     1      -3.631   1.883  -0.105  0.00  0.00    -0.271 OA
ATOM     25  N   UNL     1      -2.526   3.805  -0.017  0.00  0.00    -0.282 N 
ATOM     26  H   UNL     1      -2.560   4.770   0.070  0.00  0.00    +0.155 HD
BRANCH  25  27
ATOM     27  C   UNL     1      -1.294   3.150  -0.056  0.00  0.00    +0.041 A 
ATOM     28  C   UNL     1      -1.179   1.921  -0.668  0.00  0.00    +0.024 A 
ATOM     29  C   UNL     1       0.044   1.257  -0.708  0.00  0.00    +0.002 A 
ATOM     30  C   UNL     1       1.161   1.807  -0.156  0.00  0.00    +0.008 A 
ATOM     31  C   UNL     1       1.087   3.062   0.472  0.00  0.00    -0.016 A 
ATOM     32  C   UNL     1      -0.153   3.745   0.524  0.00  0.00    +0.003 A 
ATOM     33  C   UNL     1      -0.224   4.999   1.150  0.00  0.00    +0.010 A 
ATOM     34  C   UNL     1       0.897   5.542   1.700  0.00  0.00    +0.001 A 
ATOM     35  C   UNL     1       2.117   4.872   1.650  0.00  0.00    +0.001 A 
ATOM     36  C   UNL     1       2.224   3.655   1.050  0.00  0.00    +0.008 A 
ENDBRANCH  25  27
ENDBRANCH  22  23
ENDBRANCH  20  22
ENDBRANCH   1  20
TORSDOF 6
