REMARK  Name = ZINC24535319
REMARK  5 active torsions:
REMARK  status: ('A' for Active; 'I' for Inactive)
REMARK    1  A    between atoms: C_1  and  C_2
REMARK    2  A    between atoms: C_4  and  C_7
REMARK    3  A    between atoms: C_16  and  C_18
REMARK    4  A    between atoms: C_18  and  S_19
REMARK    5  A    between atoms: S_19  and  C_20
REMARK                            x       y       z     vdW  Elec       q    Type
REMARK                         _______ _______ _______ _____ _____    ______ ____
ROOT
ATOM      1  C   UNL     1       0.369   6.900  -0.778  0.00  0.00    +0.001 A 
ATOM      2  C   UNL     1       0.667   5.635  -1.282  0.00  0.00    +0.012 A 
ATOM      3  C   UNL     1       0.287   4.509  -0.587  0.00  0.00    +0.024 A 
ATOM      4  C   UNL     1      -0.399   4.623   0.625  0.00  0.00    +0.040 A 
ATOM      5  C   UNL     1      -0.693   5.883   1.121  0.00  0.00    -0.024 A 
ATOM      6  C   UNL     1      -0.315   7.016   0.430  0.00  0.00    +0.015 A 
ATOM      7  C   UNL     1      -1.431   5.725   2.432  0.00  0.00    +0.056 C 
ATOM      8  C   UNL     1      -1.536   4.205   2.635  0.00  0.00    +0.118 C 
ATOM      9  N   UNL     1      -0.867   3.614   1.474  0.00  0.00    -0.270 N 
ATOM     10  C   UNL     1      -0.728   2.292   1.252  0.00  0.00    +0.230 C 
ATOM     11  O   UNL     1      -1.170   1.493   2.050  0.00  0.00    -0.274 OA
ENDROOT
BRANCH   1  15
ATOM     12  C   UNL     1       0.636  11.848  -1.345  0.00  0.00    +0.073 C 
ATOM     13  C   UNL     1       0.860  10.405  -1.715  0.00  0.00    +0.076 A 
ATOM     14  N   UNL     1       0.499   9.325  -1.065  0.00  0.00    -0.244 NA
ATOM     15  C   UNL     1       0.778   8.116  -1.525  0.00  0.00    +0.078 A 
ATOM     16  C   UNL     1       1.450   8.021  -2.713  0.00  0.00    +0.075 A 
ATOM     17  S   UNL     1       1.656   9.751  -3.112  0.00  0.00    -0.080 S 
ENDBRANCH   1  15
BRANCH  10  18
ATOM     18  C   UNL     1      -0.022   1.806   0.012  0.00  0.00    +0.173 C 
BRANCH  18  19
ATOM     19  S   UNL     1       0.002  -0.004   0.002  0.00  0.00    -0.077 S 
BRANCH  19  20
ATOM     20  C   UNL     1       0.859  -0.290  -1.510  0.00  0.00    +0.191 A 
ATOM     21  N   UNL     1       1.093  -1.538  -1.901  0.00  0.00    -0.207 NA
ATOM     22  C   UNL     1       1.731  -1.814  -3.026  0.00  0.00    +0.129 A 
ATOM     23  C   UNL     1       2.184  -0.746  -3.850  0.00  0.00    +0.047 A 
ATOM     24  C   UNL     1       2.899  -0.790  -5.115  0.00  0.00    +0.021 A 
ATOM     25  C   UNL     1       3.229   0.360  -5.720  0.00  0.00    +0.048 A 
ATOM     26  S   UNL     1       2.594   1.609  -4.618  0.00  0.00    -0.077 S 
ATOM     27  C   UNL     1       1.902   0.552  -3.373  0.00  0.00    +0.114 A 
ATOM     28  N   UNL     1       1.254   0.744  -2.240  0.00  0.00    -0.215 NA
ATOM     29  N   UNL     1       1.954  -3.127  -3.398  0.00  0.00    -0.343 N 
ATOM     30  H   UNL     1       2.485  -3.350  -4.335  0.00  0.00    +0.144 HD
ATOM     31  H   UNL     1       1.601  -3.948  -2.757  0.00  0.00    +0.144 HD
ENDBRANCH  19  20
ENDBRANCH  18  19
ENDBRANCH  10  18
TORSDOF 4
