REMARK  Name = ZINC09446227
REMARK  4 active torsions:
REMARK  status: ('A' for Active; 'I' for Inactive)
REMARK    1  A    between atoms: C_6  and  C_7
REMARK    2  A    between atoms: C_7  and  C_8
REMARK    3  A    between atoms: C_7  and  N_60
REMARK    4  A    between atoms: C_20  and  C_22
REMARK                            x       y       z     vdW  Elec       q    Type
REMARK                         _______ _______ _______ _____ _____    ______ ____
ROOT
ATOM      1  C   UNL     1       1.040   1.346   1.009  0.00  0.00    -0.058 C 
ATOM      2  C   UNL     1       2.468   1.901   1.034  0.00  0.00    +0.089 C 
ATOM      3  N   UNL     1       3.240   1.162   2.044  0.00  0.00    -0.305 N 
ATOM      4  C   UNL     1       3.223  -0.308   1.994  0.00  0.00    +0.089 C 
ATOM      5  C   UNL     1       1.765  -0.777   1.931  0.00  0.00    -0.058 C 
ATOM      6  C   UNL     1       3.944   1.813   2.991  0.00  0.00    +0.220 C 
ATOM      7  O   UNL     1       4.634   1.190   3.770  0.00  0.00    -0.275 OA
ATOM      8  N   UNL     1       1.102  -0.115   0.786  0.00  0.00    +0.389 N 
ATOM      9  H   UNL     1       1.646  -0.299  -0.065  0.00  0.00    -0.080 HD
ENDROOT
BRANCH   6  10
ATOM     10  C   UNL     1       3.874   3.316   3.081  0.00  0.00    +0.093 C 
ATOM     11  C   UNL     1       5.225   3.863   3.545  0.00  0.00    +0.016 C 
ATOM     12  C   UNL     1       5.165   5.391   3.606  0.00  0.00    +0.020 C 
ATOM     13  C   UNL     1       4.098   5.817   4.619  0.00  0.00    +0.109 C 
ATOM     14  N   UNL     1       2.825   5.176   4.261  0.00  0.00    -0.285 N 
ATOM     15  C   UNL     1       2.792   3.718   4.088  0.00  0.00    +0.122 C 
ATOM     16  C   UNL     1       1.708   5.913   4.095  0.00  0.00    +0.300 C 
ATOM     17  O   UNL     1       0.686   5.387   3.699  0.00  0.00    -0.253 OA
ATOM     18  N   UNL     1       1.726   7.233   4.366  0.00  0.00    -0.313 N 
ATOM     19  H   UNL     1       2.558   7.667   4.613  0.00  0.00    +0.146 HD
ATOM     20  H   UNL     1       0.906   7.750   4.315  0.00  0.00    +0.146 HD
ENDBRANCH   6  10
BRANCH   8  21
ATOM     21  C   UNL     1      -0.261  -0.657   0.611  0.00  0.00    -0.007 C 
BRANCH  21  27
ATOM     22  C   UNL     1      -0.232   0.295  -1.703  0.00  0.00    +0.005 A 
ATOM     23  C   UNL     1      -0.845   0.949  -2.755  0.00  0.00    +0.038 A 
ATOM     24  C   UNL     1      -2.156   1.378  -2.633  0.00  0.00    +0.123 A 
ATOM     25  C   UNL     1      -2.852   1.148  -1.458  0.00  0.00    +0.038 A 
ATOM     26  C   UNL     1      -2.238   0.489  -0.410  0.00  0.00    +0.005 A 
ATOM     27  C   UNL     1      -0.929   0.061  -0.533  0.00  0.00    -0.057 A 
ATOM     28  F   UNL     1      -2.755   2.022  -3.659  0.00  0.00    -0.205 F 
ENDBRANCH  21  27
BRANCH  21  29
ATOM     29  C   UNL     1      -0.163  -2.127   0.294  0.00  0.00    -0.057 A 
ATOM     30  C   UNL     1       0.885  -2.600  -0.473  0.00  0.00    +0.005 A 
ATOM     31  C   UNL     1       0.978  -3.948  -0.761  0.00  0.00    +0.038 A 
ATOM     32  C   UNL     1       0.015  -4.824  -0.289  0.00  0.00    +0.123 A 
ATOM     33  C   UNL     1      -1.037  -4.349   0.474  0.00  0.00    +0.038 A 
ATOM     34  C   UNL     1      -1.125  -3.001   0.765  0.00  0.00    +0.005 A 
ATOM     35  F   UNL     1       0.103  -6.142  -0.574  0.00  0.00    -0.205 F 
ENDBRANCH  21  29
ENDBRANCH   8  21
TORSDOF 4
