REMARK  Name = ZINC35605440
REMARK  8 active torsions:
REMARK  status: ('A' for Active; 'I' for Inactive)
REMARK    1  A    between atoms: C_1  and  C_2
REMARK    2  A    between atoms: C_2  and  C_4
REMARK    3  A    between atoms: C_2  and  O_17
REMARK    4  A    between atoms: N_6  and  C_7
REMARK    5  A    between atoms: C_7  and  C_8
REMARK    6  A    between atoms: O_17  and  C_18
REMARK    7  A    between atoms: C_18  and  C_20
REMARK    8  A    between atoms: C_25  and  N_26
REMARK                            x       y       z     vdW  Elec       q    Type
REMARK                         _______ _______ _______ _____ _____    ______ ____
ROOT
ATOM      1  C   UNL     1       0.462   0.932  -0.556  0.00  0.00    +0.062 C 
ATOM      2  C   UNL     1       0.327  -0.557  -0.877  0.00  0.00    +0.259 C 
ENDROOT
BRANCH   2   3
ATOM      3  C   UNL     1       1.267  -1.347  -0.003  0.00  0.00    +0.254 C 
ATOM      4  O   UNL     1       0.824  -2.122   0.818  0.00  0.00    -0.272 OA
ATOM      5  N   UNL     1       2.599  -1.193  -0.135  0.00  0.00    -0.308 N 
ATOM      6  H   UNL     1       2.953  -0.573  -0.792  0.00  0.00    +0.149 HD
BRANCH   5   7
ATOM      7  C   UNL     1       3.513  -1.960   0.715  0.00  0.00    +0.139 C 
BRANCH   7   8
ATOM      8  C   UNL     1       4.937  -1.606   0.371  0.00  0.00    -0.027 A 
ATOM      9  C   UNL     1       5.608  -2.317  -0.607  0.00  0.00    +0.009 A 
ATOM     10  C   UNL     1       6.913  -1.995  -0.926  0.00  0.00    +0.050 A 
ATOM     11  C   UNL     1       7.553  -0.958  -0.267  0.00  0.00    +0.166 A 
ATOM     12  C   UNL     1       6.877  -0.242   0.718  0.00  0.00    +0.167 A 
ATOM     13  C   UNL     1       5.567  -0.566   1.029  0.00  0.00    +0.054 A 
ATOM     14  O   UNL     1       7.714   0.717   1.211  0.00  0.00    -0.453 OA
ATOM     15  C   UNL     1       9.037   0.317   0.809  0.00  0.00    +0.466 C 
ATOM     16  O   UNL     1       8.814  -0.449  -0.390  0.00  0.00    -0.453 OA
ENDBRANCH   7   8
ENDBRANCH   5   7
ENDBRANCH   2   3
BRANCH   2  17
ATOM     17  O   UNL     1      -1.017  -0.978  -0.633  0.00  0.00    -0.449 OA
BRANCH  17  18
ATOM     18  C   UNL     1      -1.882  -0.886  -1.662  0.00  0.00    +0.342 C 
ATOM     19  O   UNL     1      -1.507  -0.462  -2.736  0.00  0.00    -0.245 OA
BRANCH  18  20
ATOM     20  C   UNL     1      -3.288  -1.303  -1.482  0.00  0.00    +0.089 A 
ATOM     21  C   UNL     1      -3.586  -2.583  -1.012  0.00  0.00    +0.019 A 
ATOM     22  C   UNL     1      -4.900  -2.966  -0.847  0.00  0.00    +0.021 A 
ATOM     23  C   UNL     1      -5.924  -2.083  -1.147  0.00  0.00    +0.043 A 
ATOM     24  C   UNL     1      -5.635  -0.812  -1.614  0.00  0.00    +0.053 A 
ATOM     25  C   UNL     1      -4.325  -0.415  -1.778  0.00  0.00    +0.141 A 
ATOM     26 CL   UNL     1      -7.576  -2.573  -0.938  0.00  0.00    -0.083 Cl
BRANCH  25  27
ATOM     27  N   UNL     1      -4.018   0.946  -2.271  0.00  0.00    +0.057 N 
ATOM     28  O   UNL     1      -4.912   1.670  -2.643  0.00  0.00    -0.126 OA
ATOM     29  O   UNL     1      -2.873   1.334  -2.303  0.00  0.00    -0.126 OA
ENDBRANCH  25  27
ENDBRANCH  18  20
ENDBRANCH  17  18
ENDBRANCH   2  17
TORSDOF 7
