REMARK  Name = ZINC32606879
REMARK  8 active torsions:
REMARK  status: ('A' for Active; 'I' for Inactive)
REMARK    1  A    between atoms: C_1  and  C_2
REMARK    2  A    between atoms: C_2  and  C_3
REMARK    3  A    between atoms: C_2  and  O_4
REMARK    4  A    between atoms: O_4  and  C_5
REMARK    5  A    between atoms: C_5  and  C_7
REMARK    6  A    between atoms: C_10  and  N_13
REMARK    7  A    between atoms: C_14  and  C_16
REMARK    8  A    between atoms: C_19  and  N_22
REMARK                            x       y       z     vdW  Elec       q    Type
REMARK                         _______ _______ _______ _____ _____    ______ ____
ROOT
ATOM      1  C   UNL     1      -8.372  -5.520  -1.508  0.00  0.00    +0.037 A 
ATOM      2  C   UNL     1      -9.431  -4.827  -0.917  0.00  0.00    +0.015 A 
ATOM      3  C   UNL     1     -10.716  -5.309  -1.032  0.00  0.00    +0.025 A 
ATOM      4  C   UNL     1     -10.960  -6.484  -1.735  0.00  0.00    +0.044 A 
ATOM      5  C   UNL     1      -9.908  -7.176  -2.324  0.00  0.00    +0.025 A 
ATOM      6  C   UNL     1      -8.621  -6.697  -2.218  0.00  0.00    +0.015 A 
ENDROOT
BRANCH   4   7
ATOM      7  N   UNL     1     -12.266  -6.970  -1.849  0.00  0.00    -0.210 N 
ATOM      8  C   UNL     1     -13.331  -6.348  -1.308  0.00  0.00    +0.230 C 
ATOM      9  O   UNL     1     -13.352  -5.227  -0.847  0.00  0.00    -0.274 OA
ATOM     10  C   UNL     1     -14.516  -7.325  -1.387  0.00  0.00    +0.092 C 
ATOM     11  C   UNL     1     -14.433  -8.146  -0.098  0.00  0.00    +0.040 C 
ATOM     12  C   UNL     1     -14.860  -9.562  -0.270  0.00  0.00    -0.030 C 
ATOM     13  C   UNL     1     -14.957 -10.171  -1.405  0.00  0.00    -0.030 C 
ATOM     14  C   UNL     1     -14.695  -9.505  -2.719  0.00  0.00    +0.040 C 
ATOM     15  C   UNL     1     -14.072  -8.144  -2.609  0.00  0.00    +0.092 C 
ATOM     16  C   UNL     1     -12.575  -8.104  -2.516  0.00  0.00    +0.230 C 
ATOM     17  O   UNL     1     -11.797  -8.926  -2.952  0.00  0.00    -0.274 OA
ENDBRANCH   4   7
BRANCH   1  19
ATOM     18  N   UNL     1      -6.754  -3.871  -0.702  0.00  0.00    -0.282 N 
ATOM     19  C   UNL     1      -6.993  -5.007  -1.387  0.00  0.00    +0.248 C 
ATOM     20  O   UNL     1      -6.073  -5.608  -1.906  0.00  0.00    -0.270 OA
ATOM     21  H   UNL     1      -7.475  -3.433  -0.223  0.00  0.00    +0.155 HD
BRANCH  18  25
ATOM     22  C   UNL     1      -2.921  -2.244  -0.637  0.00  0.00    +0.059 A 
ATOM     23  C   UNL     1      -3.380  -2.912  -1.777  0.00  0.00    +0.017 A 
ATOM     24  C   UNL     1      -4.647  -3.448  -1.795  0.00  0.00    +0.024 A 
ATOM     25  C   UNL     1      -5.472  -3.327  -0.680  0.00  0.00    +0.034 A 
ATOM     26  C   UNL     1      -5.019  -2.663   0.456  0.00  0.00    +0.024 A 
ATOM     27  C   UNL     1      -3.750  -2.129   0.483  0.00  0.00    +0.017 A 
BRANCH  22  28
ATOM     28  C   UNL     1      -1.564  -1.667  -0.614  0.00  0.00    +0.339 C 
ATOM     29  O   UNL     1      -1.165  -1.092   0.379  0.00  0.00    -0.245 OA
BRANCH  28  30
ATOM     30  O   UNL     1      -0.767  -1.779  -1.695  0.00  0.00    -0.458 OA
BRANCH  30  32
ATOM     31  C   UNL     1       1.510  -1.987  -2.479  0.00  0.00    +0.052 C 
ATOM     32  C   UNL     1       0.535  -1.197  -1.603  0.00  0.00    +0.171 C 
ATOM     33  C   UNL     1       0.480   0.255  -2.083  0.00  0.00    +0.052 C 
ENDBRANCH  30  32
ENDBRANCH  28  30
ENDBRANCH  22  28
ENDBRANCH  18  25
ENDBRANCH   1  19
TORSDOF 6
