REMARK  Name = ZINC06933426
REMARK  5 active torsions:
REMARK  status: ('A' for Active; 'I' for Inactive)
REMARK    1  A    between atoms: C_4  and  C_7
REMARK    2  A    between atoms: N_11  and  C_12
REMARK    3  A    between atoms: C_12  and  C_19
REMARK    4  A    between atoms: C_13  and  C_14
REMARK    5  A    between atoms: N_21  and  C_22
REMARK                            x       y       z     vdW  Elec       q    Type
REMARK                         _______ _______ _______ _____ _____    ______ ____
ROOT
ATOM      1  C   UNL     1       3.460   3.810   0.582  0.00  0.00    +0.134 C 
ATOM      2  C   UNL     1       3.709   2.474   0.522  0.00  0.00    +0.079 C 
ENDROOT
BRANCH   1   7
ATOM      3  C   UNL     1       1.936   4.726  -1.145  0.00  0.00    +0.187 A 
ATOM      4  N   UNL     1       0.682   5.130  -1.127  0.00  0.00    -0.108 NA
ATOM      5  N   UNL     1       0.182   4.993   0.048  0.00  0.00    -0.022 NA
ATOM      6  N   UNL     1       1.059   4.511   0.860  0.00  0.00    -0.038 NA
ATOM      7  N   UNL     1       2.239   4.316   0.120  0.00  0.00    -0.188 N 
BRANCH   3  11
ATOM      8  C   UNL     1       4.543   4.722  -4.499  0.00  0.00    +0.000 A 
ATOM      9  C   UNL     1       3.177   4.829  -4.689  0.00  0.00    +0.001 A 
ATOM     10  C   UNL     1       2.325   4.830  -3.604  0.00  0.00    +0.011 A 
ATOM     11  C   UNL     1       2.844   4.724  -2.313  0.00  0.00    +0.021 A 
ATOM     12  C   UNL     1       4.222   4.616  -2.128  0.00  0.00    +0.011 A 
ATOM     13  C   UNL     1       5.064   4.616  -3.222  0.00  0.00    +0.001 A 
ENDBRANCH   3  11
ENDBRANCH   1   7
BRANCH   2  14
ATOM     14  C   UNL     1       2.724   1.592   0.019  0.00  0.00    +0.130 A 
ATOM     15  C   UNL     1       2.813   0.216  -0.030  0.00  0.00    +0.049 A 
ATOM     16  C   UNL     1       1.615  -0.241  -0.602  0.00  0.00    +0.042 A 
ATOM     17  C   UNL     1       0.861   0.846  -0.873  0.00  0.00    +0.195 A 
ATOM     18  O   UNL     1       1.527   1.946  -0.493  0.00  0.00    -0.463 OA
ENDBRANCH   2  14
BRANCH   1  19
ATOM     19  C   UNL     1       4.469   4.720   1.129  0.00  0.00    +0.263 C 
ATOM     20  O   UNL     1       5.492   4.272   1.615  0.00  0.00    -0.269 OA
ATOM     21  N   UNL     1       4.265   6.051   1.095  0.00  0.00    -0.307 N 
ATOM     22  H   UNL     1       3.423   6.405   0.769  0.00  0.00    +0.149 HD
BRANCH  21  23
ATOM     23  C   UNL     1       5.317   6.965   1.548  0.00  0.00    +0.073 C 
ATOM     24  C   UNL     1       5.256   7.073   3.086  0.00  0.00    +0.022 C 
ATOM     25  C   UNL     1       6.588   7.566   3.584  0.00  0.00    +0.002 C 
ATOM     26  C   UNL     1       6.621   9.095   3.764  0.00  0.00    +0.000 C 
ATOM     27  C   UNL     1       5.924   9.847   2.614  0.00  0.00    +0.000 C 
ATOM     28  C   UNL     1       6.244   9.261   1.265  0.00  0.00    +0.002 C 
ATOM     29  C   UNL     1       5.137   8.253   0.895  0.00  0.00    +0.022 C 
ENDBRANCH  21  23
ENDBRANCH   1  19
TORSDOF 5
