REMARK  Name = ZINC13343992
REMARK  7 active torsions:
REMARK  status: ('A' for Active; 'I' for Inactive)
REMARK    1  A    between atoms: C_3  and  N_30
REMARK    2  A    between atoms: C_6  and  C_7
REMARK    3  A    between atoms: C_10  and  C_12
REMARK    4  A    between atoms: C_13  and  C_14
REMARK    5  A    between atoms: C_13  and  C_28
REMARK    6  A    between atoms: C_17  and  S_19
REMARK    7  A    between atoms: S_19  and  N_22
REMARK                            x       y       z     vdW  Elec       q    Type
REMARK                         _______ _______ _______ _____ _____    ______ ____
ROOT
ATOM      1  C   UNL     1       4.519  -0.008  -1.143  0.00  0.00    +0.062 C 
ATOM      2  C   UNL     1       3.690  -0.211  -0.018  0.00  0.00    +0.080 C 
ENDROOT
BRANCH   1   6
ATOM      3  C   UNL     1       7.712  -1.430  -0.614  0.00  0.00    +0.136 A 
ATOM      4  C   UNL     1       8.073  -0.319  -1.391  0.00  0.00    +0.050 A 
ATOM      5  C   UNL     1       6.925   0.354  -1.695  0.00  0.00    +0.050 A 
ATOM      6  C   UNL     1       5.858  -0.351  -1.087  0.00  0.00    +0.129 A 
ATOM      7  O   UNL     1       6.378  -1.423  -0.448  0.00  0.00    -0.455 OA
BRANCH   3  13
ATOM      8  C   UNL     1      10.013  -2.330  -0.322  0.00  0.00    +0.014 A 
ATOM      9  C   UNL     1      10.874  -3.273   0.195  0.00  0.00    +0.033 A 
ATOM     10  C   UNL     1      10.382  -4.325   0.952  0.00  0.00    +0.126 A 
ATOM     11  C   UNL     1       9.024  -4.437   1.200  0.00  0.00    +0.033 A 
ATOM     12  C   UNL     1       8.148  -3.501   0.695  0.00  0.00    +0.014 A 
ATOM     13  C   UNL     1       8.636  -2.432  -0.072  0.00  0.00    +0.017 A 
BRANCH  10  14
ATOM     14  N   UNL     1      11.315  -5.337   1.498  0.00  0.00    +0.056 N 
ATOM     15  O   UNL     1      10.853  -6.338   2.216  0.00  0.00    -0.126 OA
ATOM     16  O   UNL     1      12.607  -5.235   1.264  0.00  0.00    -0.126 OA
ENDBRANCH  10  14
ENDBRANCH   3  13
ENDBRANCH   1   6
BRANCH   2  17
ATOM     17  C   UNL     1       2.311  -0.042  -0.128  0.00  0.00    +0.028 A 
ATOM     18  C   UNL     1       1.276  -1.010   0.005  0.00  0.00    +0.018 A 
ATOM     19  C   UNL     1       0.015  -0.577  -0.151  0.00  0.00    +0.037 A 
ATOM     20  C   UNL     1      -0.212   0.768  -0.431  0.00  0.00    +0.143 A 
ATOM     21  S   UNL     1       1.384   1.443  -0.474  0.00  0.00    -0.068 S 
BRANCH  20  22
ATOM     22  S   UNL     1      -1.752   1.587  -0.686  0.00  0.00    +0.067 S 
ATOM     23  O   UNL     1      -1.473   2.745  -1.460  0.00  0.00    -0.152 OA
ATOM     24  O   UNL     1      -2.675   0.592  -1.108  0.00  0.00    -0.152 OA
BRANCH  22  25
ATOM     25  N   UNL     1      -2.274   2.119   0.793  0.00  0.00    -0.172 NA
ATOM     26  C   UNL     1      -3.127   1.275   1.645  0.00  0.00    +0.137 C 
ATOM     27  C   UNL     1      -2.504   1.227   3.049  0.00  0.00    +0.177 C 
ATOM     28  O   UNL     1      -2.275   2.562   3.506  0.00  0.00    -0.377 OA
ATOM     29  C   UNL     1      -1.345   3.302   2.710  0.00  0.00    +0.177 C 
ATOM     30  C   UNL     1      -1.904   3.454   1.291  0.00  0.00    +0.137 C 
ENDBRANCH  22  25
ENDBRANCH  20  22
ENDBRANCH   2  17
BRANCH   2  31
ATOM     31  C   UNL     1       4.288  -0.604   1.283  0.00  0.00    +0.388 C 
ATOM     32  O   UNL     1       5.494  -0.635   1.412  0.00  0.00    -0.241 OA
ATOM     33  O   UNL     1       3.492  -0.926   2.320  0.00  0.00    -0.241 OA
ENDBRANCH   2  31
TORSDOF 7
