REMARK  Name = ZINC00778259
REMARK  8 active torsions:
REMARK  status: ('A' for Active; 'I' for Inactive)
REMARK    1  A    between atoms: C_4  and  O_7
REMARK    2  A    between atoms: O_7  and  C_8
REMARK    3  A    between atoms: C_12  and  C_14
REMARK    4  A    between atoms: C_15  and  C_16
REMARK    5  A    between atoms: C_15  and  C_18
REMARK    6  A    between atoms: N_20  and  C_21
REMARK    7  A    between atoms: C_24  and  S_27
REMARK    8  A    between atoms: S_27  and  N_30
REMARK                            x       y       z     vdW  Elec       q    Type
REMARK                         _______ _______ _______ _____ _____    ______ ____
ROOT
ATOM      1  C   UNL     1      -0.146   1.579   0.186  0.00  0.00    +0.032 C 
ATOM      2  C   UNL     1       1.134   1.959  -0.103  0.00  0.00    +0.114 C 
ENDROOT
BRANCH   1   7
ATOM      3  C   UNL     1      -1.985  -1.682  -0.053  0.00  0.00    +0.129 A 
ATOM      4  C   UNL     1      -1.095  -2.536   0.587  0.00  0.00    +0.046 A 
ATOM      5  C   UNL     1       0.098  -2.050   1.093  0.00  0.00    +0.004 A 
ATOM      6  C   UNL     1       0.413  -0.714   0.966  0.00  0.00    +0.008 A 
ATOM      7  C   UNL     1      -0.476   0.156   0.323  0.00  0.00    -0.020 A 
ATOM      8  C   UNL     1      -1.685  -0.338  -0.183  0.00  0.00    +0.054 A 
BRANCH   3   9
ATOM      9  O   UNL     1      -3.154  -2.167  -0.548  0.00  0.00    -0.456 OA
BRANCH   9  13
ATOM     10  C   UNL     1      -3.439  -2.758  -4.620  0.00  0.00    +0.000 A 
ATOM     11  C   UNL     1      -4.480  -3.137  -3.794  0.00  0.00    +0.004 A 
ATOM     12  C   UNL     1      -4.388  -2.940  -2.429  0.00  0.00    +0.046 A 
ATOM     13  C   UNL     1      -3.248  -2.361  -1.889  0.00  0.00    +0.128 A 
ATOM     14  C   UNL     1      -2.207  -1.977  -2.722  0.00  0.00    +0.046 A 
ATOM     15  C   UNL     1      -2.303  -2.180  -4.085  0.00  0.00    +0.004 A 
ENDBRANCH   9  13
ENDBRANCH   3   9
ENDBRANCH   1   7
BRANCH   2  16
ATOM     16  C   UNL     1       2.108   0.962  -0.577  0.00  0.00    +0.259 C 
ATOM     17  O   UNL     1       1.745  -0.173  -0.825  0.00  0.00    -0.269 OA
ATOM     18  N   UNL     1       3.401   1.306  -0.737  0.00  0.00    -0.281 N 
ATOM     19  H   UNL     1       3.701   2.193  -0.484  0.00  0.00    +0.155 HD
BRANCH  18  20
ATOM     20  C   UNL     1       4.309   0.384  -1.267  0.00  0.00    +0.034 A 
ATOM     21  C   UNL     1       5.630   0.383  -0.837  0.00  0.00    +0.025 A 
ATOM     22  C   UNL     1       6.524  -0.532  -1.359  0.00  0.00    +0.030 A 
ATOM     23  C   UNL     1       6.107  -1.438  -2.316  0.00  0.00    +0.105 A 
ATOM     24  C   UNL     1       4.794  -1.436  -2.750  0.00  0.00    +0.030 A 
ATOM     25  C   UNL     1       3.894  -0.528  -2.228  0.00  0.00    +0.025 A 
BRANCH  23  26
ATOM     26  S   UNL     1       7.252  -2.599  -2.985  0.00  0.00    +0.056 S 
ATOM     27  O   UNL     1       8.283  -2.755  -2.019  0.00  0.00    -0.153 OA
ATOM     28  O   UNL     1       6.486  -3.695  -3.465  0.00  0.00    -0.153 OA
BRANCH  26  29
ATOM     29  N   UNL     1       7.949  -1.892  -4.310  0.00  0.00    -0.204 NA
ATOM     30  H   UNL     1       8.856  -2.124  -4.564  0.00  0.00    +0.144 HD
ATOM     31  H   UNL     1       7.449  -1.246  -4.834  0.00  0.00    +0.144 HD
ENDBRANCH  26  29
ENDBRANCH  23  26
ENDBRANCH  18  20
ENDBRANCH   2  16
BRANCH   2  32
ATOM     32  C   UNL     1       1.528   3.326   0.054  0.00  0.00    +0.104 C 
ATOM     33  N   UNL     1       1.841   4.411   0.179  0.00  0.00    -0.191 NA
ENDBRANCH   2  32
TORSDOF 8
