REMARK  Name = ZINC39781270
REMARK  7 active torsions:
REMARK  status: ('A' for Active; 'I' for Inactive)
REMARK    1  A    between atoms: C_1  and  C_2
REMARK    2  A    between atoms: C_6  and  N_12
REMARK    3  A    between atoms: C_9  and  C_11
REMARK    4  A    between atoms: C_13  and  C_15
REMARK    5  A    between atoms: C_15  and  S_16
REMARK    6  A    between atoms: S_16  and  C_17
REMARK    7  A    between atoms: N_20  and  C_24
REMARK                            x       y       z     vdW  Elec       q    Type
REMARK                         _______ _______ _______ _____ _____    ______ ____
ROOT
ATOM      1  N   UNL     1       3.475  -2.178  -3.657  0.00  0.00    -0.285 N 
ATOM      2  C   UNL     1       4.689  -2.390  -4.204  0.00  0.00    +0.225 C 
ATOM      3  O   UNL     1       5.146  -1.592  -4.994  0.00  0.00    -0.275 OA
ATOM      4  H   UNL     1       3.110  -2.817  -3.025  0.00  0.00    +0.151 HD
ENDROOT
BRANCH   1   9
ATOM      5  C   UNL     1      -0.107   2.031  -2.215  0.00  0.00    +0.030 C 
ATOM      6  C   UNL     1      -0.170   0.504  -2.129  0.00  0.00    +0.099 C 
ATOM      7  C   UNL     1       0.769  -0.097  -3.139  0.00  0.00    -0.011 C 
ATOM      8  C   UNL     1       2.031  -0.421  -2.808  0.00  0.00    +0.065 C 
ATOM      9  C   UNL     1       2.709  -0.983  -4.017  0.00  0.00    +0.243 C 
ATOM     10  O   UNL     1       1.648  -1.326  -4.936  0.00  0.00    -0.347 OA
ATOM     11  C   UNL     1       0.563  -0.441  -4.582  0.00  0.00    +0.146 C 
ATOM     12  C   UNL     1       0.614   0.825  -5.439  0.00  0.00    +0.043 C 
ATOM     13  C   UNL     1       2.510  -0.206  -1.433  0.00  0.00    +0.258 C 
ATOM     14  O   UNL     1       3.678  -0.346  -1.127  0.00  0.00    -0.269 OA
ATOM     15  N   UNL     1       1.567   0.159  -0.529  0.00  0.00    -0.247 N 
ATOM     16  N   UNL     1       0.234   0.070  -0.785  0.00  0.00    -0.233 NA
ATOM     17  H   UNL     1       1.853   0.496   0.334  0.00  0.00    +0.169 HD
ATOM     18  H   UNL     1      -0.113  -0.856  -0.585  0.00  0.00    +0.145 HD
ENDBRANCH   1   9
BRANCH   2  19
ATOM     19  C   UNL     1       5.477  -3.620  -3.835  0.00  0.00    +0.167 C 
BRANCH  19  20
ATOM     20  S   UNL     1       7.055  -3.619  -4.730  0.00  0.00    -0.120 S 
BRANCH  20  21
ATOM     21  C   UNL     1       7.872  -5.143  -4.182  0.00  0.00    +0.195 C 
ATOM     22  N   UNL     1       7.013  -6.340  -4.411  0.00  0.00    -0.211 NA
ATOM     23  N   UNL     1       7.093  -7.270  -3.439  0.00  0.00    -0.221 N 
ATOM     24  C   UNL     1       7.528  -6.961  -2.194  0.00  0.00    +0.130 C 
ATOM     25  S   UNL     1       7.626  -7.975  -0.818  0.00  0.00    -0.026 S 
ATOM     26  S   UNL     1       7.976  -5.233  -2.341  0.00  0.00    -0.070 S 
ATOM     27  H   UNL     1       6.055  -6.071  -4.576  0.00  0.00    +0.147 HD
BRANCH  23  28
ATOM     28  C   UNL     1       6.717  -8.587  -3.723  0.00  0.00    +0.051 A 
ATOM     29  C   UNL     1       5.511  -8.844  -4.362  0.00  0.00    +0.025 A 
ATOM     30  C   UNL     1       5.143 -10.146  -4.641  0.00  0.00    +0.002 A 
ATOM     31  C   UNL     1       5.973 -11.192  -4.284  0.00  0.00    +0.000 A 
ATOM     32  C   UNL     1       7.174 -10.940  -3.647  0.00  0.00    +0.002 A 
ATOM     33  C   UNL     1       7.551  -9.640  -3.371  0.00  0.00    +0.025 A 
ENDBRANCH  23  28
ENDBRANCH  20  21
ENDBRANCH  19  20
ENDBRANCH   2  19
TORSDOF 5
