REMARK  Name = ZINC17660607
REMARK  6 active torsions:
REMARK  status: ('A' for Active; 'I' for Inactive)
REMARK    1  A    between atoms: C_1  and  C_2
REMARK    2  A    between atoms: C_5  and  N_8
REMARK    3  A    between atoms: C_12  and  C_13
REMARK    4  A    between atoms: C_22  and  S_23
REMARK    5  A    between atoms: S_23  and  C_24
REMARK    6  A    between atoms: C_24  and  C_25
REMARK                            x       y       z     vdW  Elec       q    Type
REMARK                         _______ _______ _______ _____ _____    ______ ____
ROOT
ATOM      1  N   UNL     1       2.934   5.653  -0.230  0.00  0.00    -0.214 N 
ATOM      2  C   UNL     1       2.486   4.428   0.124  0.00  0.00    +0.275 C 
ATOM      3  O   UNL     1       1.357   4.126   0.465  0.00  0.00    -0.268 OA
ATOM      4  C   UNL     1       3.655   3.534   0.011  0.00  0.00    +0.129 C 
ATOM      5  C   UNL     1       3.693   2.194   0.268  0.00  0.00    +0.041 C 
ATOM      6  N   UNL     1       4.692   4.324  -0.398  0.00  0.00    -0.220 NA
ATOM      7  C   UNL     1       4.268   5.552  -0.542  0.00  0.00    +0.169 C 
ENDROOT
BRANCH   5   8
ATOM      8  C   UNL     1       2.537   1.532   0.884  0.00  0.00    -0.021 A 
ATOM      9  C   UNL     1       1.832   2.163   1.917  0.00  0.00    +0.009 A 
ATOM     10  C   UNL     1       0.748   1.535   2.490  0.00  0.00    +0.022 A 
ATOM     11  C   UNL     1       0.354   0.283   2.048  0.00  0.00    +0.059 A 
ATOM     12  C   UNL     1       1.046  -0.349   1.026  0.00  0.00    +0.060 A 
ATOM     13  C   UNL     1       2.133   0.266   0.442  0.00  0.00    +0.029 A 
ATOM     14 CL   UNL     1       0.542  -1.918   0.480  0.00  0.00    -0.082 Cl
ATOM     15 CL   UNL     1      -1.014  -0.499   2.777  0.00  0.00    -0.082 Cl
ENDBRANCH   5   8
BRANCH   1  20
ATOM     16  C   UNL     1      -0.168  10.403  -0.401  0.00  0.00    +0.044 C 
ATOM     17  C   UNL     1       0.655   9.142  -0.355  0.00  0.00    -0.050 A 
ATOM     18  C   UNL     1       0.407   8.122  -1.256  0.00  0.00    +0.005 A 
ATOM     19  C   UNL     1       1.160   6.965  -1.217  0.00  0.00    +0.024 A 
ATOM     20  C   UNL     1       2.168   6.826  -0.272  0.00  0.00    +0.044 A 
ATOM     21  C   UNL     1       2.411   7.849   0.634  0.00  0.00    +0.024 A 
ATOM     22  C   UNL     1       1.659   9.006   0.587  0.00  0.00    +0.005 A 
ENDBRANCH   1  20
BRANCH   7  23
ATOM     23  S   UNL     1       5.276   6.901  -1.060  0.00  0.00    -0.082 S 
BRANCH  23  24
ATOM     24  C   UNL     1       6.856   6.046  -1.283  0.00  0.00    +0.153 C 
BRANCH  24  25
ATOM     25  C   UNL     1       7.901   7.032  -1.739  0.00  0.00    +0.146 A 
ATOM     26  N   UNL     1       8.090   7.242  -3.030  0.00  0.00    -0.199 NA
ATOM     27  C   UNL     1       9.008   8.116  -3.436  0.00  0.00    +0.217 A 
ATOM     28  N   UNL     1       9.742   8.769  -2.542  0.00  0.00    -0.181 NA
ATOM     29  C   UNL     1       9.553   8.551  -1.245  0.00  0.00    +0.217 A 
ATOM     30  N   UNL     1       8.629   7.679  -0.846  0.00  0.00    -0.199 NA
ATOM     31  N   UNL     1      10.313   9.226  -0.312  0.00  0.00    -0.327 N 
ATOM     32  N   UNL     1       9.201   8.339  -4.784  0.00  0.00    -0.327 N 
ATOM     33  H   UNL     1      10.175   9.067   0.634  0.00  0.00    +0.145 HD
ATOM     34  H   UNL     1      10.986   9.861  -0.603  0.00  0.00    +0.145 HD
ATOM     35  H   UNL     1       9.873   8.973  -5.079  0.00  0.00    +0.145 HD
ATOM     36  H   UNL     1       8.665   7.862  -5.436  0.00  0.00    +0.145 HD
ENDBRANCH  24  25
ENDBRANCH  23  24
ENDBRANCH   7  23
TORSDOF 5
