REMARK  Name = ZINC09447933
REMARK  7 active torsions:
REMARK  status: ('A' for Active; 'I' for Inactive)
REMARK    1  A    between atoms: C_2  and  C_3
REMARK    2  A    between atoms: C_3  and  N_4
REMARK    3  A    between atoms: C_5  and  C_26
REMARK    4  A    between atoms: C_8  and  S_9
REMARK    5  A    between atoms: S_9  and  C_10
REMARK    6  A    between atoms: C_10  and  C_11
REMARK    7  A    between atoms: N_13  and  N_14
REMARK                            x       y       z     vdW  Elec       q    Type
REMARK                         _______ _______ _______ _____ _____    ______ ____
ROOT
ATOM      1  C   UNL     1      -1.573   4.818  -5.198  0.00  0.00    +0.240 C 
ATOM      2  O   UNL     1      -0.944   5.622  -4.542  0.00  0.00    -0.273 OA
ATOM      3  N   UNL     1      -1.809   5.051  -6.504  0.00  0.00    -0.223 N 
ATOM      4  H   UNL     1      -2.312   4.409  -7.028  0.00  0.00    +0.174 HD
ENDROOT
BRANCH   3   5
ATOM      5  N   UNL     1      -1.327   6.222  -7.105  0.00  0.00    -0.137 N 
ATOM      6  C   UNL     1      -0.267   6.266  -7.938  0.00  0.00    +0.263 C 
ATOM      7  O   UNL     1       0.424   5.337  -8.295  0.00  0.00    -0.271 OA
ATOM      8  C   UNL     1      -0.122   7.718  -8.331  0.00  0.00    +0.114 C 
ATOM      9  C   UNL     1      -0.293   7.880  -9.837  0.00  0.00    +0.035 C 
ATOM     10  C   UNL     1      -0.171   9.359 -10.211  0.00  0.00    +0.003 C 
ATOM     11  C   UNL     1       1.199   9.883  -9.777  0.00  0.00    +0.000 C 
ATOM     12  C   UNL     1       1.345   9.737  -8.261  0.00  0.00    +0.003 C 
ATOM     13  C   UNL     1       1.230   8.259  -7.879  0.00  0.00    +0.035 C 
ATOM     14  N   UNL     1      -1.212   8.392  -7.614  0.00  0.00    -0.284 N 
ATOM     15  C   UNL     1      -1.866   7.435  -6.928  0.00  0.00    +0.326 C 
ATOM     16  O   UNL     1      -2.834   7.648  -6.225  0.00  0.00    -0.251 OA
ATOM     17  H   UNL     1      -1.423   9.339  -7.634  0.00  0.00    +0.151 HD
ENDBRANCH   3   5
BRANCH   1  18
ATOM     18  C   UNL     1      -2.091   3.559  -4.551  0.00  0.00    +0.174 C 
BRANCH  18  19
ATOM     19  S   UNL     1      -1.615   3.537  -2.805  0.00  0.00    -0.077 S 
BRANCH  19  24
ATOM     20  N   UNL     1      -2.284   1.453  -1.064  0.00  0.00    -0.298 N 
ATOM     21  C   UNL     1      -2.975   0.267  -1.155  0.00  0.00    +0.165 A 
ATOM     22  N   UNL     1      -3.382   0.154  -2.398  0.00  0.00    -0.128 NA
ATOM     23  N   UNL     1      -2.999   1.174  -3.080  0.00  0.00    -0.122 NA
ATOM     24  C   UNL     1      -2.328   2.003  -2.313  0.00  0.00    +0.193 A 
BRANCH  21  25
ATOM     25  C   UNL     1      -3.213  -0.698  -0.061  0.00  0.00    +0.019 A 
ATOM     26  C   UNL     1      -2.416  -0.671   1.084  0.00  0.00    +0.011 A 
ATOM     27  C   UNL     1      -2.647  -1.571   2.103  0.00  0.00    +0.001 A 
ATOM     28  C   UNL     1      -3.660  -2.506   1.988  0.00  0.00    +0.000 A 
ATOM     29  C   UNL     1      -4.451  -2.541   0.854  0.00  0.00    +0.001 A 
ATOM     30  C   UNL     1      -4.234  -1.643  -0.171  0.00  0.00    +0.011 A 
ENDBRANCH  21  25
BRANCH  20  31
ATOM     31  C   UNL     1      -1.640   2.013   0.128  0.00  0.00    +0.152 C 
BRANCH  31  33
ATOM     32  C   UNL     1       0.757   2.456   0.260  0.00  0.00    +0.005 C 
ATOM     33  C   UNL     1      -0.202   1.567   0.177  0.00  0.00    -0.013 C 
ENDBRANCH  31  33
ENDBRANCH  20  31
ENDBRANCH  19  24
ENDBRANCH  18  19
ENDBRANCH   1  18
TORSDOF 7
