REMARK  Name = ZINC20286748
REMARK  13 active torsions:
REMARK  status: ('A' for Active; 'I' for Inactive)
REMARK    1  A    between atoms: C_1  and  C_2
REMARK    2  A    between atoms: C_5  and  C_36
REMARK    3  A    between atoms: N_8  and  C_10
REMARK    4  A    between atoms: C_10  and  C_11
REMARK    5  A    between atoms: C_11  and  C_12
REMARK    6  A    between atoms: C_12  and  N_13
REMARK    7  A    between atoms: C_14  and  C_16
REMARK    8  A    between atoms: C_16  and  N_17
REMARK    9  A    between atoms: N_17  and  C_18
REMARK   10  A    between atoms: N_17  and  S_19
REMARK   11  A    between atoms: S_19  and  C_22
REMARK   12  A    between atoms: N_30  and  C_35
REMARK   13  A    between atoms: N_33  and  C_34
REMARK                            x       y       z     vdW  Elec       q    Type
REMARK                         _______ _______ _______ _____ _____    ______ ____
ROOT
ATOM      1  N   UNL     1      -1.275   7.253   5.336  0.00  0.00    -0.171 NA
ATOM      2  C   UNL     1      -1.296   7.156   6.798  0.00  0.00    +0.132 C 
ENDROOT
BRANCH   1   3
ATOM      3  S   UNL     1      -2.588   6.762   4.455  0.00  0.00    +0.061 S 
ATOM      4  O   UNL     1      -2.530   7.458   3.217  0.00  0.00    -0.153 OA
ATOM      5  O   UNL     1      -3.712   6.843   5.322  0.00  0.00    -0.153 OA
BRANCH   3   6
ATOM      6  C   UNL     1      -2.360   5.055   4.085  0.00  0.00    +0.106 A 
ATOM      7  C   UNL     1      -2.841   4.090   4.957  0.00  0.00    +0.030 A 
ATOM      8  C   UNL     1      -2.672   2.748   4.684  0.00  0.00    +0.028 A 
ATOM      9  C   UNL     1      -2.014   2.358   3.527  0.00  0.00    +0.058 A 
ATOM     10  C   UNL     1      -1.525   3.335   2.643  0.00  0.00    +0.065 A 
ATOM     11  C   UNL     1      -1.703   4.686   2.929  0.00  0.00    +0.044 A 
ATOM     12  C   UNL     1      -0.826   2.886   1.425  0.00  0.00    +0.264 A 
ATOM     13  O   UNL     1      -0.379   3.690   0.630  0.00  0.00    -0.267 OA
ATOM     14  N   UNL     1      -0.698   1.558   1.213  0.00  0.00    -0.263 N 
ATOM     15  C   UNL     1      -1.183   0.663   2.088  0.00  0.00    +0.332 A 
ATOM     16  O   UNL     1      -1.037  -0.520   1.851  0.00  0.00    -0.246 OA
ATOM     17  N   UNL     1      -1.823   1.020   3.215  0.00  0.00    -0.296 N 
ATOM     18  C   UNL     1      -2.324  -0.015   4.123  0.00  0.00    +0.154 C 
ATOM     19  C   UNL     1      -0.013   1.086   0.008  0.00  0.00    +0.157 C 
ENDBRANCH   3   6
ENDBRANCH   1   3
BRANCH   1  20
ATOM     20  C   UNL     1      -0.092   7.783   4.654  0.00  0.00    +0.204 C 
BRANCH  20  22
ATOM     21  N   UNL     1       0.816   9.996   4.023  0.00  0.00    -0.314 N 
ATOM     22  C   UNL     1      -0.170   9.287   4.607  0.00  0.00    +0.229 C 
ATOM     23  O   UNL     1      -1.121   9.860   5.096  0.00  0.00    -0.274 OA
ATOM     24  H   UNL     1       1.678   9.476   3.579  0.00  0.00    +0.149 HD
BRANCH  21  25
ATOM     25  C   UNL     1       0.739  11.458   3.978  0.00  0.00    +0.102 C 
BRANCH  25  26
ATOM     26  C   UNL     1       1.975  12.012   3.265  0.00  0.00    +0.000 C 
BRANCH  26  27
ATOM     27  C   UNL     1       1.895  13.539   3.218  0.00  0.00    -0.077 C 
BRANCH  27  33
ATOM     28  C   UNL     1       6.793  13.980   3.318  0.00  0.00    +0.005 C 
ATOM     29  C   UNL     1       5.525  14.238   2.502  0.00  0.00    -0.031 C 
ATOM     30  C   UNL     1       5.417  15.733   2.185  0.00  0.00    +0.003 C 
ATOM     31  C   UNL     1       4.115  15.992   1.421  0.00  0.00    -0.031 C 
ATOM     32  C   UNL     1       2.931  15.505   2.259  0.00  0.00    -0.076 C 
ATOM     33  N   UNL     1       3.081  14.070   2.534  0.00  0.00    +0.380 N 
ATOM     34  C   UNL     1       4.300  13.803   3.309  0.00  0.00    -0.076 C 
ATOM     35  C   UNL     1       4.145  15.235   0.091  0.00  0.00    +0.005 C 
ATOM     36  H   UNL     1       3.177  13.552   1.569  0.00  0.00    -0.082 HD
ENDBRANCH  27  33
ENDBRANCH  26  27
ENDBRANCH  25  26
ENDBRANCH  21  25
ENDBRANCH  20  22
ENDBRANCH   1  20
TORSDOF 8
