REMARK  Name = ZINC04039687
REMARK  6 active torsions:
REMARK  status: ('A' for Active; 'I' for Inactive)
REMARK    1  A    between atoms: C_1  and  C_2
REMARK    2  A    between atoms: C_15  and  O_33
REMARK    3  A    between atoms: C_18  and  C_31
REMARK    4  A    between atoms: C_23  and  C_25
REMARK    5  A    between atoms: C_25  and  C_30
REMARK    6  A    between atoms: C_31  and  O_32
REMARK                            x       y       z     vdW  Elec       q    Type
REMARK                         _______ _______ _______ _____ _____    ______ ____
ROOT
ATOM      1  C   UNL     1      -2.311  -1.855   4.640  0.00  0.00    +0.012 C 
ATOM      2  C   UNL     1      -2.005  -2.070   3.161  0.00  0.00    -0.023 C 
ATOM      3  C   UNL     1      -3.203  -2.755   2.501  0.00  0.00    +0.012 C 
ATOM      4  C   UNL     1      -3.395  -4.181   3.013  0.00  0.00    +0.065 C 
ATOM      5  C   UNL     1      -2.125  -5.003   2.805  0.00  0.00    +0.170 C 
ATOM      6  C   UNL     1      -0.968  -4.337   3.554  0.00  0.00    +0.069 C 
ATOM      7  C   UNL     1      -0.759  -2.941   2.975  0.00  0.00    +0.000 C 
ATOM      8  C   UNL     1       0.481  -2.294   3.582  0.00  0.00    +0.004 C 
ATOM      9  C   UNL     1       0.729  -0.935   2.913  0.00  0.00    +0.004 C 
ATOM     10  C   UNL     1      -0.512  -0.071   3.140  0.00  0.00    -0.001 C 
ATOM     11  C   UNL     1      -1.717  -0.728   2.468  0.00  0.00    +0.027 C 
ATOM     12  C   UNL     1      -2.911   0.200   2.404  0.00  0.00    +0.119 C 
ATOM     13  C   UNL     1      -2.603   1.539   1.712  0.00  0.00    +0.041 C 
ATOM     14  C   UNL     1      -1.132   1.715   1.455  0.00  0.00    +0.007 C 
ATOM     15  C   UNL     1      -0.327   1.352   2.718  0.00  0.00    +0.001 C 
ATOM     16  C   UNL     1       1.087   1.809   2.337  0.00  0.00    +0.005 C 
ATOM     17  C   UNL     1       0.832   3.146   1.588  0.00  0.00    +0.010 C 
ATOM     18  C   UNL     1      -0.682   3.180   1.258  0.00  0.00    +0.057 C 
ATOM     19  O   UNL     1      -1.813  -5.057   1.402  0.00  0.00    -0.346 OA
ATOM     20  C   UNL     1      -1.294  -6.392   1.188  0.00  0.00    +0.191 C 
ATOM     21  C   UNL     1      -2.155  -7.225   2.170  0.00  0.00    +0.191 C 
ATOM     22  O   UNL     1      -2.317  -6.335   3.293  0.00  0.00    -0.346 OA
ENDROOT
BRANCH  18  23
ATOM     23  C   UNL     1      -0.905   3.598  -0.198  0.00  0.00    +0.171 C 
ATOM     24  O   UNL     1      -0.039   2.837  -1.056  0.00  0.00    -0.346 OA
ATOM     25  C   UNL     1       0.343   3.759  -2.106  0.00  0.00    +0.191 C 
ATOM     26  C   UNL     1       0.454   5.094  -1.328  0.00  0.00    +0.191 C 
ATOM     27  O   UNL     1      -0.602   4.990  -0.351  0.00  0.00    -0.346 OA
ATOM     28  C   UNL     1      -2.363   3.343  -0.587  0.00  0.00    +0.074 C 
ENDBRANCH  18  23
BRANCH  12  29
ATOM     29  O   UNL     1      -3.981  -0.414   1.662  0.00  0.00    -0.391 OA
ATOM     30  H   UNL     1      -4.791   0.113   1.632  0.00  0.00    +0.210 HD
ENDBRANCH  12  29
BRANCH  14  31
ATOM     31  C   UNL     1      -0.679   0.950   0.214  0.00  0.00    +0.163 C 
BRANCH  31  32
ATOM     32  O   UNL     1       0.731   1.110   0.044  0.00  0.00    -0.394 OA
ATOM     33  H   UNL     1       1.102   0.588  -0.680  0.00  0.00    +0.209 HD
ENDBRANCH  31  32
ENDBRANCH  14  31
TORSDOF 4
