REMARK  Name = ZINC36016889
REMARK  11 active torsions:
REMARK  status: ('A' for Active; 'I' for Inactive)
REMARK    1  A    between atoms: C_1  and  C_2
REMARK    2  A    between atoms: C_2  and  N_3
REMARK    3  A    between atoms: N_9  and  C_12
REMARK    4  A    between atoms: C_12  and  C_13
REMARK    5  A    between atoms: C_14  and  C_29
REMARK    6  A    between atoms: C_15  and  C_24
REMARK    7  A    between atoms: N_20  and  C_21
REMARK    8  A    between atoms: C_21  and  C_22
REMARK    9  A    between atoms: C_29  and  O_31
REMARK   10  A    between atoms: O_31  and  C_32
REMARK   11  A    between atoms: C_32  and  C_33
REMARK                            x       y       z     vdW  Elec       q    Type
REMARK                         _______ _______ _______ _____ _____    ______ ____
ROOT
ATOM      1  C   UNL     1       4.785  -4.744  -5.528  0.00  0.00    +0.041 C 
ATOM      2  C   UNL     1       5.119  -5.175  -6.764  0.00  0.00    +0.080 C 
ATOM      3  C   UNL     1       5.003  -6.658  -7.048  0.00  0.00    +0.144 C 
ATOM      4  N   UNL     1       4.533  -7.514  -5.946  0.00  0.00    -0.288 N 
ATOM      5  C   UNL     1       4.237  -6.935  -4.766  0.00  0.00    +0.307 C 
ATOM      6  O   UNL     1       3.848  -7.633  -3.849  0.00  0.00    -0.252 OA
ATOM      7  N   UNL     1       4.363  -5.617  -4.567  0.00  0.00    -0.254 N 
ATOM      8  H   UNL     1       4.438  -8.472  -6.067  0.00  0.00    +0.151 HD
ENDROOT
BRANCH   3   9
ATOM      9  C   UNL     1       4.059  -6.836  -8.209  0.00  0.00    -0.015 A 
ATOM     10  C   UNL     1       4.548  -7.057  -9.483  0.00  0.00    +0.013 A 
ATOM     11  C   UNL     1       3.671  -7.213 -10.505  0.00  0.00    +0.045 A 
ATOM     12  S   UNL     1       2.100  -7.048  -9.674  0.00  0.00    -0.105 S 
ATOM     13  C   UNL     1       2.718  -6.788  -8.019  0.00  0.00    +0.051 A 
ENDBRANCH   3   9
BRANCH   2  14
ATOM     14  C   UNL     1       5.561  -4.271  -7.758  0.00  0.00    +0.339 C 
ATOM     15  O   UNL     1       5.766  -3.106  -7.475  0.00  0.00    -0.245 OA
BRANCH  14  16
ATOM     16  O   UNL     1       5.756  -4.702  -9.022  0.00  0.00    -0.462 OA
BRANCH  16  17
ATOM     17  C   UNL     1       6.204  -3.736  -9.975  0.00  0.00    +0.229 C 
ATOM     18  C   UNL     1       6.367  -4.405 -11.341  0.00  0.00    +0.048 C 
ENDBRANCH  16  17
ENDBRANCH  14  16
ENDBRANCH   2  14
BRANCH   1  19
ATOM     19  C   UNL     1       4.886  -3.275  -5.203  0.00  0.00    +0.136 C 
BRANCH  19  26
ATOM     20  N   UNL     1      10.623  -1.140  -4.775  0.00  0.00    -0.300 N 
ATOM     21  C   UNL     1       9.606  -0.929  -3.916  0.00  0.00    +0.302 C 
ATOM     22  O   UNL     1       9.615   0.047  -3.191  0.00  0.00    -0.253 OA
ATOM     23  N   UNL     1       8.579  -1.800  -3.861  0.00  0.00    -0.283 N 
ATOM     24  C   UNL     1       7.405  -1.530  -3.017  0.00  0.00    +0.124 C 
ATOM     25  C   UNL     1       6.143  -1.691  -3.872  0.00  0.00    +0.104 C 
ATOM     26  N   UNL     1       6.156  -3.013  -4.513  0.00  0.00    -0.294 NA
ATOM     27  C   UNL     1       7.292  -3.146  -5.435  0.00  0.00    +0.104 C 
ATOM     28  C   UNL     1       8.598  -3.041  -4.649  0.00  0.00    +0.124 C 
ATOM     29  H   UNL     1      10.653  -1.956  -5.300  0.00  0.00    +0.150 HD
BRANCH  20  31
ATOM     30  C   UNL     1      12.707  -0.621  -5.945  0.00  0.00    +0.024 C 
ATOM     31  C   UNL     1      11.684  -0.139  -4.915  0.00  0.00    +0.102 C 
ENDBRANCH  20  31
ENDBRANCH  19  26
ENDBRANCH   1  19
BRANCH   7  32
ATOM     32  C   UNL     1       4.023  -5.081  -3.247  0.00  0.00    +0.141 C 
BRANCH  32  33
ATOM     33  C   UNL     1       2.541  -4.819  -3.178  0.00  0.00    -0.015 C 
ATOM     34  C   UNL     1       1.824  -5.359  -2.224  0.00  0.00    +0.005 C 
ENDBRANCH  32  33
ENDBRANCH   7  32
TORSDOF 9
