REMARK  Name = ZINC22302187
REMARK  12 active torsions:
REMARK  status: ('A' for Active; 'I' for Inactive)
REMARK    1  A    between atoms: C_1  and  C_2
REMARK    2  A    between atoms: C_5  and  C_9
REMARK    3  A    between atoms: C_7  and  C_8
REMARK    4  A    between atoms: C_9  and  C_11
REMARK    5  A    between atoms: C_11  and  C_13
REMARK    6  A    between atoms: C_11  and  O_14
REMARK    7  A    between atoms: O_14  and  C_15
REMARK    8  A    between atoms: C_15  and  C_17
REMARK    9  A    between atoms: C_17  and  N_18
REMARK   10  A    between atoms: C_23  and  C_30
REMARK   11  A    between atoms: C_26  and  C_28
REMARK   12  A    between atoms: C_26  and  C_29
REMARK                            x       y       z     vdW  Elec       q    Type
REMARK                         _______ _______ _______ _____ _____    ______ ____
ROOT
ATOM      1  C   UNL     1       1.459   3.094   0.755  0.00  0.00    +0.238 C 
ENDROOT
BRANCH   1   2
ATOM      2  N   UNL     1       1.180   1.670   0.558  0.00  0.00    -0.213 N 
ATOM      3  C   UNL     1       2.131   0.719   0.447  0.00  0.00    +0.247 C 
ATOM      4  O   UNL     1       3.332   0.874   0.489  0.00  0.00    -0.273 OA
ATOM      5  C   UNL     1       1.382  -0.580   0.258  0.00  0.00    +0.113 C 
ATOM      6  C   UNL     1       1.690  -1.543   1.400  0.00  0.00    +0.038 C 
ATOM      7  C   UNL     1       0.894  -2.837   1.206  0.00  0.00    -0.011 C 
ATOM      8  C   UNL     1       1.272  -3.470  -0.134  0.00  0.00    +0.009 C 
ATOM      9  C   UNL     1       0.938  -2.502  -1.271  0.00  0.00    -0.032 C 
ATOM     10  C   UNL     1       1.734  -1.207  -1.086  0.00  0.00    +0.041 C 
ATOM     11  C   UNL     1      -0.559  -2.188  -1.250  0.00  0.00    +0.011 C 
ATOM     12  C   UNL     1       1.307  -3.142  -2.611  0.00  0.00    +0.011 C 
ATOM     13  C   UNL     1       1.220  -3.810   2.341  0.00  0.00    +0.007 C 
ATOM     14  N   UNL     1      -0.032  -0.185   0.287  0.00  0.00    -0.285 N 
ATOM     15  C   UNL     1      -0.050   1.150   0.466  0.00  0.00    +0.310 C 
ATOM     16  O   UNL     1      -1.069   1.809   0.532  0.00  0.00    -0.252 OA
ATOM     17  H   UNL     1      -0.818  -0.945   0.170  0.00  0.00    +0.151 HD
ENDBRANCH   1   2
BRANCH   1  18
ATOM     18  C   UNL     1       1.530   3.393   2.231  0.00  0.00    +0.326 C 
ATOM     19  O   UNL     1       1.365   2.506   3.035  0.00  0.00    -0.249 OA
BRANCH  18  20
ATOM     20  O   UNL     1       1.778   4.643   2.651  0.00  0.00    -0.452 OA
BRANCH  20  21
ATOM     21  C   UNL     1       1.833   4.857   4.087  0.00  0.00    +0.244 C 
ATOM     22  C   UNL     1       3.268   4.657   4.578  0.00  0.00    +0.061 C 
BRANCH  21  23
ATOM     23  C   UNL     1       1.385   6.261   4.402  0.00  0.00    +0.203 C 
ATOM     24  O   UNL     1       1.314   7.088   3.519  0.00  0.00    -0.288 OA
BRANCH  23  29
ATOM     25  C   UNL     1       0.011   7.694   9.797  0.00  0.00    +0.044 C 
ATOM     26  C   UNL     1       0.371   7.319   8.383  0.00  0.00    -0.047 A 
ATOM     27  C   UNL     1       0.782   6.028   8.097  0.00  0.00    +0.004 A 
ATOM     28  C   UNL     1       1.108   5.675   6.805  0.00  0.00    +0.012 A 
ATOM     29  C   UNL     1       1.034   6.628   5.784  0.00  0.00    +0.021 A 
ATOM     30  C   UNL     1       0.618   7.930   6.081  0.00  0.00    +0.015 A 
ATOM     31  C   UNL     1       0.290   8.266   7.377  0.00  0.00    -0.047 A 
ATOM     32  C   UNL     1      -0.158   9.668   7.700  0.00  0.00    +0.044 C 
ENDBRANCH  23  29
ENDBRANCH  21  23
ENDBRANCH  20  21
ENDBRANCH  18  20
ENDBRANCH   1  18
TORSDOF 6
