REMARK  Name = ZINC07545380
REMARK  7 active torsions:
REMARK  status: ('A' for Active; 'I' for Inactive)
REMARK    1  A    between atoms: C_1  and  C_2
REMARK    2  A    between atoms: C_2  and  C_3
REMARK    3  A    between atoms: C_2  and  C_4
REMARK    4  A    between atoms: C_4  and  C_6
REMARK    5  A    between atoms: C_4  and  O_12
REMARK    6  A    between atoms: O_12  and  C_13
REMARK    7  A    between atoms: C_13  and  C_15
REMARK                            x       y       z     vdW  Elec       q    Type
REMARK                         _______ _______ _______ _____ _____    ______ ____
ROOT
ATOM      1  O   UNL     1       0.414  -0.697  -1.298  0.00  0.00    -0.451 OA
ENDROOT
BRANCH   1   2
ATOM      2  C   UNL     1      -0.280   0.140  -0.510  0.00  0.00    +0.315 C 
ATOM      3  O   UNL     1      -0.960  -0.299   0.387  0.00  0.00    -0.250 OA
BRANCH   2   4
ATOM      4  C   UNL     1      -0.210   1.627  -0.744  0.00  0.00    +0.139 C 
ATOM      5  C   UNL     1      -1.062   2.354   0.300  0.00  0.00    +0.057 C 
ATOM      6  C   UNL     1      -0.764   3.831   0.259  0.00  0.00    -0.003 A 
ATOM      7  C   UNL     1      -1.664   4.709   0.841  0.00  0.00    +0.027 A 
ATOM      8  C   UNL     1      -1.419   6.069   0.829  0.00  0.00    +0.041 A 
ATOM      9  C   UNL     1      -0.270   6.559   0.233  0.00  0.00    +0.023 A 
ATOM     10  C   UNL     1       0.628   5.689  -0.349  0.00  0.00    +0.047 A 
ATOM     11  C   UNL     1       0.384   4.319  -0.340  0.00  0.00    +0.124 A 
ATOM     12  O   UNL     1       1.290   3.495  -0.928  0.00  0.00    -0.491 OA
ATOM     13  C   UNL     1       1.240   2.106  -0.600  0.00  0.00    +0.244 C 
ATOM     14 CL   UNL     1      -2.551   7.162   1.562  0.00  0.00    -0.084 Cl
ENDBRANCH   2   4
ENDBRANCH   1   2
BRANCH   1  15
ATOM     15  C   UNL     1       0.299  -2.116  -1.015  0.00  0.00    +0.264 C 
BRANCH  15  16
ATOM     16  C   UNL     1       0.468  -2.898  -2.292  0.00  0.00    +0.261 C 
ATOM     17  O   UNL     1       0.729  -2.322  -3.325  0.00  0.00    -0.271 OA
ATOM     18  N   UNL     1       0.329  -4.239  -2.284  0.00  0.00    -0.237 N 
ATOM     19  C   UNL     1       0.384  -4.929  -3.441  0.00  0.00    +0.303 C 
ATOM     20  O   UNL     1       0.559  -4.342  -4.490  0.00  0.00    -0.253 OA
ATOM     21  N   UNL     1       0.244  -6.269  -3.433  0.00  0.00    -0.313 N 
ATOM     22  H   UNL     1       0.189  -4.707  -1.446  0.00  0.00    +0.159 HD
ATOM     23  H   UNL     1       0.105  -6.738  -2.595  0.00  0.00    +0.146 HD
ATOM     24  H   UNL     1       0.284  -6.766  -4.265  0.00  0.00    +0.146 HD
ENDBRANCH  15  16
BRANCH  15  26
ATOM     25  C   UNL     1       2.755  -2.103  -0.553  0.00  0.00    +0.011 C 
ATOM     26  C   UNL     1       1.385  -2.526  -0.018  0.00  0.00    +0.033 C 
ATOM     27  C   UNL     1       1.129  -1.841   1.326  0.00  0.00    +0.011 C 
ENDBRANCH  15  26
ENDBRANCH   1  15
TORSDOF 5
