REMARK  Name = ZINC13053483
REMARK  9 active torsions:
REMARK  status: ('A' for Active; 'I' for Inactive)
REMARK    1  A    between atoms: C_1  and  C_2
REMARK    2  A    between atoms: C_2  and  C_4
REMARK    3  A    between atoms: C_2  and  N_9
REMARK    4  A    between atoms: C_10  and  C_12
REMARK    5  A    between atoms: C_12  and  S_13
REMARK    6  A    between atoms: S_13  and  C_14
REMARK    7  A    between atoms: C_18  and  C_32
REMARK    8  A    between atoms: N_24  and  C_25
REMARK    9  A    between atoms: C_25  and  C_26
REMARK                            x       y       z     vdW  Elec       q    Type
REMARK                         _______ _______ _______ _____ _____    ______ ____
ROOT
ATOM      1  C   UNL     1       0.002  -0.004   0.002  0.00  0.00    +0.173 A 
ATOM      2  N   UNL     1       1.110  -0.704  -0.012  0.00  0.00    -0.223 NA
ATOM      3  C   UNL     1       2.325  -0.107  -0.020  0.00  0.00    +0.080 A 
ATOM      4  C   UNL     1       3.505  -0.855  -0.036  0.00  0.00    +0.043 A 
ATOM      5  C   UNL     1       4.730  -0.199  -0.044  0.00  0.00    +0.065 A 
ATOM      6  C   UNL     1       4.786   1.201  -0.038  0.00  0.00    +0.016 A 
ATOM      7  C   UNL     1       3.639   1.942  -0.023  0.00  0.00    +0.016 A 
ATOM      8  C   UNL     1       2.399   1.304  -0.014  0.00  0.00    +0.065 A 
ATOM      9  C   UNL     1       1.139   2.065   0.002  0.00  0.00    +0.262 A 
ATOM     10  O   UNL     1       1.137   3.282   0.008  0.00  0.00    -0.267 OA
ATOM     11  N   UNL     1      -0.016   1.361   0.009  0.00  0.00    -0.285 N 
ENDROOT
BRANCH   5  12
ATOM     12  C   UNL     1       5.984  -0.984  -0.060  0.00  0.00    +0.387 C 
ATOM     13  O   UNL     1       5.940  -2.198  -0.066  0.00  0.00    -0.241 OA
ATOM     14  O   UNL     1       7.173  -0.353  -0.069  0.00  0.00    -0.241 OA
ENDBRANCH   5  12
BRANCH   1  15
ATOM     15  S   UNL     1      -1.535  -0.865   0.012  0.00  0.00    -0.078 S 
BRANCH  15  16
ATOM     16  C   UNL     1      -0.939  -2.574  -0.003  0.00  0.00    +0.173 C 
BRANCH  16  18
ATOM     17  N   UNL     1      -1.910  -4.849  -0.006  0.00  0.00    -0.305 N 
ATOM     18  C   UNL     1      -2.114  -3.517   0.003  0.00  0.00    +0.224 C 
ATOM     19  O   UNL     1      -3.244  -3.076   0.017  0.00  0.00    -0.275 OA
ATOM     20  H   UNL     1      -1.006  -5.201  -0.016  0.00  0.00    +0.149 HD
BRANCH  17  22
ATOM     21  C   UNL     1      -3.543  -5.978  -1.433  0.00  0.00    +0.036 C 
ATOM     22  C   UNL     1      -3.053  -5.765   0.000  0.00  0.00    +0.136 C 
BRANCH  22  23
ATOM     23  C   UNL     1      -2.633  -7.087   0.590  0.00  0.00    +0.125 A 
ATOM     24  C   UNL     1      -3.366  -7.842   1.428  0.00  0.00    +0.046 A 
ATOM     25  C   UNL     1      -2.594  -8.989   1.726  0.00  0.00    +0.041 A 
ATOM     26  C   UNL     1      -1.434  -8.863   1.058  0.00  0.00    +0.195 A 
ATOM     27  O   UNL     1      -1.463  -7.709   0.371  0.00  0.00    -0.466 OA
ENDBRANCH  22  23
ENDBRANCH  17  22
ENDBRANCH  16  18
ENDBRANCH  15  16
ENDBRANCH   1  15
BRANCH  11  28
ATOM     28  C   UNL     1      -1.298   2.071   0.019  0.00  0.00    +0.159 C 
BRANCH  28  29
ATOM     29  C   UNL     1      -1.738   2.309   1.465  0.00  0.00    +0.138 C 
ATOM     30  C   UNL     1      -3.127   2.996   1.499  0.00  0.00    +0.035 C 
ATOM     31  C   UNL     1      -3.637   2.560   2.900  0.00  0.00    +0.031 C 
ATOM     32  C   UNL     1      -3.034   1.146   3.043  0.00  0.00    +0.160 C 
ATOM     33  O   UNL     1      -1.922   1.057   2.144  0.00  0.00    -0.375 OA
ENDBRANCH  28  29
ENDBRANCH  11  28
TORSDOF 8
