REMARK  Name = ZINC22097547
REMARK  10 active torsions:
REMARK  status: ('A' for Active; 'I' for Inactive)
REMARK    1  A    between atoms: C_1  and  C_2
REMARK    2  A    between atoms: C_6  and  N_9
REMARK    3  A    between atoms: C_7  and  C_8
REMARK    4  A    between atoms: C_11  and  C_16
REMARK    5  A    between atoms: C_16  and  O_18
REMARK    6  A    between atoms: O_18  and  C_19
REMARK    7  A    between atoms: C_19  and  C_21
REMARK    8  A    between atoms: C_19  and  C_22
REMARK    9  A    between atoms: N_24  and  C_25
REMARK   10  A    between atoms: C_30  and  N_31
REMARK                            x       y       z     vdW  Elec       q    Type
REMARK                         _______ _______ _______ _____ _____    ______ ____
ROOT
ATOM      1  C   UNL     1      -1.411  -4.770   5.091  0.00  0.00    +0.313 C 
ATOM      2  O   UNL     1      -2.239  -5.335   4.417  0.00  0.00    -0.250 OA
ENDROOT
BRANCH   1   5
ATOM      3  N   UNL     1       0.064  -2.814   2.388  0.00  0.00    -0.270 N 
ATOM      4  C   UNL     1      -1.140  -3.260   3.098  0.00  0.00    +0.128 C 
ATOM      5  C   UNL     1      -0.675  -3.577   4.537  0.00  0.00    +0.124 C 
ATOM      6  C   UNL     1       0.821  -3.901   4.322  0.00  0.00    +0.112 C 
ATOM      7  C   UNL     1       1.181  -3.170   3.047  0.00  0.00    +0.221 C 
ATOM      8  O   UNL     1       2.311  -2.937   2.674  0.00  0.00    -0.275 OA
BRANCH   3  14
ATOM      9  C   UNL     1      -0.025   1.472  -0.019  0.00  0.00    +0.044 C 
ATOM     10  C   UNL     1       0.009  -0.034  -0.019  0.00  0.00    -0.046 A 
ATOM     11  C   UNL     1       0.027  -0.725  -1.217  0.00  0.00    +0.004 A 
ATOM     12  C   UNL     1       0.057  -2.107  -1.221  0.00  0.00    +0.002 A 
ATOM     13  C   UNL     1       0.070  -2.803  -0.027  0.00  0.00    +0.024 A 
ATOM     14  C   UNL     1       0.052  -2.112   1.177  0.00  0.00    +0.039 A 
ATOM     15  C   UNL     1       0.026  -0.724   1.178  0.00  0.00    -0.026 A 
ATOM     16  C   UNL     1       0.013   0.030   2.482  0.00  0.00    +0.046 C 
ENDBRANCH   3  14
ENDBRANCH   1   5
BRANCH   1  17
ATOM     17  O   UNL     1      -1.147  -5.204   6.334  0.00  0.00    -0.452 OA
BRANCH  17  18
ATOM     18  C   UNL     1      -1.883  -6.339   6.794  0.00  0.00    +0.259 C 
ATOM     19  C   UNL     1      -1.123  -7.618   6.436  0.00  0.00    +0.062 C 
BRANCH  18  20
ATOM     20  C   UNL     1      -2.050  -6.256   8.290  0.00  0.00    +0.258 C 
ATOM     21  O   UNL     1      -1.586  -5.317   8.901  0.00  0.00    -0.271 OA
ATOM     22  N   UNL     1      -2.716  -7.226   8.948  0.00  0.00    -0.281 N 
ATOM     23  H   UNL     1      -3.156  -7.934   8.452  0.00  0.00    +0.155 HD
BRANCH  22  24
ATOM     24  C   UNL     1      -2.773  -7.210  10.346  0.00  0.00    +0.064 A 
ATOM     25  C   UNL     1      -1.777  -6.574  11.075  0.00  0.00    +0.025 A 
ATOM     26  C   UNL     1      -1.836  -6.560  12.455  0.00  0.00    +0.002 A 
ATOM     27  C   UNL     1      -2.885  -7.180  13.110  0.00  0.00    +0.002 A 
ATOM     28  C   UNL     1      -3.877  -7.816  12.387  0.00  0.00    +0.034 A 
ATOM     29  C   UNL     1      -3.827  -7.827  11.006  0.00  0.00    +0.147 A 
BRANCH  29  30
ATOM     30  N   UNL     1      -4.894  -8.501  10.232  0.00  0.00    +0.058 N 
ATOM     31  O   UNL     1      -5.856  -8.960  10.802  0.00  0.00    -0.126 OA
ATOM     32  O   UNL     1      -4.802  -8.593   9.030  0.00  0.00    -0.126 OA
ENDBRANCH  29  30
ENDBRANCH  22  24
ENDBRANCH  18  20
ENDBRANCH  17  18
ENDBRANCH   1  17
TORSDOF 7
