REMARK  Name = ZINC35684060
REMARK  9 active torsions:
REMARK  status: ('A' for Active; 'I' for Inactive)
REMARK    1  A    between atoms: C_1  and  C_2
REMARK    2  A    between atoms: C_5  and  S_8
REMARK    3  A    between atoms: S_8  and  N_11
REMARK    4  A    between atoms: N_11  and  C_12
REMARK    5  A    between atoms: C_17  and  C_18
REMARK    6  A    between atoms: C_21  and  C_24
REMARK    7  A    between atoms: C_29  and  C_31
REMARK    8  A    between atoms: C_31  and  C_32
REMARK    9  A    between atoms: C_32  and  C_33
REMARK                            x       y       z     vdW  Elec       q    Type
REMARK                         _______ _______ _______ _____ _____    ______ ____
ROOT
ATOM      1  C   UNL     1       2.495  -4.624   1.008  0.00  0.00    +0.057 A 
ATOM      2  C   UNL     1       2.036  -4.640   2.318  0.00  0.00    +0.025 A 
ATOM      3  C   UNL     1       2.875  -4.267   3.350  0.00  0.00    +0.002 A 
ATOM      4  C   UNL     1       4.177  -3.874   3.088  0.00  0.00    +0.001 A 
ATOM      5  C   UNL     1       4.651  -3.852   1.793  0.00  0.00    +0.011 A 
ATOM      6  C   UNL     1       3.816  -4.232   0.740  0.00  0.00    +0.020 A 
ENDROOT
BRANCH   6   7
ATOM      7  C   UNL     1       4.317  -4.216  -0.645  0.00  0.00    +0.071 C 
ATOM      8  N   UNL     1       3.631  -4.536  -1.688  0.00  0.00    -0.181 NA
ATOM      9  N   UNL     1       4.336  -4.437  -2.886  0.00  0.00    -0.182 N 
ATOM     10  C   UNL     1       5.705  -3.981  -2.596  0.00  0.00    +0.172 C 
ATOM     11  C   UNL     1       5.714  -3.816  -1.063  0.00  0.00    +0.090 C 
ATOM     12  C   UNL     1       3.845  -4.715  -4.110  0.00  0.00    +0.236 C 
ATOM     13  O   UNL     1       4.551  -4.594  -5.089  0.00  0.00    -0.274 OA
BRANCH  10  14
ATOM     14  C   UNL     1       5.977  -2.661  -3.271  0.00  0.00    +0.128 A 
ATOM     15  C   UNL     1       7.134  -2.301  -3.856  0.00  0.00    +0.046 A 
ATOM     16  C   UNL     1       6.950  -0.992  -4.357  0.00  0.00    +0.041 A 
ATOM     17  C   UNL     1       5.691  -0.630  -4.049  0.00  0.00    +0.195 A 
ATOM     18  O   UNL     1       5.105  -1.648  -3.396  0.00  0.00    -0.466 OA
ENDBRANCH  10  14
BRANCH  12  19
ATOM     19  C   UNL     1       2.418  -5.176  -4.263  0.00  0.00    +0.109 C 
BRANCH  19  20
ATOM     20  C   UNL     1       2.117  -5.420  -5.743  0.00  0.00    +0.134 C 
BRANCH  20  21
ATOM     21  C   UNL     1       0.690  -5.881  -5.896  0.00  0.00    +0.356 C 
ATOM     22  O   UNL     1      -0.020  -6.002  -4.912  0.00  0.00    -0.246 OA
ATOM     23  O   UNL     1       0.246  -6.132  -7.003  0.00  0.00    -0.246 OA
ENDBRANCH  20  21
ENDBRANCH  19  20
ENDBRANCH  12  19
ENDBRANCH   6   7
BRANCH   1  24
ATOM     24  N   UNL     1       1.651  -4.999  -0.034  0.00  0.00    -0.216 N 
ATOM     25  H   UNL     1       2.008  -5.478  -0.799  0.00  0.00    +0.174 HD
BRANCH  24  26
ATOM     26  S   UNL     1       0.038  -4.629   0.032  0.00  0.00    +0.072 S 
ATOM     27  O   UNL     1      -0.443  -5.131   1.271  0.00  0.00    -0.150 OA
ATOM     28  O   UNL     1      -0.520  -5.019  -1.216  0.00  0.00    -0.150 OA
BRANCH  26  33
ATOM     29  C   UNL     1      -0.405   1.381   0.316  0.00  0.00    +0.044 C 
ATOM     30  C   UNL     1      -0.294  -0.120   0.245  0.00  0.00    -0.050 A 
ATOM     31  C   UNL     1      -0.279  -0.754  -0.983  0.00  0.00    +0.005 A 
ATOM     32  C   UNL     1      -0.178  -2.131  -1.048  0.00  0.00    +0.029 A 
ATOM     33  C   UNL     1      -0.090  -2.874   0.115  0.00  0.00    +0.109 A 
ATOM     34  C   UNL     1      -0.104  -2.239   1.343  0.00  0.00    +0.029 A 
ATOM     35  C   UNL     1      -0.202  -0.862   1.408  0.00  0.00    +0.005 A 
ENDBRANCH  26  33
ENDBRANCH  24  26
ENDBRANCH   1  24
TORSDOF 8
