REMARK  Name = ZINC03843257
REMARK  5 active torsions:
REMARK  status: ('A' for Active; 'I' for Inactive)
REMARK    1  A    between atoms: C_1  and  C_2
REMARK    2  A    between atoms: C_2  and  O_3
REMARK    3  A    between atoms: O_3  and  C_4
REMARK    4  A    between atoms: C_7  and  C_10
REMARK    5  A    between atoms: C_16  and  C_19
REMARK                            x       y       z     vdW  Elec       q    Type
REMARK                         _______ _______ _______ _____ _____    ______ ____
ROOT
ATOM      1  C   UNL     1      -0.145   7.885   0.086  0.00  0.00    +0.182 A 
ATOM      2  N   UNL     1      -0.061   8.498   1.239  0.00  0.00    -0.127 NA
ATOM      3  N   UNL     1       0.568   7.760   2.084  0.00  0.00    -0.120 NA
ATOM      4  C   UNL     1       0.916   6.644   1.513  0.00  0.00    +0.211 A 
ATOM      5  N   UNL     1       0.489   6.650   0.214  0.00  0.00    -0.220 N 
ATOM      6  N   UNL     1       0.740   5.580  -0.586  0.00  0.00    -0.260 N 
ATOM      7  C   UNL     1       1.476   4.447   0.011  0.00  0.00    +0.218 C 
ATOM      8  S   UNL     1       1.731   5.077   1.716  0.00  0.00    -0.053 S 
ATOM      9  H   UNL     1       1.163   5.869  -1.455  0.00  0.00    +0.168 HD
ENDROOT
BRANCH   1  13
ATOM     10  C   UNL     1      -2.010   9.392  -3.422  0.00  0.00    +0.121 A 
ATOM     11  C   UNL     1      -2.256   9.992  -2.195  0.00  0.00    +0.046 A 
ATOM     12  C   UNL     1      -1.653   9.507  -1.054  0.00  0.00    +0.015 A 
ATOM     13  C   UNL     1      -0.793   8.410  -1.135  0.00  0.00    +0.021 A 
ATOM     14  C   UNL     1      -0.543   7.813  -2.372  0.00  0.00    +0.015 A 
ATOM     15  C   UNL     1      -1.155   8.301  -3.507  0.00  0.00    +0.046 A 
BRANCH  10  16
ATOM     16  O   UNL     1      -2.606   9.874  -4.544  0.00  0.00    -0.492 OA
BRANCH  16  18
ATOM     17  C   UNL     1      -3.067   9.887  -6.917  0.00  0.00    +0.048 C 
ATOM     18  C   UNL     1      -2.309   9.209  -5.774  0.00  0.00    +0.225 C 
ENDBRANCH  16  18
ENDBRANCH  10  16
ENDBRANCH   1  13
BRANCH   7  19
ATOM     19  C   UNL     1       0.640   3.193   0.012  0.00  0.00    +0.137 A 
ATOM     20  C   UNL     1       1.111   1.934   0.002  0.00  0.00    +0.047 A 
ATOM     21  C   UNL     1      -0.013   1.076   0.008  0.00  0.00    +0.041 A 
ATOM     22  C   UNL     1      -1.103   1.863   0.017  0.00  0.00    +0.195 A 
ATOM     23  O   UNL     1      -0.702   3.144   0.024  0.00  0.00    -0.465 OA
ENDBRANCH   7  19
TORSDOF 4
