REMARK  Name = ZINC19488240
REMARK  8 active torsions:
REMARK  status: ('A' for Active; 'I' for Inactive)
REMARK    1  A    between atoms: C_1  and  C_2
REMARK    2  A    between atoms: C_5  and  N_8
REMARK    3  A    between atoms: C_12  and  S_13
REMARK    4  A    between atoms: S_13  and  C_14
REMARK    5  A    between atoms: C_14  and  C_15
REMARK    6  A    between atoms: N_17  and  N_18
REMARK    7  A    between atoms: C_19  and  C_21
REMARK    8  A    between atoms: C_24  and  N_27
REMARK                            x       y       z     vdW  Elec       q    Type
REMARK                         _______ _______ _______ _____ _____    ______ ____
ROOT
ATOM      1  S   UNL     1       5.384  -6.944  -0.085  0.00  0.00    -0.076 S 
ENDROOT
BRANCH   1   6
ATOM      2  N   UNL     1       6.291  -9.589  -0.107  0.00  0.00    -0.259 N 
ATOM      3  C   UNL     1       5.767 -10.853  -0.108  0.00  0.00    +0.225 A 
ATOM      4  N   UNL     1       4.461 -10.750  -0.094  0.00  0.00    -0.112 NA
ATOM      5  N   UNL     1       4.132  -9.389  -0.080  0.00  0.00    -0.120 NA
ATOM      6  C   UNL     1       5.249  -8.701  -0.093  0.00  0.00    +0.198 A 
ATOM      7  N   UNL     1       6.493 -12.037  -0.120  0.00  0.00    -0.299 N 
ATOM      8  C   UNL     1       7.327 -12.164   1.102  0.00  0.00    +0.108 C 
ATOM      9  C   UNL     1       7.619 -13.683   1.177  0.00  0.00    +0.020 C 
ATOM     10  C   UNL     1       6.292 -14.315   0.698  0.00  0.00    +0.020 C 
ATOM     11  C   UNL     1       5.592 -13.211  -0.117  0.00  0.00    +0.108 C 
BRANCH   2  16
ATOM     12  C   UNL     1      11.809  -8.261  -0.154  0.00  0.00    +0.044 C 
ATOM     13  C   UNL     1      10.344  -8.613  -0.142  0.00  0.00    -0.050 A 
ATOM     14  C   UNL     1       9.565  -8.287   0.953  0.00  0.00    +0.005 A 
ATOM     15  C   UNL     1       8.222  -8.609   0.967  0.00  0.00    +0.026 A 
ATOM     16  C   UNL     1       7.654  -9.261  -0.119  0.00  0.00    +0.052 A 
ATOM     17  C   UNL     1       8.440  -9.591  -1.214  0.00  0.00    +0.026 A 
ATOM     18  C   UNL     1       9.781  -9.263  -1.225  0.00  0.00    +0.005 A 
ENDBRANCH   2  16
ENDBRANCH   1   6
BRANCH   1  19
ATOM     19  C   UNL     1       3.663  -6.372  -0.066  0.00  0.00    +0.174 C 
BRANCH  19  20
ATOM     20  C   UNL     1       3.635  -4.865  -0.058  0.00  0.00    +0.239 C 
ATOM     21  O   UNL     1       4.673  -4.239  -0.065  0.00  0.00    -0.273 OA
ATOM     22  N   UNL     1       2.455  -4.213  -0.043  0.00  0.00    -0.233 N 
ATOM     23  H   UNL     1       1.513  -4.781  -0.037  0.00  0.00    +0.173 HD
BRANCH  22  24
ATOM     24  N   UNL     1       2.429  -2.812  -0.036  0.00  0.00    -0.230 N 
ATOM     25  C   UNL     1       1.250  -2.160  -0.021  0.00  0.00    +0.260 C 
ATOM     26  O   UNL     1       0.208  -2.788  -0.014  0.00  0.00    -0.269 OA
ATOM     27  H   UNL     1       3.371  -2.245  -0.042  0.00  0.00    +0.173 HD
BRANCH  25  28
ATOM     28  C   UNL     1       1.222  -0.682  -0.013  0.00  0.00    +0.038 A 
ATOM     29  C   UNL     1       0.002  -0.004   0.002  0.00  0.00    +0.015 A 
ATOM     30  C   UNL     1      -0.017   1.375   0.010  0.00  0.00    +0.033 A 
ATOM     31  C   UNL     1       1.170   2.086   0.002  0.00  0.00    +0.126 A 
ATOM     32  C   UNL     1       2.383   1.420  -0.013  0.00  0.00    +0.033 A 
ATOM     33  C   UNL     1       2.416   0.041  -0.021  0.00  0.00    +0.015 A 
BRANCH  31  34
ATOM     34  N   UNL     1       1.143   3.566   0.010  0.00  0.00    +0.056 N 
ATOM     35  O   UNL     1       0.077   4.155   0.024  0.00  0.00    -0.126 OA
ATOM     36  O   UNL     1       2.186   4.195   0.004  0.00  0.00    -0.126 OA
ENDBRANCH  31  34
ENDBRANCH  25  28
ENDBRANCH  22  24
ENDBRANCH  19  20
ENDBRANCH   1  19
TORSDOF 7
