REMARK  Name = ZINC24670738
REMARK  15 active torsions:
REMARK  status: ('A' for Active; 'I' for Inactive)
REMARK    1  A    between atoms: C_1  and  C_2
REMARK    2  A    between atoms: C_2  and  O_3
REMARK    3  A    between atoms: O_3  and  C_4
REMARK    4  A    between atoms: C_4  and  C_6
REMARK    5  A    between atoms: C_7  and  C_32
REMARK    6  A    between atoms: C_8  and  C_27
REMARK    7  A    between atoms: C_10  and  N_11
REMARK    8  A    between atoms: N_14  and  C_15
REMARK    9  A    between atoms: N_14  and  C_16
REMARK   10  A    between atoms: C_16  and  C_17
REMARK   11  A    between atoms: N_19  and  C_20
REMARK   12  A    between atoms: C_23  and  C_26
REMARK   13  A    between atoms: C_27  and  O_29
REMARK   14  A    between atoms: O_29  and  C_30
REMARK   15  A    between atoms: C_30  and  C_31
REMARK                            x       y       z     vdW  Elec       q    Type
REMARK                         _______ _______ _______ _____ _____    ______ ____
ROOT
ATOM      1  N   UNL     1      -1.272  -2.333  -2.492  0.00  0.00    -0.263 N 
ATOM      2  C   UNL     1      -1.315  -3.185  -3.536  0.00  0.00    +0.307 C 
ATOM      3  O   UNL     1      -1.352  -4.384  -3.341  0.00  0.00    -0.252 OA
ATOM      4  N   UNL     1      -1.317  -2.707  -4.796  0.00  0.00    -0.280 N 
ATOM      5  C   UNL     1      -1.272  -1.262  -5.031  0.00  0.00    +0.134 C 
ATOM      6  H   UNL     1      -1.238  -1.248  -2.669  0.00  0.00    +0.157 HD
ENDROOT
BRANCH   1  11
ATOM      7  C   UNL     1      -1.230  -2.110   0.002  0.00  0.00    +0.091 A 
ATOM      8  C   UNL     1      -1.232  -2.836   1.183  0.00  0.00    -0.014 A 
ATOM      9  C   UNL     1      -1.284  -4.201   1.090  0.00  0.00    +0.102 A 
ATOM     10  S   UNL     1      -1.317  -4.473  -0.672  0.00  0.00    -0.066 S 
ATOM     11  C   UNL     1      -1.270  -2.823  -1.201  0.00  0.00    +0.088 A 
ATOM     12  C   UNL     1      -1.183  -2.147   2.522  0.00  0.00    +0.046 C 
BRANCH   7  13
ATOM     13  C   UNL     1      -1.180  -0.643   0.013  0.00  0.00    +0.342 C 
ATOM     14  O   UNL     1      -2.212  -0.001   0.033  0.00  0.00    -0.245 OA
BRANCH  13  15
ATOM     15  O   UNL     1       0.009  -0.009   0.002  0.00  0.00    -0.461 OA
BRANCH  15  17
ATOM     16  C   UNL     1       1.415   1.980  -0.002  0.00  0.00    +0.048 C 
ATOM     17  C   UNL     1      -0.018   1.443   0.014  0.00  0.00    +0.229 C 
ENDBRANCH  15  17
ENDBRANCH  13  15
ENDBRANCH   7  13
BRANCH   9  18
ATOM     18  C   UNL     1      -1.300  -5.190   2.167  0.00  0.00    +0.346 C 
ATOM     19  O   UNL     1      -1.272  -4.826   3.327  0.00  0.00    -0.244 OA
BRANCH  18  20
ATOM     20  O   UNL     1      -1.348  -6.506   1.873  0.00  0.00    -0.461 OA
BRANCH  20  21
ATOM     21  C   UNL     1      -1.362  -7.416   2.975  0.00  0.00    +0.229 C 
ATOM     22  C   UNL     1      -1.417  -8.852   2.450  0.00  0.00    +0.048 C 
ENDBRANCH  20  21
ENDBRANCH  18  20
ENDBRANCH   9  18
ENDBRANCH   1  11
BRANCH   4  23
ATOM     23  C   UNL     1      -1.363  -3.633  -5.930  0.00  0.00    +0.205 C 
BRANCH  23  24
ATOM     24  C   UNL     1      -2.799  -3.903  -6.300  0.00  0.00    +0.235 C 
ATOM     25  O   UNL     1      -3.695  -3.375  -5.676  0.00  0.00    -0.274 OA
ATOM     26  N   UNL     1      -3.087  -4.732  -7.322  0.00  0.00    -0.284 N 
ATOM     27  H   UNL     1      -2.276  -5.152  -7.936  0.00  0.00    +0.155 HD
BRANCH  26  28
ATOM     28  C   UNL     1      -4.418  -5.060  -7.604  0.00  0.00    +0.033 A 
ATOM     29  C   UNL     1      -4.739  -6.328  -8.070  0.00  0.00    +0.023 A 
ATOM     30  C   UNL     1      -6.055  -6.650  -8.341  0.00  0.00    +0.005 A 
ATOM     31  C   UNL     1      -7.050  -5.707  -8.161  0.00  0.00    -0.050 A 
ATOM     32  C   UNL     1      -6.733  -4.441  -7.702  0.00  0.00    +0.005 A 
ATOM     33  C   UNL     1      -5.420  -4.115  -7.423  0.00  0.00    +0.023 A 
ATOM     34  C   UNL     1      -8.483  -6.059  -8.464  0.00  0.00    +0.044 C 
ENDBRANCH  26  28
ENDBRANCH  23  24
ENDBRANCH   4  23
TORSDOF 10
