REMARK  Name = ZINC20907301
REMARK  12 active torsions:
REMARK  status: ('A' for Active; 'I' for Inactive)
REMARK    1  A    between atoms: C_1  and  C_2
REMARK    2  A    between atoms: C_2  and  C_36
REMARK    3  A    between atoms: C_4  and  C_9
REMARK    4  A    between atoms: N_14  and  C_17
REMARK    5  A    between atoms: C_17  and  C_18
REMARK    6  A    between atoms: C_18  and  O_19
REMARK    7  A    between atoms: O_19  and  C_20
REMARK    8  A    between atoms: C_24  and  C_26
REMARK    9  A    between atoms: C_26  and  N_27
REMARK   10  A    between atoms: N_27  and  C_28
REMARK   11  A    between atoms: N_27  and  C_29
REMARK   12  A    between atoms: C_29  and  C_30
REMARK                            x       y       z     vdW  Elec       q    Type
REMARK                         _______ _______ _______ _____ _____    ______ ____
ROOT
ATOM      1  C   UNL     1      -7.148  -1.316   6.666  0.00  0.00    +0.244 C 
ENDROOT
BRANCH   1   2
ATOM      2  C   UNL     1      -5.660  -0.987   6.528  0.00  0.00    +0.125 C 
BRANCH   2   8
ATOM      3  C   UNL     1      -3.657   2.208   2.627  0.00  0.00    +0.219 C 
ATOM      4  O   UNL     1      -2.557   1.980   2.170  0.00  0.00    -0.275 OA
ATOM      5  N   UNL     1      -4.369   1.216   3.197  0.00  0.00    -0.299 N 
ATOM      6  C   UNL     1      -5.748   1.443   3.654  0.00  0.00    +0.123 C 
ATOM      7  C   UNL     1      -5.866   0.960   5.104  0.00  0.00    +0.103 C 
ATOM      8  N   UNL     1      -5.403  -0.431   5.193  0.00  0.00    -0.296 NA
ATOM      9  C   UNL     1      -3.982  -0.543   4.840  0.00  0.00    +0.103 C 
ATOM     10  C   UNL     1      -3.789  -0.124   3.374  0.00  0.00    +0.123 C 
BRANCH   3  14
ATOM     11  C   UNL     1      -5.619   5.783   1.135  0.00  0.00    +0.041 C 
ATOM     12  C   UNL     1      -4.109   5.799   1.379  0.00  0.00    +0.065 C 
ATOM     13  C   UNL     1      -3.579   4.363   1.396  0.00  0.00    +0.047 C 
ATOM     14  C   UNL     1      -4.229   3.601   2.555  0.00  0.00    +0.080 C 
ATOM     15  C   UNL     1      -3.941   4.342   3.865  0.00  0.00    +0.041 C 
ATOM     16  C   UNL     1      -4.457   5.779   3.752  0.00  0.00    +0.161 C 
ATOM     17  O   UNL     1      -3.836   6.421   2.637  0.00  0.00    -0.374 OA
ATOM     18  C   UNL     1      -3.420   6.584   0.261  0.00  0.00    +0.041 C 
ENDBRANCH   3  14
ENDBRANCH   2   8
ENDBRANCH   1   2
BRANCH   1  19
ATOM     19  O   UNL     1      -7.496  -2.348   5.741  0.00  0.00    -0.491 OA
BRANCH  19  20
ATOM     20  C   UNL     1      -8.791  -2.760   5.735  0.00  0.00    +0.121 A 
ATOM     21  C   UNL     1      -9.709  -2.179   6.598  0.00  0.00    +0.045 A 
ATOM     22  C   UNL     1     -11.025  -2.599   6.589  0.00  0.00    +0.004 A 
ATOM     23  C   UNL     1     -11.427  -3.599   5.722  0.00  0.00    +0.005 A 
ATOM     24  C   UNL     1     -10.514  -4.179   4.862  0.00  0.00    -0.030 A 
ATOM     25  C   UNL     1      -9.198  -3.759   4.862  0.00  0.00    +0.050 A 
BRANCH  24  26
ATOM     26  C   UNL     1     -10.955  -5.269   3.918  0.00  0.00    +0.119 C 
BRANCH  26  27
ATOM     27  N   UNL     1     -11.397  -4.670   2.652  0.00  0.00    -0.294 NA
ATOM     28  C   UNL     1     -10.274  -4.034   1.950  0.00  0.00    +0.105 C 
BRANCH  27  29
ATOM     29  C   UNL     1     -12.053  -5.669   1.798  0.00  0.00    +0.156 C 
BRANCH  29  30
ATOM     30  C   UNL     1     -12.706  -4.978   0.628  0.00  0.00    +0.099 A 
ATOM     31  N   UNL     1     -13.020  -3.694   0.569  0.00  0.00    -0.349 N 
ATOM     32  H   UNL     1     -12.870  -3.039   1.269  0.00  0.00    +0.166 HD
ATOM     33  C   UNL     1     -13.585  -3.452  -0.633  0.00  0.00    +0.101 A 
ATOM     34  C   UNL     1     -13.609  -4.619  -1.308  0.00  0.00    +0.101 A 
ATOM     35  N   UNL     1     -13.054  -5.556  -0.511  0.00  0.00    -0.349 N 
ATOM     36  H   UNL     1     -12.933  -6.492  -0.733  0.00  0.00    +0.166 HD
ENDBRANCH  29  30
ENDBRANCH  27  29
ENDBRANCH  26  27
ENDBRANCH  24  26
ENDBRANCH  19  20
ENDBRANCH   1  19
TORSDOF 9
