REMARK  Name = ZINC13235391
REMARK  9 active torsions:
REMARK  status: ('A' for Active; 'I' for Inactive)
REMARK    1  A    between atoms: C_1  and  C_2
REMARK    2  A    between atoms: C_5  and  C_8
REMARK    3  A    between atoms: C_11  and  S_16
REMARK    4  A    between atoms: N_12  and  C_13
REMARK    5  A    between atoms: C_13  and  C_14
REMARK    6  A    between atoms: S_16  and  C_17
REMARK    7  A    between atoms: C_17  and  C_18
REMARK    8  A    between atoms: N_23  and  C_24
REMARK    9  A    between atoms: C_24  and  C_25
REMARK                            x       y       z     vdW  Elec       q    Type
REMARK                         _______ _______ _______ _____ _____    ______ ____
ROOT
ATOM      1  C   UNL     1      -1.451  -6.106  -0.782  0.00  0.00    +0.231 C 
ATOM      2  O   UNL     1      -0.704  -6.775  -0.101  0.00  0.00    -0.274 OA
ATOM      3  N   UNL     1      -1.356  -4.761  -0.765  0.00  0.00    -0.240 N 
ATOM      4  C   UNL     1      -0.429  -4.161   0.008  0.00  0.00    +0.306 C 
ATOM      5  O   UNL     1       0.320  -4.832   0.690  0.00  0.00    -0.252 OA
ATOM      6  N   UNL     1      -0.334  -2.817   0.025  0.00  0.00    -0.295 N 
ATOM      7  H   UNL     1      -1.954  -4.226  -1.310  0.00  0.00    +0.159 HD
ATOM      8  H   UNL     1      -0.932  -2.281  -0.520  0.00  0.00    +0.150 HD
ENDROOT
BRANCH   1   9
ATOM      9  C   UNL     1      -2.487  -6.777  -1.647  0.00  0.00    +0.173 C 
BRANCH   9  10
ATOM     10  S   UNL     1      -2.364  -8.572  -1.452  0.00  0.00    -0.077 S 
BRANCH  10  14
ATOM     11  C   UNL     1      -5.059 -10.285  -3.703  0.00  0.00    +0.165 A 
ATOM     12  N   UNL     1      -5.256  -9.008  -3.938  0.00  0.00    -0.128 NA
ATOM     13  N   UNL     1      -4.428  -8.303  -3.254  0.00  0.00    -0.122 NA
ATOM     14  C   UNL     1      -3.650  -9.087  -2.541  0.00  0.00    +0.193 A 
ATOM     15  N   UNL     1      -4.020 -10.374  -2.806  0.00  0.00    -0.291 N 
BRANCH  11  20
ATOM     16  C   UNL     1      -7.975 -14.677  -6.010  0.00  0.00    +0.044 C 
ATOM     17  C   UNL     1      -7.211 -13.527  -5.406  0.00  0.00    -0.050 A 
ATOM     18  C   UNL     1      -6.476 -13.720  -4.250  0.00  0.00    +0.004 A 
ATOM     19  C   UNL     1      -5.775 -12.671  -3.692  0.00  0.00    +0.012 A 
ATOM     20  C   UNL     1      -5.808 -11.413  -4.296  0.00  0.00    +0.019 A 
ATOM     21  C   UNL     1      -6.555 -11.224  -5.460  0.00  0.00    +0.012 A 
ATOM     22  C   UNL     1      -7.248 -12.283  -6.011  0.00  0.00    +0.004 A 
ENDBRANCH  11  20
BRANCH  15  23
ATOM     23  C   UNL     1      -3.434 -11.596  -2.249  0.00  0.00    +0.250 C 
BRANCH  23  24
ATOM     24  C   UNL     1      -4.140 -11.952  -0.966  0.00  0.00    +0.375 C 
ATOM     25  O   UNL     1      -5.040 -11.256  -0.559  0.00  0.00    -0.244 OA
ATOM     26  O   UNL     1      -3.769 -13.042  -0.276  0.00  0.00    -0.244 OA
ENDBRANCH  23  24
ENDBRANCH  15  23
ENDBRANCH  10  14
ENDBRANCH   9  10
ENDBRANCH   1   9
BRANCH   6  27
ATOM     27  C   UNL     1       0.673  -2.164   0.865  0.00  0.00    +0.153 C 
BRANCH  27  28
ATOM     28  C   UNL     1       0.569  -0.647   0.701  0.00  0.00    +0.228 C 
ATOM     29  C   UNL     1       1.682   0.040   1.504  0.00  0.00    +0.275 C 
ATOM     30  O   UNL     1       1.547   1.455   1.338  0.00  0.00    -0.485 OA
ATOM     31  C   UNL     1       0.294   1.970   1.473  0.00  0.00    +0.162 A 
ATOM     32  C   UNL     1       0.137   3.332   1.682  0.00  0.00    +0.049 A 
ATOM     33  C   UNL     1      -1.129   3.870   1.817  0.00  0.00    +0.004 A 
ATOM     34  C   UNL     1      -2.241   3.053   1.744  0.00  0.00    +0.004 A 
ATOM     35  C   UNL     1      -2.091   1.694   1.544  0.00  0.00    +0.049 A 
ATOM     36  C   UNL     1      -0.824   1.148   1.403  0.00  0.00    +0.163 A 
ATOM     37  O   UNL     1      -0.692  -0.192   1.203  0.00  0.00    -0.480 OA
ENDBRANCH  27  28
ENDBRANCH   6  27
TORSDOF 8
