REMARK  Name = ZINC46778846
REMARK  10 active torsions:
REMARK  status: ('A' for Active; 'I' for Inactive)
REMARK    1  A    between atoms: C_1  and  C_2
REMARK    2  A    between atoms: C_2  and  C_4
REMARK    3  A    between atoms: C_2  and  N_19
REMARK    4  A    between atoms: C_8  and  N_10
REMARK    5  A    between atoms: C_11  and  C_13
REMARK    6  A    between atoms: C_20  and  C_22
REMARK    7  A    between atoms: C_22  and  C_23
REMARK    8  A    between atoms: C_23  and  C_24
REMARK    9  A    between atoms: C_24  and  N_25
REMARK   10  A    between atoms: C_29  and  N_35
REMARK                            x       y       z     vdW  Elec       q    Type
REMARK                         _______ _______ _______ _____ _____    ______ ____
ROOT
ATOM      1  N   UNL     1       0.608  -0.141  -1.122  0.00  0.00    -0.309 N 
ATOM      2  C   UNL     1      -0.133  -0.104  -2.247  0.00  0.00    +0.214 C 
ATOM      3  O   UNL     1      -1.273   0.308  -2.210  0.00  0.00    -0.276 OA
ATOM      4  H   UNL     1       1.519  -0.471  -1.152  0.00  0.00    +0.149 HD
ENDROOT
BRANCH   1   6
ATOM      5  C   UNL     1       0.200   1.833   0.263  0.00  0.00    +0.033 C 
ATOM      6  C   UNL     1       0.035   0.317   0.147  0.00  0.00    +0.100 C 
BRANCH   6   7
ATOM      7  C   UNL     1       0.749  -0.355   1.291  0.00  0.00    -0.026 A 
ATOM      8  C   UNL     1       2.120  -0.530   1.243  0.00  0.00    +0.005 A 
ATOM      9  C   UNL     1       2.779  -1.146   2.292  0.00  0.00    +0.002 A 
ATOM     10  C   UNL     1       2.069  -1.589   3.391  0.00  0.00    +0.023 A 
ATOM     11  C   UNL     1       0.692  -1.415   3.442  0.00  0.00    +0.034 A 
ATOM     12  C   UNL     1       0.034  -0.791   2.389  0.00  0.00    +0.028 A 
BRANCH  11  13
ATOM     13  N   UNL     1      -0.029  -1.862   4.553  0.00  0.00    -0.281 N 
ATOM     14  C   UNL     1       0.531  -1.830   5.778  0.00  0.00    +0.248 C 
ATOM     15  O   UNL     1       1.626  -1.324   5.933  0.00  0.00    -0.270 OA
ATOM     16  H   UNL     1      -0.933  -2.196   4.442  0.00  0.00    +0.155 HD
BRANCH  14  17
ATOM     17  C   UNL     1      -0.185  -2.409   6.934  0.00  0.00    +0.037 A 
ATOM     18  C   UNL     1      -1.440  -2.996   6.760  0.00  0.00    +0.013 A 
ATOM     19  C   UNL     1      -2.103  -3.535   7.843  0.00  0.00    +0.001 A 
ATOM     20  C   UNL     1      -1.527  -3.495   9.100  0.00  0.00    +0.000 A 
ATOM     21  C   UNL     1      -0.284  -2.914   9.280  0.00  0.00    +0.001 A 
ATOM     22  C   UNL     1       0.393  -2.377   8.205  0.00  0.00    +0.013 A 
ENDBRANCH  14  17
ENDBRANCH  11  13
ENDBRANCH   6   7
ENDBRANCH   1   6
BRANCH   2  23
ATOM     23  C   UNL     1       0.456  -0.576  -3.552  0.00  0.00    +0.097 C 
BRANCH  23  24
ATOM     24  C   UNL     1      -0.586  -0.429  -4.664  0.00  0.00    +0.031 C 
BRANCH  24  25
ATOM     25  C   UNL     1       0.012  -0.907  -5.989  0.00  0.00    +0.129 C 
BRANCH  25  26
ATOM     26  N   UNL     1      -0.985  -0.767  -7.053  0.00  0.00    -0.274 N 
ATOM     27  C   UNL     1      -1.920  -1.727  -7.439  0.00  0.00    +0.090 A 
ATOM     28  C   UNL     1      -2.202  -3.011  -7.000  0.00  0.00    +0.032 A 
ATOM     29  C   UNL     1      -3.216  -3.734  -7.597  0.00  0.00    +0.035 A 
ATOM     30  C   UNL     1      -3.949  -3.180  -8.632  0.00  0.00    +0.130 A 
ATOM     31  C   UNL     1      -3.674  -1.902  -9.075  0.00  0.00    +0.081 A 
ATOM     32  C   UNL     1      -2.658  -1.168  -8.482  0.00  0.00    +0.159 A 
ATOM     33  O   UNL     1      -2.170   0.078  -8.697  0.00  0.00    -0.407 OA
ATOM     34  C   UNL     1      -1.171   0.316  -7.833  0.00  0.00    +0.421 A 
ATOM     35  O   UNL     1      -0.530   1.347  -7.767  0.00  0.00    -0.223 OA
BRANCH  30  36
ATOM     36  N   UNL     1      -5.034  -3.962  -9.267  0.00  0.00    +0.057 N 
ATOM     37  O   UNL     1      -5.278  -5.082  -8.882  0.00  0.00    -0.126 OA
ATOM     38  O   UNL     1      -5.676  -3.481 -10.172  0.00  0.00    -0.126 OA
ENDBRANCH  30  36
ENDBRANCH  25  26
ENDBRANCH  24  25
ENDBRANCH  23  24
ENDBRANCH   2  23
TORSDOF 9
