REMARK  Name = ZINC21325605
REMARK  5 active torsions:
REMARK  status: ('A' for Active; 'I' for Inactive)
REMARK    1  A    between atoms: C_1  and  C_2
REMARK    2  A    between atoms: C_5  and  C_8
REMARK    3  A    between atoms: C_10  and  S_13
REMARK    4  A    between atoms: S_13  and  C_14
REMARK    5  A    between atoms: C_14  and  C_15
REMARK                            x       y       z     vdW  Elec       q    Type
REMARK                         _______ _______ _______ _____ _____    ______ ____
ROOT
ATOM      1  C   UNL     1       2.046   0.588  -0.014  0.00  0.00    +0.182 A 
ATOM      2  N   UNL     1       1.283   1.733  -0.001  0.00  0.00    -0.201 NA
ATOM      3  C   UNL     1      -0.016   1.310   0.009  0.00  0.00    +0.185 A 
ATOM      4  N   UNL     1       0.002  -0.004   0.008  0.00  0.00    -0.253 N 
ATOM      5  N   UNL     1       1.215  -0.429  -0.003  0.00  0.00    -0.152 NA
ATOM      6  H   UNL     1      -0.832  -0.721   0.014  0.00  0.00    +0.191 HD
ENDROOT
BRANCH   1  11
ATOM      7  C   UNL     1       7.793   0.307  -0.106  0.00  0.00    +0.044 C 
ATOM      8  C   UNL     1       6.288   0.380  -0.082  0.00  0.00    -0.050 A 
ATOM      9  C   UNL     1       5.541  -0.784  -0.081  0.00  0.00    +0.004 A 
ATOM     10  C   UNL     1       4.163  -0.724  -0.059  0.00  0.00    +0.012 A 
ATOM     11  C   UNL     1       3.522   0.515  -0.037  0.00  0.00    +0.021 A 
ATOM     12  C   UNL     1       4.281   1.687  -0.044  0.00  0.00    +0.012 A 
ATOM     13  C   UNL     1       5.658   1.613  -0.060  0.00  0.00    +0.004 A 
ENDBRANCH   1  11
BRANCH   3  14
ATOM     14  S   UNL     1      -1.448   2.336   0.022  0.00  0.00    -0.077 S 
BRANCH  14  15
ATOM     15  C   UNL     1      -2.742   1.070   0.022  0.00  0.00    +0.173 C 
BRANCH  15  16
ATOM     16  C   UNL     1      -4.095   1.734   0.033  0.00  0.00    +0.207 A 
ATOM     17  N   UNL     1      -4.767   2.066  -1.028  0.00  0.00    -0.213 NA
ATOM     18  C   UNL     1      -5.939   2.639  -0.643  0.00  0.00    +0.110 A 
ATOM     19  C   UNL     1      -7.027   3.174  -1.335  0.00  0.00    +0.031 A 
ATOM     20  C   UNL     1      -8.093   3.693  -0.636  0.00  0.00    +0.002 A 
ATOM     21  C   UNL     1      -8.092   3.689   0.751  0.00  0.00    +0.004 A 
ATOM     22  C   UNL     1      -7.024   3.164   1.448  0.00  0.00    +0.048 A 
ATOM     23  C   UNL     1      -5.942   2.637   0.760  0.00  0.00    +0.155 A 
ATOM     24  O   UNL     1      -4.780   2.061   1.139  0.00  0.00    -0.439 OA
ENDBRANCH  15  16
ENDBRANCH  14  15
ENDBRANCH   3  14
TORSDOF 4
