REMARK  Name = ZINC36584226
REMARK  14 active torsions:
REMARK  status: ('A' for Active; 'I' for Inactive)
REMARK    1  A    between atoms: C_1  and  C_2
REMARK    2  A    between atoms: C_2  and  C_3
REMARK    3  A    between atoms: C_2  and  C_4
REMARK    4  A    between atoms: C_2  and  N_5
REMARK    5  A    between atoms: C_6  and  C_8
REMARK    6  A    between atoms: C_8  and  C_10
REMARK    7  A    between atoms: C_8  and  N_19
REMARK    8  A    between atoms: C_13  and  N_16
REMARK    9  A    between atoms: N_19  and  C_29
REMARK   10  A    between atoms: C_20  and  C_22
REMARK   11  A    between atoms: C_27  and  O_28
REMARK   12  A    between atoms: C_29  and  C_30
REMARK   13  A    between atoms: C_29  and  C_31
REMARK   14  A    between atoms: C_29  and  C_32
REMARK                            x       y       z     vdW  Elec       q    Type
REMARK                         _______ _______ _______ _____ _____    ______ ____
ROOT
ATOM      1  C   UNL     1       7.223  -0.280  -0.234  0.00  0.00    +0.193 C 
ENDROOT
BRANCH   1   2
ATOM      2  C   UNL     1       8.392   0.115   0.630  0.00  0.00    -0.018 A 
ATOM      3  C   UNL     1       8.828   1.427   0.646  0.00  0.00    +0.008 A 
ATOM      4  C   UNL     1       9.901   1.790   1.438  0.00  0.00    +0.033 A 
ATOM      5  C   UNL     1      10.538   0.840   2.215  0.00  0.00    +0.126 A 
ATOM      6  C   UNL     1      10.102  -0.471   2.200  0.00  0.00    +0.033 A 
ATOM      7  C   UNL     1       9.027  -0.833   1.411  0.00  0.00    +0.008 A 
BRANCH   5   8
ATOM      8  N   UNL     1      11.688   1.228   3.063  0.00  0.00    +0.056 N 
ATOM      9  O   UNL     1      12.069   2.376   3.076  0.00  0.00    -0.126 OA
ATOM     10  O   UNL     1      12.245   0.398   3.743  0.00  0.00    -0.126 OA
ENDBRANCH   5   8
ENDBRANCH   1   2
BRANCH   1  12
ATOM     11  N   UNL     1       6.223  -1.870   1.375  0.00  0.00    -0.309 N 
ATOM     12  C   UNL     1       6.088  -0.748   0.640  0.00  0.00    +0.239 C 
ATOM     13  O   UNL     1       5.054  -0.116   0.683  0.00  0.00    -0.273 OA
ATOM     14  H   UNL     1       7.050  -2.376   1.342  0.00  0.00    +0.149 HD
BRANCH  11  16
ATOM     15  C   UNL     1       3.887  -2.596   1.360  0.00  0.00    +0.031 C 
ATOM     16  C   UNL     1       5.120  -2.325   2.225  0.00  0.00    +0.026 C 
ATOM     17  C   UNL     1       4.791  -1.244   3.257  0.00  0.00    +0.031 C 
ATOM     18  C   UNL     1       5.529  -3.611   2.947  0.00  0.00    +0.031 C 
ENDBRANCH  11  16
ENDBRANCH   1  12
BRANCH   1  19
ATOM     19  N   UNL     1       6.786   0.875  -1.023  0.00  0.00    -0.277 N 
ATOM     20  C   UNL     1       6.560   2.058  -0.418  0.00  0.00    +0.251 C 
ATOM     21  O   UNL     1       6.343   2.097   0.777  0.00  0.00    -0.270 OA
BRANCH  20  22
ATOM     22  C   UNL     1       6.576   3.304  -1.207  0.00  0.00    +0.078 A 
ATOM     23  C   UNL     1       5.731   3.448  -2.311  0.00  0.00    +0.017 A 
ATOM     24  C   UNL     1       5.751   4.615  -3.043  0.00  0.00    +0.001 A 
ATOM     25  C   UNL     1       6.604   5.648  -2.690  0.00  0.00    +0.004 A 
ATOM     26  C   UNL     1       7.444   5.519  -1.602  0.00  0.00    +0.046 A 
ATOM     27  C   UNL     1       7.434   4.353  -0.850  0.00  0.00    +0.129 A 
BRANCH  27  28
ATOM     28  O   UNL     1       8.255   4.227   0.222  0.00  0.00    -0.506 OA
ATOM     29  H   UNL     1       9.122   3.853   0.013  0.00  0.00    +0.292 HD
ENDBRANCH  27  28
ENDBRANCH  20  22
BRANCH  19  30
ATOM     30  C   UNL     1       6.596   0.743  -2.470  0.00  0.00    +0.030 C 
ATOM     31  C   UNL     1       7.342  -0.495  -2.972  0.00  0.00    +0.031 C 
ATOM     32  C   UNL     1       5.104   0.599  -2.777  0.00  0.00    +0.031 C 
ATOM     33  C   UNL     1       7.144   1.988  -3.171  0.00  0.00    +0.031 C 
ENDBRANCH  19  30
ENDBRANCH   1  19
TORSDOF 8
