REMARK  Name = ZINC25671577
REMARK  12 active torsions:
REMARK  status: ('A' for Active; 'I' for Inactive)
REMARK    1  A    between atoms: C_1  and  C_2
REMARK    2  A    between atoms: C_2  and  O_3
REMARK    3  A    between atoms: O_3  and  C_4
REMARK    4  A    between atoms: C_4  and  C_6
REMARK    5  A    between atoms: C_7  and  C_20
REMARK    6  A    between atoms: C_12  and  C_14
REMARK    7  A    between atoms: C_17  and  C_19
REMARK    8  A    between atoms: C_20  and  S_21
REMARK    9  A    between atoms: S_21  and  C_22
REMARK   10  A    between atoms: N_26  and  C_27
REMARK   11  A    between atoms: C_27  and  C_28
REMARK   12  A    between atoms: C_28  and  C_29
REMARK                            x       y       z     vdW  Elec       q    Type
REMARK                         _______ _______ _______ _____ _____    ______ ____
ROOT
ATOM      1  C   UNL     1       4.848   4.722  -3.369  0.00  0.00    +0.082 C 
ATOM      2  C   UNL     1       3.668   4.718  -4.027  0.00  0.00    +0.034 C 
ATOM      3  N   UNL     1       3.102   5.880  -4.466  0.00  0.00    -0.272 N 
ATOM      4  C   UNL     1       3.647   7.088  -4.279  0.00  0.00    +0.304 C 
ATOM      5  O   UNL     1       3.066   8.068  -4.703  0.00  0.00    -0.252 OA
ATOM      6  N   UNL     1       4.823   7.254  -3.640  0.00  0.00    -0.285 N 
ATOM      7  C   UNL     1       5.518   6.060  -3.131  0.00  0.00    +0.179 C 
ATOM      8  H   UNL     1       2.145   5.855  -5.008  0.00  0.00    +0.156 HD
ATOM      9  H   UNL     1       5.264   8.251  -3.495  0.00  0.00    +0.151 HD
ENDROOT
BRANCH   7  10
ATOM     10  C   UNL     1       6.885   6.014  -3.763  0.00  0.00    +0.130 A 
ATOM     11  C   UNL     1       8.044   5.797  -3.116  0.00  0.00    +0.047 A 
ATOM     12  C   UNL     1       9.070   5.837  -4.088  0.00  0.00    +0.045 A 
ATOM     13  C   UNL     1       8.477   6.076  -5.271  0.00  0.00    +0.102 A 
ATOM     14  O   UNL     1       7.153   6.176  -5.069  0.00  0.00    -0.463 OA
ATOM     15  C   UNL     1       9.178   6.202  -6.599  0.00  0.00    +0.086 C 
ENDBRANCH   7  10
BRANCH   1  16
ATOM     16  C   UNL     1       5.438   3.518  -2.917  0.00  0.00    +0.339 C 
ATOM     17  O   UNL     1       5.342   3.195  -1.748  0.00  0.00    -0.245 OA
BRANCH  16  18
ATOM     18  O   UNL     1       6.106   2.728  -3.783  0.00  0.00    -0.462 OA
BRANCH  18  20
ATOM     19  C   UNL     1       7.389   0.768  -4.379  0.00  0.00    +0.048 C 
ATOM     20  C   UNL     1       6.676   1.527  -3.258  0.00  0.00    +0.229 C 
ENDBRANCH  18  20
ENDBRANCH  16  18
ENDBRANCH   1  16
BRANCH   2  21
ATOM     21  C   UNL     1       2.968   3.408  -4.285  0.00  0.00    +0.128 C 
BRANCH  21  22
ATOM     22  S   UNL     1       1.568   3.239  -3.151  0.00  0.00    -0.079 S 
BRANCH  22  23
ATOM     23  C   UNL     1       0.951   1.669  -3.658  0.00  0.00    +0.210 A 
ATOM     24  N   UNL     1       1.445   0.905  -4.608  0.00  0.00    -0.102 NA
ATOM     25  N   UNL     1       0.753  -0.170  -4.726  0.00  0.00    -0.022 NA
ATOM     26  N   UNL     1      -0.214  -0.177  -3.874  0.00  0.00    -0.043 NA
ATOM     27  N   UNL     1      -0.120   1.020  -3.142  0.00  0.00    -0.220 N 
BRANCH  27  28
ATOM     28  C   UNL     1      -0.995   1.471  -2.058  0.00  0.00    +0.153 C 
BRANCH  28  29
ATOM     29  C   UNL     1      -0.447   0.974  -0.719  0.00  0.00    +0.066 C 
BRANCH  29  30
ATOM     30  C   UNL     1      -1.348   1.438   0.397  0.00  0.00    -0.008 A 
ATOM     31  C   UNL     1      -2.428   0.820   0.935  0.00  0.00    +0.011 A 
ATOM     32  C   UNL     1      -3.111   1.440   1.964  0.00  0.00    +0.008 A 
ATOM     33  C   UNL     1      -2.681   2.647   2.405  0.00  0.00    +0.045 A 
ATOM     34  S   UNL     1      -1.265   2.940   1.357  0.00  0.00    -0.102 S 
ENDBRANCH  29  30
ENDBRANCH  28  29
ENDBRANCH  27  28
ENDBRANCH  22  23
ENDBRANCH  21  22
ENDBRANCH   2  21
TORSDOF 10
