REMARK  Name = ZINC13398401
REMARK  7 active torsions:
REMARK  status: ('A' for Active; 'I' for Inactive)
REMARK    1  A    between atoms: C_1  and  C_2
REMARK    2  A    between atoms: C_5  and  N_9
REMARK    3  A    between atoms: C_13  and  S_14
REMARK    4  A    between atoms: S_14  and  C_15
REMARK    5  A    between atoms: C_15  and  C_16
REMARK    6  A    between atoms: C_22  and  C_30
REMARK    7  A    between atoms: C_23  and  C_27
REMARK                            x       y       z     vdW  Elec       q    Type
REMARK                         _______ _______ _______ _____ _____    ______ ____
ROOT
ATOM      1  C   UNL     1       2.928  -6.048   2.327  0.00  0.00    +0.151 C 
ENDROOT
BRANCH   1   2
ATOM      2  C   UNL     1       4.063  -5.755   3.274  0.00  0.00    +0.121 A 
ATOM      3  N   UNL     1       4.749  -6.790   3.818  0.00  0.00    -0.310 N 
ATOM      4  H   UNL     1       4.498  -7.698   3.590  0.00  0.00    +0.170 HD
ATOM      5  C   UNL     1       5.773  -6.582   4.670  0.00  0.00    +0.260 A 
ATOM      6  O   UNL     1       6.383  -7.518   5.153  0.00  0.00    -0.267 OA
ATOM      7  C   UNL     1       6.137  -5.185   5.002  0.00  0.00    +0.076 A 
ATOM      8  C   UNL     1       7.144  -4.715   5.845  0.00  0.00    -0.015 A 
ATOM      9  C   UNL     1       7.311  -3.359   6.013  0.00  0.00    +0.106 A 
ATOM     10  S   UNL     1       6.034  -2.673   4.973  0.00  0.00    -0.062 S 
ATOM     11  C   UNL     1       5.347  -4.196   4.371  0.00  0.00    +0.116 A 
ATOM     12  N   UNL     1       4.361  -4.512   3.541  0.00  0.00    -0.226 NA
ATOM     13  C   UNL     1       8.043  -5.686   6.567  0.00  0.00    +0.046 C 
BRANCH   9  14
ATOM     14  C   UNL     1       8.262  -2.677   6.815  0.00  0.00    +0.393 C 
ATOM     15  O   UNL     1       9.075  -3.312   7.474  0.00  0.00    -0.240 OA
ATOM     16  O   UNL     1       8.269  -1.452   6.848  0.00  0.00    -0.240 OA
ENDBRANCH   9  14
ENDBRANCH   1   2
BRANCH   1  17
ATOM     17  S   UNL     1       2.203  -4.488   1.752  0.00  0.00    -0.078 S 
BRANCH  17  22
ATOM     18  N   UNL     1       0.059  -4.174  -0.022  0.00  0.00    -0.277 N 
ATOM     19  C   UNL     1      -0.766  -5.008  -0.729  0.00  0.00    +0.230 A 
ATOM     20  N   UNL     1      -0.411  -6.231  -0.452  0.00  0.00    -0.137 NA
ATOM     21  N   UNL     1       0.574  -6.229   0.375  0.00  0.00    -0.122 NA
ATOM     22  C   UNL     1       0.908  -4.993   0.669  0.00  0.00    +0.196 A 
BRANCH  18  27
ATOM     23  C   UNL     1      -0.018   1.503   0.010  0.00  0.00    +0.045 C 
ATOM     24  C   UNL     1       0.002  -0.004   0.002  0.00  0.00    -0.032 A 
ATOM     25  C   UNL     1       0.006  -0.688  -1.200  0.00  0.00    +0.007 A 
ATOM     26  C   UNL     1       0.025  -2.069  -1.211  0.00  0.00    +0.026 A 
ATOM     27  C   UNL     1       0.040  -2.771  -0.013  0.00  0.00    +0.051 A 
ATOM     28  C   UNL     1       0.037  -2.084   1.192  0.00  0.00    +0.046 A 
ATOM     29  C   UNL     1       0.023  -0.701   1.197  0.00  0.00    +0.046 A 
ATOM     30 CL   UNL     1       0.025   0.161   2.704  0.00  0.00    -0.083 Cl
ENDBRANCH  18  27
ENDBRANCH  17  22
ENDBRANCH   1  17
TORSDOF 5
