REMARK  Name = ZINC21904146
REMARK  13 active torsions:
REMARK  status: ('A' for Active; 'I' for Inactive)
REMARK    1  A    between atoms: C_1  and  C_2
REMARK    2  A    between atoms: C_2  and  C_3
REMARK    3  A    between atoms: C_4  and  C_34
REMARK    4  A    between atoms: N_10  and  C_27
REMARK    5  A    between atoms: C_11  and  S_13
REMARK    6  A    between atoms: S_13  and  C_14
REMARK    7  A    between atoms: C_14  and  C_16
REMARK    8  A    between atoms: C_14  and  C_17
REMARK    9  A    between atoms: N_22  and  C_23
REMARK   10  A    between atoms: C_23  and  C_24
REMARK   11  A    between atoms: C_24  and  C_25
REMARK   12  A    between atoms: C_24  and  C_26
REMARK   13  A    between atoms: C_27  and  C_28
REMARK                            x       y       z     vdW  Elec       q    Type
REMARK                         _______ _______ _______ _____ _____    ______ ____
ROOT
ATOM      1  C   UNL     1      -1.412  -0.526   0.013  0.00  0.00    -0.023 A 
ATOM      2  C   UNL     1      -2.039  -0.761   1.175  0.00  0.00    -0.007 A 
ATOM      3  S   UNL     1      -3.643  -1.351   0.667  0.00  0.00    -0.073 S 
ATOM      4  C   UNL     1      -3.425  -1.264  -1.092  0.00  0.00    +0.117 A 
ATOM      5  C   UNL     1      -2.113  -0.773  -1.235  0.00  0.00    +0.076 A 
ATOM      6  C   UNL     1      -1.659  -0.594  -2.580  0.00  0.00    +0.263 A 
ATOM      7  O   UNL     1      -0.535  -0.178  -2.802  0.00  0.00    -0.267 OA
ATOM      8  N   UNL     1      -2.489  -0.892  -3.597  0.00  0.00    -0.285 N 
ATOM      9  C   UNL     1      -3.750  -1.359  -3.368  0.00  0.00    +0.173 A 
ATOM     10  N   UNL     1      -4.191  -1.543  -2.139  0.00  0.00    -0.216 NA
ATOM     11  C   UNL     1      -1.513  -0.573   2.574  0.00  0.00    +0.052 C 
ENDROOT
BRANCH   1  13
ATOM     12  C   UNL     1      -0.019   1.526   0.010  0.00  0.00    +0.009 C 
ATOM     13  C   UNL     1       0.002  -0.004   0.002  0.00  0.00    +0.033 C 
ENDBRANCH   1  13
BRANCH   9  14
ATOM     14  S   UNL     1      -4.799  -1.734  -4.733  0.00  0.00    -0.075 S 
BRANCH  14  15
ATOM     15  C   UNL     1      -6.337  -2.308  -3.959  0.00  0.00    +0.137 C 
ATOM     16  C   UNL     1      -6.976  -1.157  -3.180  0.00  0.00    +0.029 C 
BRANCH  15  17
ATOM     17  C   UNL     1      -7.289  -2.783  -5.027  0.00  0.00    +0.233 C 
ATOM     18  O   UNL     1      -7.142  -2.421  -6.175  0.00  0.00    -0.274 OA
ATOM     19  N   UNL     1      -8.304  -3.609  -4.705  0.00  0.00    -0.239 N 
ATOM     20  C   UNL     1      -9.156  -4.033  -5.660  0.00  0.00    +0.306 C 
ATOM     21  O   UNL     1      -9.009  -3.670  -6.811  0.00  0.00    -0.252 OA
ATOM     22  N   UNL     1     -10.171  -4.859  -5.338  0.00  0.00    -0.299 N 
ATOM     23  H   UNL     1      -8.422  -3.898  -3.787  0.00  0.00    +0.159 HD
ATOM     24  H   UNL     1     -10.289  -5.149  -4.420  0.00  0.00    +0.150 HD
BRANCH  22  25
ATOM     25  C   UNL     1     -11.097  -5.320  -6.376  0.00  0.00    +0.108 C 
BRANCH  25  26
ATOM     26  C   UNL     1     -12.148  -6.240  -5.750  0.00  0.00    -0.000 C 
ATOM     27  C   UNL     1     -13.186  -6.621  -6.807  0.00  0.00    +0.009 C 
ATOM     28  C   UNL     1     -11.468  -7.505  -5.223  0.00  0.00    +0.009 C 
ENDBRANCH  25  26
ENDBRANCH  22  25
ENDBRANCH  15  17
ENDBRANCH  14  15
ENDBRANCH   9  14
BRANCH   8  29
ATOM     29  C   UNL     1      -2.029  -0.710  -4.976  0.00  0.00    +0.159 C 
BRANCH  29  30
ATOM     30  C   UNL     1      -1.369  -2.000  -5.468  0.00  0.00    +0.138 C 
ATOM     31  C   UNL     1      -0.845  -1.817  -6.914  0.00  0.00    +0.035 C 
ATOM     32  C   UNL     1       0.278  -2.890  -6.958  0.00  0.00    +0.031 C 
ATOM     33  C   UNL     1       0.817  -2.859  -5.512  0.00  0.00    +0.160 C 
ATOM     34  O   UNL     1      -0.206  -2.297  -4.679  0.00  0.00    -0.375 OA
ENDBRANCH  29  30
ENDBRANCH   8  29
TORSDOF 8
