REMARK  Name = ZINC25671581
REMARK  12 active torsions:
REMARK  status: ('A' for Active; 'I' for Inactive)
REMARK    1  A    between atoms: C_1  and  C_2
REMARK    2  A    between atoms: C_2  and  O_3
REMARK    3  A    between atoms: O_3  and  C_4
REMARK    4  A    between atoms: C_4  and  C_6
REMARK    5  A    between atoms: C_7  and  C_20
REMARK    6  A    between atoms: C_12  and  C_14
REMARK    7  A    between atoms: C_17  and  C_19
REMARK    8  A    between atoms: C_20  and  S_21
REMARK    9  A    between atoms: S_21  and  C_22
REMARK   10  A    between atoms: N_26  and  C_27
REMARK   11  A    between atoms: C_27  and  C_28
REMARK   12  A    between atoms: C_28  and  C_29
REMARK                            x       y       z     vdW  Elec       q    Type
REMARK                         _______ _______ _______ _____ _____    ______ ____
ROOT
ATOM      1  C   UNL     1       1.101  -1.863  -5.771  0.00  0.00    +0.082 C 
ATOM      2  C   UNL     1      -0.070  -1.925  -5.101  0.00  0.00    +0.034 C 
ATOM      3  N   UNL     1      -1.254  -1.659  -5.727  0.00  0.00    -0.272 N 
ATOM      4  C   UNL     1      -1.351  -1.315  -7.017  0.00  0.00    +0.304 C 
ATOM      5  O   UNL     1      -2.451  -1.093  -7.485  0.00  0.00    -0.252 OA
ATOM      6  N   UNL     1      -0.271  -1.213  -7.816  0.00  0.00    -0.285 N 
ATOM      7  C   UNL     1       1.056  -1.485  -7.238  0.00  0.00    +0.179 C 
ATOM      8  H   UNL     1      -2.198  -1.722  -5.166  0.00  0.00    +0.156 HD
ATOM      9  H   UNL     1      -0.362  -0.934  -8.876  0.00  0.00    +0.151 HD
ENDROOT
BRANCH   7  10
ATOM     10  C   UNL     1       1.906  -0.255  -7.427  0.00  0.00    +0.130 A 
ATOM     11  C   UNL     1       3.166  -0.235  -7.897  0.00  0.00    +0.047 A 
ATOM     12  C   UNL     1       3.577   1.118  -7.908  0.00  0.00    +0.045 A 
ATOM     13  C   UNL     1       2.544   1.843  -7.444  0.00  0.00    +0.102 A 
ATOM     14  O   UNL     1       1.532   1.007  -7.159  0.00  0.00    -0.463 OA
ATOM     15  C   UNL     1       2.522   3.341  -7.278  0.00  0.00    +0.086 C 
ENDBRANCH   7  10
BRANCH   1  16
ATOM     16  C   UNL     1       2.329  -2.143  -5.126  0.00  0.00    +0.339 C 
ATOM     17  O   UNL     1       2.866  -3.224  -5.282  0.00  0.00    -0.245 OA
BRANCH  16  18
ATOM     18  O   UNL     1       2.904  -1.211  -4.337  0.00  0.00    -0.462 OA
BRANCH  18  20
ATOM     19  C   UNL     1       4.637  -0.388  -2.867  0.00  0.00    +0.048 C 
ATOM     20  C   UNL     1       4.142  -1.561  -3.716  0.00  0.00    +0.229 C 
ENDBRANCH  18  20
ENDBRANCH  16  18
ENDBRANCH   1  16
BRANCH   2  21
ATOM     21  C   UNL     1      -0.070  -2.297  -3.641  0.00  0.00    +0.128 C 
BRANCH  21  22
ATOM     22  S   UNL     1      -0.349  -0.816  -2.640  0.00  0.00    -0.079 S 
BRANCH  22  23
ATOM     23  C   UNL     1      -0.302  -1.523  -1.027  0.00  0.00    +0.210 A 
ATOM     24  N   UNL     1      -0.107  -2.791  -0.735  0.00  0.00    -0.102 NA
ATOM     25  N   UNL     1      -0.138  -2.969   0.537  0.00  0.00    -0.022 NA
ATOM     26  N   UNL     1      -0.345  -1.850   1.141  0.00  0.00    -0.043 NA
ATOM     27  N   UNL     1      -0.456  -0.864   0.146  0.00  0.00    -0.220 N 
BRANCH  27  28
ATOM     28  C   UNL     1      -0.694   0.570   0.336  0.00  0.00    +0.153 C 
BRANCH  28  29
ATOM     29  C   UNL     1       0.647   1.296   0.467  0.00  0.00    +0.066 C 
BRANCH  29  30
ATOM     30  C   UNL     1       0.402   2.770   0.663  0.00  0.00    -0.008 A 
ATOM     31  C   UNL     1       0.238   3.462   1.816  0.00  0.00    +0.011 A 
ATOM     32  C   UNL     1       0.023   4.827   1.754  0.00  0.00    +0.008 A 
ATOM     33  C   UNL     1      -0.016   5.431   0.542  0.00  0.00    +0.045 A 
ATOM     34  S   UNL     1       0.261   4.059  -0.565  0.00  0.00    -0.102 S 
ENDBRANCH  29  30
ENDBRANCH  28  29
ENDBRANCH  27  28
ENDBRANCH  22  23
ENDBRANCH  21  22
ENDBRANCH   2  21
TORSDOF 10
