REMARK  Name = ZINC16906010
REMARK  5 active torsions:
REMARK  status: ('A' for Active; 'I' for Inactive)
REMARK    1  A    between atoms: C_3  and  C_25
REMARK    2  A    between atoms: C_6  and  C_7
REMARK    3  A    between atoms: N_11  and  N_15
REMARK    4  A    between atoms: N_15  and  C_16
REMARK    5  A    between atoms: C_19  and  N_22
REMARK                            x       y       z     vdW  Elec       q    Type
REMARK                         _______ _______ _______ _____ _____    ______ ____
ROOT
ATOM      1  C   UNL     1       4.099   2.763   1.993  0.00  0.00    +0.028 C 
ATOM      2  C   UNL     1       3.324   2.295   0.983  0.00  0.00    +0.079 C 
ATOM      3  C   UNL     1       2.308   1.217   0.994  0.00  0.00    +0.275 C 
ATOM      4  O   UNL     1       2.048   0.593   2.005  0.00  0.00    -0.267 OA
ATOM      5  N   UNL     1       1.697   0.970  -0.153  0.00  0.00    -0.172 N 
ATOM      6  C   UNL     1       1.992   1.661  -1.272  0.00  0.00    +0.138 C 
ATOM      7  S   UNL     1       1.323   1.484  -2.838  0.00  0.00    -0.026 S 
ATOM      8  S   UNL     1       3.248   2.808  -0.728  0.00  0.00    -0.059 S 
ENDROOT
BRANCH   1  14
ATOM      9  C   UNL     1       2.554   2.127   3.833  0.00  0.00    +0.009 A 
ATOM     10  C   UNL     1       2.336   1.701   5.112  0.00  0.00    +0.016 A 
ATOM     11  C   UNL     1       3.418   1.459   5.963  0.00  0.00    +0.063 A 
ATOM     12  C   UNL     1       4.726   1.647   5.504  0.00  0.00    +0.016 A 
ATOM     13  C   UNL     1       4.947   2.067   4.224  0.00  0.00    +0.009 A 
ATOM     14  C   UNL     1       3.863   2.310   3.370  0.00  0.00    -0.024 A 
BRANCH  11  15
ATOM     15  C   UNL     1       3.181   1.004   7.348  0.00  0.00    +0.387 C 
ATOM     16  O   UNL     1       4.122   0.793   8.087  0.00  0.00    -0.241 OA
ATOM     17  O   UNL     1       1.922   0.823   7.791  0.00  0.00    -0.241 OA
ENDBRANCH  11  15
ENDBRANCH   1  14
BRANCH   5  18
ATOM     18  N   UNL     1       0.726  -0.038  -0.208  0.00  0.00    -0.256 N 
ATOM     19  H   UNL     1       0.993  -0.970  -0.203  0.00  0.00    +0.171 HD
BRANCH  18  20
ATOM     20  C   UNL     1      -0.628   0.300  -0.274  0.00  0.00    +0.045 A 
ATOM     21  C   UNL     1      -1.013   1.635  -0.275  0.00  0.00    +0.027 A 
ATOM     22  C   UNL     1      -2.352   1.966  -0.345  0.00  0.00    +0.034 A 
ATOM     23  C   UNL     1      -3.309   0.970  -0.405  0.00  0.00    +0.126 A 
ATOM     24  C   UNL     1      -2.930  -0.360  -0.399  0.00  0.00    +0.034 A 
ATOM     25  C   UNL     1      -1.593  -0.698  -0.334  0.00  0.00    +0.027 A 
BRANCH  23  26
ATOM     26  N   UNL     1      -4.744   1.328  -0.475  0.00  0.00    +0.056 N 
ATOM     27  O   UNL     1      -5.589   0.452  -0.528  0.00  0.00    -0.126 OA
ATOM     28  O   UNL     1      -5.080   2.499  -0.480  0.00  0.00    -0.126 OA
ENDBRANCH  23  26
ENDBRANCH  18  20
ENDBRANCH   5  18
TORSDOF 5
