REMARK  Name = ZINC16384216
REMARK  7 active torsions:
REMARK  status: ('A' for Active; 'I' for Inactive)
REMARK    1  A    between atoms: C_3  and  N_28
REMARK    2  A    between atoms: C_5  and  S_7
REMARK    3  A    between atoms: S_7  and  N_10
REMARK    4  A    between atoms: N_10  and  C_11
REMARK    5  A    between atoms: C_14  and  S_17
REMARK    6  A    between atoms: S_17  and  N_20
REMARK    7  A    between atoms: N_20  and  C_21
REMARK                            x       y       z     vdW  Elec       q    Type
REMARK                         _______ _______ _______ _____ _____    ______ ____
ROOT
ATOM      1  C   UNL     1       6.450  -1.743   0.565  0.00  0.00    +0.048 A 
ATOM      2  C   UNL     1       5.795  -2.898   0.972  0.00  0.00    +0.026 A 
ATOM      3  C   UNL     1       4.529  -3.176   0.495  0.00  0.00    +0.030 A 
ATOM      4  C   UNL     1       3.914  -2.307  -0.387  0.00  0.00    +0.109 A 
ATOM      5  C   UNL     1       4.566  -1.159  -0.799  0.00  0.00    +0.030 A 
ATOM      6  C   UNL     1       5.829  -0.872  -0.321  0.00  0.00    +0.026 A 
ENDROOT
BRANCH   4   7
ATOM      7  S   UNL     1       2.298  -2.665  -0.993  0.00  0.00    +0.072 S 
ATOM      8  O   UNL     1       2.082  -4.053  -0.775  0.00  0.00    -0.150 OA
ATOM      9  O   UNL     1       2.207  -2.073  -2.281  0.00  0.00    -0.150 OA
BRANCH   7  10
ATOM     10  N   UNL     1       1.222  -1.861  -0.025  0.00  0.00    -0.216 N 
ATOM     11  H   UNL     1       0.642  -1.182  -0.404  0.00  0.00    +0.174 HD
BRANCH  10  12
ATOM     12  C   UNL     1       1.150  -2.160   1.339  0.00  0.00    +0.048 A 
ATOM     13  C   UNL     1       1.115  -1.134   2.275  0.00  0.00    +0.027 A 
ATOM     14  C   UNL     1       1.044  -1.432   3.622  0.00  0.00    +0.040 A 
ATOM     15  C   UNL     1       1.008  -2.751   4.040  0.00  0.00    +0.124 A 
ATOM     16  C   UNL     1       1.043  -3.776   3.108  0.00  0.00    +0.040 A 
ATOM     17  C   UNL     1       1.114  -3.483   1.761  0.00  0.00    +0.027 A 
ATOM     18  F   UNL     1       0.939  -3.040   5.358  0.00  0.00    -0.205 F 
ENDBRANCH  10  12
ENDBRANCH   7  10
ENDBRANCH   4   7
BRANCH   1  19
ATOM     19  N   UNL     1       7.731  -1.459   1.044  0.00  0.00    -0.216 N 
ATOM     20  H   UNL     1       7.925  -1.549   1.990  0.00  0.00    +0.174 HD
BRANCH  19  21
ATOM     21  S   UNL     1       8.917  -0.969  -0.002  0.00  0.00    +0.072 S 
ATOM     22  O   UNL     1       8.384   0.122  -0.739  0.00  0.00    -0.150 OA
ATOM     23  O   UNL     1      10.112  -0.863   0.760  0.00  0.00    -0.150 OA
BRANCH  21  28
ATOM     24  C   UNL     1       8.715  -3.289  -3.276  0.00  0.00    +0.004 A 
ATOM     25  C   UNL     1       9.566  -4.333  -2.961  0.00  0.00    +0.033 A 
ATOM     26  C   UNL     1      10.218  -4.349  -1.743  0.00  0.00    +0.128 A 
ATOM     27  C   UNL     1      10.024  -3.319  -0.841  0.00  0.00    +0.061 A 
ATOM     28  C   UNL     1       9.169  -2.279  -1.154  0.00  0.00    +0.111 A 
ATOM     29  C   UNL     1       8.517  -2.263  -2.372  0.00  0.00    +0.029 A 
BRANCH  26  30
ATOM     30  N   UNL     1      11.129  -5.465  -1.406  0.00  0.00    +0.056 N 
ATOM     31  O   UNL     1      11.304  -6.370  -2.203  0.00  0.00    -0.126 OA
ATOM     32  O   UNL     1      11.704  -5.480  -0.333  0.00  0.00    -0.126 OA
ENDBRANCH  26  30
ENDBRANCH  21  28
ENDBRANCH  19  21
ENDBRANCH   1  19
TORSDOF 7
