REMARK  Name = ZINC41514111
REMARK  8 active torsions:
REMARK  status: ('A' for Active; 'I' for Inactive)
REMARK    1  A    between atoms: C_1  and  C_2
REMARK    2  A    between atoms: C_4  and  O_32
REMARK    3  A    between atoms: C_5  and  C_22
REMARK    4  A    between atoms: C_11  and  C_12
REMARK    5  A    between atoms: C_22  and  N_23
REMARK    6  A    between atoms: N_26  and  C_29
REMARK    7  A    between atoms: C_29  and  C_30
REMARK    8  A    between atoms: C_30  and  O_31
REMARK                            x       y       z     vdW  Elec       q    Type
REMARK                         _______ _______ _______ _____ _____    ______ ____
ROOT
ATOM      1  C   UNL     1       0.369   1.463  -0.008  0.00  0.00    +0.045 C 
ATOM      2  C   UNL     1       0.060  -0.012  -0.001  0.00  0.00    -0.033 A 
ATOM      3  C   UNL     1      -0.162  -0.670  -1.178  0.00  0.00    +0.050 A 
ATOM      4  C   UNL     1      -0.449  -2.032  -1.175  0.00  0.00    +0.122 A 
ATOM      5  C   UNL     1      -0.513  -2.736   0.017  0.00  0.00    +0.020 A 
ATOM      6  C   UNL     1      -0.289  -2.082   1.223  0.00  0.00    +0.145 A 
ATOM      7  C   UNL     1       0.005  -0.709   1.206  0.00  0.00    +0.071 A 
ATOM      8  C   UNL     1       0.196  -0.308   2.612  0.00  0.00    +0.232 C 
ATOM      9  O   UNL     1       0.462   0.801   3.041  0.00  0.00    -0.283 OA
ATOM     10  C   UNL     1      -0.006  -1.546   3.379  0.00  0.00    +0.176 C 
ATOM     11  C   UNL     1       0.069  -1.674   4.728  0.00  0.00    +0.058 C 
ATOM     12  O   UNL     1      -0.294  -2.531   2.496  0.00  0.00    -0.451 OA
ENDROOT
BRANCH  11  13
ATOM     13  C   UNL     1      -0.018  -3.003   5.345  0.00  0.00    -0.018 A 
ATOM     14  C   UNL     1      -0.004  -4.152   4.544  0.00  0.00    +0.012 A 
ATOM     15  C   UNL     1      -0.085  -5.397   5.126  0.00  0.00    +0.050 A 
ATOM     16  C   UNL     1      -0.181  -5.520   6.507  0.00  0.00    +0.166 A 
ATOM     17  C   UNL     1      -0.196  -4.379   7.312  0.00  0.00    +0.167 A 
ATOM     18  C   UNL     1      -0.109  -3.127   6.737  0.00  0.00    +0.057 A 
ATOM     19  O   UNL     1      -0.297  -4.769   8.617  0.00  0.00    -0.453 OA
ATOM     20  C   UNL     1      -0.755  -6.133   8.575  0.00  0.00    +0.466 C 
ATOM     21  O   UNL     1      -0.272  -6.619   7.309  0.00  0.00    -0.453 OA
ENDBRANCH  11  13
BRANCH   4  22
ATOM     22  O   UNL     1      -0.668  -2.676  -2.349  0.00  0.00    -0.506 OA
ATOM     23  H   UNL     1       0.131  -3.045  -2.751  0.00  0.00    +0.292 HD
ENDBRANCH   4  22
BRANCH   5  24
ATOM     24  C   UNL     1      -0.825  -4.210   0.006  0.00  0.00    -0.035 C 
BRANCH  24  25
ATOM     25  N   UNL     1       0.426  -4.975  -0.094  0.00  0.00    +0.384 N 
ATOM     26  C   UNL     1       1.065  -4.701  -1.388  0.00  0.00    -0.063 C 
ATOM     27  C   UNL     1       2.377  -5.482  -1.485  0.00  0.00    +0.066 C 
ATOM     28  N   UNL     1       2.099  -6.920  -1.350  0.00  0.00    -0.304 NA
ATOM     29  C   UNL     1       1.436  -7.205  -0.070  0.00  0.00    +0.066 C 
ATOM     30  C   UNL     1       0.132  -6.410   0.015  0.00  0.00    -0.063 C 
ATOM     31  H   UNL     1       1.048  -4.701   0.652  0.00  0.00    -0.081 HD
BRANCH  28  32
ATOM     32  C   UNL     1       3.329  -7.709  -1.494  0.00  0.00    +0.112 C 
BRANCH  32  33
ATOM     33  C   UNL     1       2.973  -9.194  -1.599  0.00  0.00    +0.171 C 
BRANCH  33  34
ATOM     34  O   UNL     1       2.233  -9.423  -2.800  0.00  0.00    -0.394 OA
ATOM     35  H   UNL     1       1.973 -10.345  -2.932  0.00  0.00    +0.209 HD
ENDBRANCH  33  34
ENDBRANCH  32  33
ENDBRANCH  28  32
ENDBRANCH  24  25
ENDBRANCH   5  24
TORSDOF 7
