REMARK  Name = ZINC17934764
REMARK  15 active torsions:
REMARK  status: ('A' for Active; 'I' for Inactive)
REMARK    1  A    between atoms: C_1  and  C_2
REMARK    2  A    between atoms: C_2  and  O_3
REMARK    3  A    between atoms: O_3  and  C_4
REMARK    4  A    between atoms: C_4  and  C_6
REMARK    5  A    between atoms: C_7  and  C_31
REMARK    6  A    between atoms: C_8  and  C_30
REMARK    7  A    between atoms: C_10  and  N_11
REMARK    8  A    between atoms: C_12  and  C_14
REMARK    9  A    between atoms: C_14  and  O_15
REMARK   10  A    between atoms: O_15  and  C_16
REMARK   11  A    between atoms: C_16  and  C_18
REMARK   12  A    between atoms: C_22  and  N_23
REMARK   13  A    between atoms: C_24  and  C_29
REMARK   14  A    between atoms: C_27  and  C_28
REMARK   15  A    between atoms: C_31  and  C_33
REMARK                            x       y       z     vdW  Elec       q    Type
REMARK                         _______ _______ _______ _____ _____    ______ ____
ROOT
ATOM      1  N   UNL     1      -3.136  -4.415   2.720  0.00  0.00    -0.253 N 
ATOM      2  C   UNL     1      -4.170  -4.223   3.562  0.00  0.00    +0.257 C 
ATOM      3  O   UNL     1      -5.272  -4.642   3.275  0.00  0.00    -0.272 OA
ATOM      4  H   UNL     1      -2.255  -4.081   2.950  0.00  0.00    +0.158 HD
ENDROOT
BRANCH   1   9
ATOM      5  C   UNL     1      -2.358  -5.352   0.582  0.00  0.00    +0.130 A 
ATOM      6  C   UNL     1      -3.056  -6.095  -0.496  0.00  0.00    +0.074 A 
ATOM      7  C   UNL     1      -4.354  -6.194  -0.091  0.00  0.00    +0.116 A 
ATOM      8  O   UNL     1      -4.493  -5.595   1.097  0.00  0.00    -0.445 OA
ATOM      9  C   UNL     1      -3.330  -5.089   1.530  0.00  0.00    +0.207 A 
ATOM     10  C   UNL     1      -5.458  -6.872  -0.861  0.00  0.00    +0.087 C 
BRANCH   6  11
ATOM     11  C   UNL     1      -2.473  -6.613  -1.734  0.00  0.00    +0.164 C 
ATOM     12  O   UNL     1      -2.367  -5.890  -2.704  0.00  0.00    -0.292 OA
ATOM     13  C   UNL     1      -2.004  -8.043  -1.806  0.00  0.00    +0.092 C 
ENDBRANCH   6  11
BRANCH   5  14
ATOM     14  C   UNL     1      -0.943  -4.981   0.633  0.00  0.00    +0.345 C 
ATOM     15  O   UNL     1      -0.134  -5.739   1.134  0.00  0.00    -0.245 OA
BRANCH  14  16
ATOM     16  O   UNL     1      -0.536  -3.800   0.125  0.00  0.00    -0.461 OA
BRANCH  16  18
ATOM     17  C   UNL     1       1.128  -2.133  -0.414  0.00  0.00    +0.048 C 
ATOM     18  C   UNL     1       0.859  -3.504   0.209  0.00  0.00    +0.229 C 
ENDBRANCH  16  18
ENDBRANCH  14  16
ENDBRANCH   5  14
ENDBRANCH   1   9
BRANCH   2  19
ATOM     19  C   UNL     1      -3.958  -3.489   4.861  0.00  0.00    +0.328 C 
BRANCH  19  20
ATOM     20  O   UNL     1      -5.195  -3.414   5.573  0.00  0.00    -0.452 OA
BRANCH  20  21
ATOM     21  C   UNL     1      -5.178  -2.783   6.765  0.00  0.00    +0.342 C 
ATOM     22  O   UNL     1      -4.140  -2.309   7.187  0.00  0.00    -0.245 OA
BRANCH  21  23
ATOM     23  C   UNL     1      -6.409  -2.668   7.551  0.00  0.00    +0.090 A 
ATOM     24  C   UNL     1      -7.634  -3.318   7.144  0.00  0.00    +0.025 A 
ATOM     25  C   UNL     1      -8.693  -3.133   7.953  0.00  0.00    +0.048 A 
ATOM     26  S   UNL     1      -8.045  -2.098   9.247  0.00  0.00    -0.078 S 
ATOM     27  C   UNL     1      -6.457  -1.935   8.728  0.00  0.00    +0.099 A 
BRANCH  27  28
ATOM     28  N   UNL     1      -5.427  -1.227   9.336  0.00  0.00    -0.311 N 
ATOM     29  C   UNL     1      -4.723  -0.200   8.771  0.00  0.00    +0.021 A 
ATOM     30  C   UNL     1      -3.812   0.228   9.668  0.00  0.00    +0.023 A 
ATOM     31  C   UNL     1      -3.956  -0.559  10.829  0.00  0.00    +0.023 A 
ATOM     32  C   UNL     1      -4.954  -1.437  10.601  0.00  0.00    +0.021 A 
ATOM     33  C   UNL     1      -5.458  -2.473  11.573  0.00  0.00    +0.064 C 
ATOM     34  C   UNL     1      -4.930   0.356   7.386  0.00  0.00    +0.064 C 
ENDBRANCH  27  28
ENDBRANCH  21  23
ENDBRANCH  20  21
ENDBRANCH  19  20
ENDBRANCH   2  19
TORSDOF 10
