REMARK  Name = ZINC12515496
REMARK  4 active torsions:
REMARK  status: ('A' for Active; 'I' for Inactive)
REMARK    1  A    between atoms: C_1  and  C_2
REMARK    2  A    between atoms: C_5  and  C_8
REMARK    3  A    between atoms: C_14  and  C_16
REMARK    4  A    between atoms: C_16  and  C_17
REMARK                            x       y       z     vdW  Elec       q    Type
REMARK                         _______ _______ _______ _____ _____    ______ ____
ROOT
ATOM      1  C   UNL     1       2.017   7.035   4.734  0.00  0.00    +0.250 A 
ATOM      2  N   UNL     1       1.820   5.795   5.111  0.00  0.00    -0.106 NA
ATOM      3  N   UNL     1       1.688   5.049   4.071  0.00  0.00    -0.092 NA
ATOM      4  C   UNL     1       1.796   5.783   2.990  0.00  0.00    +0.314 A 
ATOM      5  O   UNL     1       2.011   7.052   3.384  0.00  0.00    -0.405 OA
ATOM      6  N   UNL     1       1.709   5.334   1.682  0.00  0.00    -0.238 N 
ATOM      7  C   UNL     1       1.495   4.028   1.430  0.00  0.00    +0.225 C 
ATOM      8  O   UNL     1       1.377   3.245   2.349  0.00  0.00    -0.275 OA
ATOM      9  H   UNL     1       1.803   5.960   0.947  0.00  0.00    +0.159 HD
ENDROOT
BRANCH   1  14
ATOM     10  C   UNL     1       2.787  11.566   8.196  0.00  0.00    +0.044 C 
ATOM     11  C   UNL     1       2.585  10.379   7.289  0.00  0.00    -0.050 A 
ATOM     12  C   UNL     1       2.387   9.123   7.833  0.00  0.00    +0.004 A 
ATOM     13  C   UNL     1       2.202   8.032   7.009  0.00  0.00    +0.013 A 
ATOM     14  C   UNL     1       2.215   8.199   5.623  0.00  0.00    +0.039 A 
ATOM     15  C   UNL     1       2.421   9.468   5.081  0.00  0.00    +0.013 A 
ATOM     16  C   UNL     1       2.599  10.551   5.917  0.00  0.00    +0.004 A 
ENDBRANCH   1  14
BRANCH   7  17
ATOM     17  C   UNL     1       1.401   3.539   0.008  0.00  0.00    +0.138 C 
BRANCH  17  18
ATOM     18  C   UNL     1       1.159   2.052   0.002  0.00  0.00    -0.000 A 
ATOM     19  C   UNL     1      -0.017   1.379   0.010  0.00  0.00    +0.013 A 
ATOM     20  C   UNL     1       0.002  -0.004   0.002  0.00  0.00    +0.028 A 
ATOM     21  C   UNL     1       1.198  -0.645  -0.013  0.00  0.00    +0.078 A 
ATOM     22  S   UNL     1       2.348   0.720  -0.017  0.00  0.00    -0.081 S 
ATOM     23 CL   UNL     1       1.524  -2.350  -0.026  0.00  0.00    -0.076 Cl
ENDBRANCH  17  18
ENDBRANCH   7  17
TORSDOF 3
