REMARK  Name = ZINC39667877
REMARK  15 active torsions:
REMARK  status: ('A' for Active; 'I' for Inactive)
REMARK    1  A    between atoms: C_1  and  C_2
REMARK    2  A    between atoms: C_2  and  O_3
REMARK    3  A    between atoms: O_3  and  C_4
REMARK    4  A    between atoms: C_4  and  C_6
REMARK    5  A    between atoms: C_8  and  N_15
REMARK    6  A    between atoms: C_11  and  C_14
REMARK    7  A    between atoms: C_12  and  C_13
REMARK    8  A    between atoms: C_16  and  C_18
REMARK    9  A    between atoms: C_18  and  S_19
REMARK   10  A    between atoms: S_19  and  C_20
REMARK   11  A    between atoms: C_24  and  C_28
REMARK   12  A    between atoms: C_25  and  C_27
REMARK   13  A    between atoms: C_28  and  C_29
REMARK   14  A    between atoms: C_29  and  C_30
REMARK   15  A    between atoms: C_30  and  O_32
REMARK                            x       y       z     vdW  Elec       q    Type
REMARK                         _______ _______ _______ _____ _____    ______ ____
ROOT
ATOM      1  C   UNL     1      -0.123  -6.057   1.655  0.00  0.00    +0.173 C 
ENDROOT
BRANCH   1   3
ATOM      2  N   UNL     1      -1.491  -4.423   0.400  0.00  0.00    -0.301 N 
ATOM      3  C   UNL     1      -1.439  -5.570   1.104  0.00  0.00    +0.224 C 
ATOM      4  O   UNL     1      -2.451  -6.211   1.295  0.00  0.00    -0.275 OA
ATOM      5  H   UNL     1      -0.682  -3.910   0.247  0.00  0.00    +0.150 HD
BRANCH   2   7
ATOM      6  C   UNL     1      -2.803  -2.402  -0.245  0.00  0.00    +0.155 C 
ATOM      7  C   UNL     1      -2.770  -3.949  -0.136  0.00  0.00    +0.153 C 
ATOM      8  S   UNL     1      -4.138  -4.178   1.077  0.00  0.00    -0.106 S 
ATOM      9  C   UNL     1      -4.139  -2.542   1.788  0.00  0.00    -0.016 C 
ATOM     10  C   UNL     1      -3.408  -1.799   0.982  0.00  0.00    -0.047 C 
ATOM     11  C   UNL     1      -3.184  -0.343   1.297  0.00  0.00    +0.041 C 
ATOM     12  C   UNL     1      -4.832  -2.102   3.051  0.00  0.00    +0.051 C 
BRANCH   6  13
ATOM     13  C   UNL     1      -1.397  -1.886  -0.411  0.00  0.00    +0.317 C 
ATOM     14  O   UNL     1      -0.713  -1.673   0.562  0.00  0.00    -0.250 OA
BRANCH  13  15
ATOM     15  O   UNL     1      -0.905  -1.661  -1.639  0.00  0.00    -0.464 OA
BRANCH  15  17
ATOM     16  C   UNL     1       0.818  -0.979  -3.191  0.00  0.00    +0.048 C 
ATOM     17  C   UNL     1       0.435  -1.172  -1.722  0.00  0.00    +0.229 C 
ENDBRANCH  15  17
ENDBRANCH  13  15
ENDBRANCH   6  13
ENDBRANCH   2   7
ENDBRANCH   1   3
BRANCH   1  18
ATOM     18  S   UNL     1      -0.381  -7.615   2.548  0.00  0.00    -0.078 S 
BRANCH  18  19
ATOM     19  C   UNL     1       1.227  -8.048   3.123  0.00  0.00    +0.170 A 
ATOM     20  N   UNL     1       1.396  -9.192   3.841  0.00  0.00    -0.302 N 
ATOM     21  C   UNL     1       2.626  -9.530   4.285  0.00  0.00    +0.256 A 
ATOM     22  O   UNL     1       2.795 -10.552   4.930  0.00  0.00    -0.267 OA
ATOM     23  C   UNL     1       3.707  -8.682   3.989  0.00  0.00    +0.038 A 
ATOM     24  C   UNL     1       3.478  -7.548   3.265  0.00  0.00    +0.049 A 
ATOM     25  N   UNL     1       2.249  -7.261   2.845  0.00  0.00    -0.228 NA
ATOM     26  C   UNL     1       4.621  -6.623   2.935  0.00  0.00    +0.066 C 
ATOM     27  H   UNL     1       0.635  -9.762   4.034  0.00  0.00    +0.171 HD
BRANCH  23  28
ATOM     28  C   UNL     1       5.097  -9.020   4.464  0.00  0.00    +0.053 C 
BRANCH  28  29
ATOM     29  C   UNL     1       5.285  -8.510   5.894  0.00  0.00    +0.125 C 
BRANCH  29  30
ATOM     30  C   UNL     1       6.675  -8.848   6.370  0.00  0.00    +0.305 C 
ATOM     31  O   UNL     1       7.437  -9.436   5.639  0.00  0.00    -0.251 OA
BRANCH  30  32
ATOM     32  O   UNL     1       7.066  -8.495   7.604  0.00  0.00    -0.481 OA
ATOM     33  H   UNL     1       7.973  -8.755   7.819  0.00  0.00    +0.295 HD
ENDBRANCH  30  32
ENDBRANCH  29  30
ENDBRANCH  28  29
ENDBRANCH  23  28
ENDBRANCH  18  19
ENDBRANCH   1  18
TORSDOF 11
