REMARK  Name = ZINC45951318
REMARK  6 active torsions:
REMARK  status: ('A' for Active; 'I' for Inactive)
REMARK    1  A    between atoms: C_1  and  C_2
REMARK    2  A    between atoms: C_5  and  N_11
REMARK    3  A    between atoms: C_7  and  N_8
REMARK    4  A    between atoms: N_14  and  C_15
REMARK    5  A    between atoms: C_15  and  C_16
REMARK    6  A    between atoms: C_26  and  C_29
REMARK                            x       y       z     vdW  Elec       q    Type
REMARK                         _______ _______ _______ _____ _____    ______ ____
ROOT
ATOM      1  N   UNL     1       0.670  -3.975  -0.279  0.00  0.00    -0.269 N 
ATOM      2  C   UNL     1       0.626  -4.602  -1.471  0.00  0.00    +0.304 C 
ATOM      3  O   UNL     1       0.270  -3.996  -2.463  0.00  0.00    -0.252 OA
ATOM      4  N   UNL     1       0.977  -5.900  -1.564  0.00  0.00    -0.295 N 
ATOM      5  H   UNL     1       0.889  -4.474   0.524  0.00  0.00    +0.156 HD
ATOM      6  H   UNL     1       1.261  -6.383  -0.772  0.00  0.00    +0.151 HD
ENDROOT
BRANCH   1  11
ATOM      7  C   UNL     1      -0.432   1.581   0.049  0.00  0.00    +0.046 C 
ATOM      8  C   UNL     1      -0.139   0.105  -0.038  0.00  0.00    -0.020 A 
ATOM      9  C   UNL     1      -0.834  -0.685  -0.936  0.00  0.00    +0.007 A 
ATOM     10  C   UNL     1      -0.569  -2.037  -1.018  0.00  0.00    +0.024 A 
ATOM     11  C   UNL     1       0.398  -2.604  -0.198  0.00  0.00    +0.037 A 
ATOM     12  C   UNL     1       1.095  -1.809   0.702  0.00  0.00    +0.056 A 
ATOM     13  C   UNL     1       0.828  -0.456   0.776  0.00  0.00    +0.131 A 
BRANCH  13  14
ATOM     14  N   UNL     1       1.574   0.394   1.731  0.00  0.00    +0.057 N 
ATOM     15  O   UNL     1       1.891   1.518   1.419  0.00  0.00    -0.126 OA
ATOM     16  O   UNL     1       1.866  -0.036   2.822  0.00  0.00    -0.126 OA
ENDBRANCH  13  14
ENDBRANCH   1  11
BRANCH   4  17
ATOM     17  C   UNL     1       0.930  -6.581  -2.860  0.00  0.00    +0.142 C 
BRANCH  17  18
ATOM     18  C   UNL     1       1.367  -8.013  -2.691  0.00  0.00    -0.014 A 
ATOM     19  C   UNL     1       2.707  -8.357  -2.817  0.00  0.00    +0.010 A 
ATOM     20  C   UNL     1       3.067  -9.682  -2.655  0.00  0.00    +0.042 A 
ATOM     21  C   UNL     1       2.080 -10.621  -2.372  0.00  0.00    +0.099 A 
ATOM     22  N   UNL     1       0.813 -10.254  -2.259  0.00  0.00    -0.349 N 
ATOM     23  C   UNL     1       0.442  -8.995  -2.403  0.00  0.00    +0.089 A 
ATOM     24  N   UNL     1       2.427 -11.957  -2.207  0.00  0.00    -0.312 N 
ATOM     25  C   UNL     1       3.838 -12.374  -2.170  0.00  0.00    +0.134 C 
ATOM     26  C   UNL     1       4.026 -13.531  -3.157  0.00  0.00    +0.179 C 
ATOM     27  O   UNL     1       3.057 -14.546  -2.883  0.00  0.00    -0.374 OA
ATOM     28  C   UNL     1       1.702 -14.123  -3.056  0.00  0.00    +0.132 C 
ATOM     29  C   UNL     1       1.395 -12.995  -2.058  0.00  0.00    +0.137 C 
ATOM     30  C   UNL     1       0.762 -15.302  -2.799  0.00  0.00    +0.039 C 
ATOM     31  H   UNL     1       0.141 -10.925  -2.062  0.00  0.00    +0.167 HD
ENDBRANCH  17  18
ENDBRANCH   4  17
TORSDOF 4
