REMARK  Name = ZINC39696281
REMARK  10 active torsions:
REMARK  status: ('A' for Active; 'I' for Inactive)
REMARK    1  A    between atoms: C_1  and  C_2
REMARK    2  A    between atoms: C_2  and  C_3
REMARK    3  A    between atoms: C_6  and  C_9
REMARK    4  A    between atoms: C_9  and  C_11
REMARK    5  A    between atoms: C_9  and  N_12
REMARK    6  A    between atoms: C_13  and  C_15
REMARK    7  A    between atoms: C_26  and  C_28
REMARK    8  A    between atoms: C_32  and  O_34
REMARK    9  A    between atoms: O_34  and  C_35
REMARK   10  A    between atoms: C_35  and  C_36
REMARK                            x       y       z     vdW  Elec       q    Type
REMARK                         _______ _______ _______ _____ _____    ______ ____
ROOT
ATOM      1  C   UNL     1       2.011  -0.123   8.601  0.00  0.00    +0.100 C 
ATOM      2  C   UNL     1       0.864  -1.119   8.884  0.00  0.00    +0.121 C 
ATOM      3  N   UNL     1       1.424  -2.061   9.881  0.00  0.00    -0.296 N 
ATOM      4  C   UNL     1       2.227  -1.206  10.787  0.00  0.00    +0.115 C 
ATOM      5  C   UNL     1       2.901  -0.180   9.854  0.00  0.00    -0.004 C 
ATOM      6  C   UNL     1       2.957   1.189  10.526  0.00  0.00    -0.010 C 
ATOM      7  C   UNL     1       3.894   1.122  11.735  0.00  0.00    -0.082 C 
ATOM      8  N   UNL     1       5.234   0.716  11.295  0.00  0.00    +0.379 N 
ATOM      9  C   UNL     1       5.188  -0.640  10.735  0.00  0.00    -0.082 C 
ATOM     10  C   UNL     1       4.305  -0.647   9.483  0.00  0.00    -0.010 C 
ATOM     11  C   UNL     1       1.243  -3.395   9.949  0.00  0.00    +0.247 C 
ATOM     12  O   UNL     1       0.656  -3.975   9.057  0.00  0.00    -0.270 OA
ATOM     13  H   UNL     1       5.565   1.358  10.591  0.00  0.00    -0.086 HD
ATOM     14  H   UNL     1       5.864   0.731  12.083  0.00  0.00    -0.086 HD
ENDROOT
BRANCH  11  15
ATOM     15  C   UNL     1       1.759  -4.153  11.110  0.00  0.00    +0.040 A 
ATOM     16  C   UNL     1       2.032  -3.495  12.310  0.00  0.00    +0.013 A 
ATOM     17  C   UNL     1       2.514  -4.205  13.391  0.00  0.00    +0.004 A 
ATOM     18  C   UNL     1       2.728  -5.567  13.289  0.00  0.00    +0.046 A 
ATOM     19  C   UNL     1       2.459  -6.230  12.099  0.00  0.00    +0.121 A 
ATOM     20  C   UNL     1       1.970  -5.528  11.010  0.00  0.00    +0.058 A 
BRANCH  19  21
ATOM     21  O   UNL     1       2.671  -7.569  12.005  0.00  0.00    -0.492 OA
BRANCH  21  22
ATOM     22  C   UNL     1       3.172  -8.230  13.168  0.00  0.00    +0.225 C 
ATOM     23  C   UNL     1       3.346  -9.721  12.873  0.00  0.00    +0.048 C 
ENDBRANCH  21  22
ENDBRANCH  19  21
ENDBRANCH  11  15
BRANCH   1  25
ATOM     24  N   UNL     1       3.493   0.358   6.680  0.00  0.00    -0.308 N 
ATOM     25  C   UNL     1       2.789  -0.551   7.384  0.00  0.00    +0.219 C 
ATOM     26  O   UNL     1       2.783  -1.713   7.038  0.00  0.00    -0.275 OA
ATOM     27  H   UNL     1       3.498   1.288   6.957  0.00  0.00    +0.149 HD
BRANCH  24  28
ATOM     28  C   UNL     1       4.250  -0.058   5.497  0.00  0.00    +0.100 C 
ATOM     29  C   UNL     1       3.325  -0.070   4.278  0.00  0.00    +0.033 C 
BRANCH  28  33
ATOM     30  C   UNL     1       7.457   2.682   4.821  0.00  0.00    -0.048 A 
ATOM     31  C   UNL     1       7.657   1.326   4.641  0.00  0.00    +0.004 A 
ATOM     32  C   UNL     1       6.619   0.439   4.860  0.00  0.00    +0.006 A 
ATOM     33  C   UNL     1       5.381   0.909   5.259  0.00  0.00    -0.027 A 
ATOM     34  C   UNL     1       5.182   2.265   5.440  0.00  0.00    +0.006 A 
ATOM     35  C   UNL     1       6.221   3.151   5.225  0.00  0.00    +0.004 A 
BRANCH  30  37
ATOM     36  C   UNL     1       9.373   3.845   5.881  0.00  0.00    +0.009 C 
ATOM     37  C   UNL     1       8.588   3.648   4.582  0.00  0.00    +0.032 C 
ENDBRANCH  30  37
ENDBRANCH  28  33
ENDBRANCH  24  28
ENDBRANCH   1  25
TORSDOF 7
