REMARK  Name = ZINC04851451
REMARK  9 active torsions:
REMARK  status: ('A' for Active; 'I' for Inactive)
REMARK    1  A    between atoms: C_1  and  C_2
REMARK    2  A    between atoms: C_5  and  N_8
REMARK    3  A    between atoms: C_9  and  C_11
REMARK    4  A    between atoms: C_11  and  S_12
REMARK    5  A    between atoms: S_12  and  C_13
REMARK    6  A    between atoms: N_21  and  C_22
REMARK    7  A    between atoms: C_22  and  C_23
REMARK    8  A    between atoms: C_22  and  C_24
REMARK    9  A    between atoms: C_22  and  C_25
REMARK                            x       y       z     vdW  Elec       q    Type
REMARK                         _______ _______ _______ _____ _____    ______ ____
ROOT
ATOM      1  C   UNL     1       3.989  -6.564  -0.530  0.00  0.00    +0.160 A 
ATOM      2  N   UNL     1       2.902  -7.314  -0.531  0.00  0.00    -0.133 NA
ATOM      3  N   UNL     1       3.014  -8.680  -0.647  0.00  0.00    -0.125 NA
ATOM      4  C   UNL     1       4.205  -9.235  -0.756  0.00  0.00    +0.190 A 
ATOM      5  S   UNL     1       5.268  -7.800  -0.706  0.00  0.00    -0.024 S 
ATOM      6  N   UNL     1       4.543 -10.580  -0.881  0.00  0.00    -0.247 N 
ATOM      7  C   UNL     1       3.577 -11.519  -0.904  0.00  0.00    +0.306 C 
ATOM      8  O   UNL     1       2.409 -11.192  -0.815  0.00  0.00    -0.252 OA
ATOM      9  N   UNL     1       3.904 -12.821  -1.025  0.00  0.00    -0.294 N 
ATOM     10  H   UNL     1       5.475 -10.841  -0.952  0.00  0.00    +0.158 HD
ATOM     11  H   UNL     1       4.836 -13.082  -1.096  0.00  0.00    +0.151 HD
ENDROOT
BRANCH   9  12
ATOM     12  C   UNL     1       2.853 -13.841  -1.050  0.00  0.00    +0.028 C 
ATOM     13  C   UNL     1       1.919 -13.583  -2.234  0.00  0.00    +0.031 C 
ATOM     14  C   UNL     1       3.490 -15.225  -1.194  0.00  0.00    +0.031 C 
ATOM     15  C   UNL     1       2.054 -13.781   0.253  0.00  0.00    +0.031 C 
ENDBRANCH   9  12
BRANCH   1  16
ATOM     16  S   UNL     1       4.139  -4.814  -0.398  0.00  0.00    -0.088 S 
BRANCH  16  17
ATOM     17  C   UNL     1       2.425  -4.236  -0.258  0.00  0.00    +0.172 C 
BRANCH  17  19
ATOM     18  N   UNL     1       1.237  -2.079  -0.020  0.00  0.00    -0.285 N 
ATOM     19  C   UNL     1       2.410  -2.734  -0.137  0.00  0.00    +0.227 C 
ATOM     20  O   UNL     1       3.452  -2.114  -0.144  0.00  0.00    -0.275 OA
ATOM     21  H   UNL     1       0.409  -2.578   0.062  0.00  0.00    +0.155 HD
BRANCH  18  26
ATOM     22  C   UNL     1       1.143   3.593  -0.015  0.00  0.00    +0.044 C 
ATOM     23  C   UNL     1       1.168   2.086  -0.017  0.00  0.00    -0.050 A 
ATOM     24  C   UNL     1       2.111   1.412  -0.771  0.00  0.00    +0.005 A 
ATOM     25  C   UNL     1       2.137   0.031  -0.774  0.00  0.00    +0.023 A 
ATOM     26  C   UNL     1       1.214  -0.680  -0.019  0.00  0.00    +0.033 A 
ATOM     27  C   UNL     1       0.268  -0.001   0.737  0.00  0.00    +0.023 A 
ATOM     28  C   UNL     1       0.248   1.380   0.736  0.00  0.00    +0.005 A 
ENDBRANCH  18  26
ENDBRANCH  17  19
ENDBRANCH  16  17
ENDBRANCH   1  16
TORSDOF 5
