REMARK  Name = ZINC47729476
REMARK  7 active torsions:
REMARK  status: ('A' for Active; 'I' for Inactive)
REMARK    1  A    between atoms: C_1  and  C_2
REMARK    2  A    between atoms: C_2  and  C_3
REMARK    3  A    between atoms: C_2  and  C_4
REMARK    4  A    between atoms: C_4  and  N_5
REMARK    5  A    between atoms: C_6  and  C_8
REMARK    6  A    between atoms: C_11  and  N_14
REMARK    7  A    between atoms: N_20  and  C_23
REMARK                            x       y       z     vdW  Elec       q    Type
REMARK                         _______ _______ _______ _____ _____    ______ ____
ROOT
ATOM      1  N   UNL     1      -2.431  -8.300  -0.601  0.00  0.00    -0.269 N 
ATOM      2  C   UNL     1      -3.583  -8.996  -0.537  0.00  0.00    +0.307 C 
ATOM      3  O   UNL     1      -4.645  -8.410  -0.465  0.00  0.00    -0.252 OA
ATOM      4  N   UNL     1      -3.557 -10.344  -0.553  0.00  0.00    -0.282 N 
ATOM      5  C   UNL     1      -2.282 -11.069  -0.462  0.00  0.00    +0.128 C 
ATOM      6  C   UNL     1      -2.358 -12.047   0.717  0.00  0.00    +0.124 C 
ATOM      7  N   UNL     1      -3.605 -12.818   0.607  0.00  0.00    -0.327 N 
ATOM      8  C   UNL     1      -4.880 -12.093   0.516  0.00  0.00    +0.124 C 
ATOM      9  C   UNL     1      -4.804 -11.115  -0.657  0.00  0.00    +0.128 C 
ATOM     10  H   UNL     1      -1.596  -8.758  -0.785  0.00  0.00    +0.156 HD
ENDROOT
BRANCH   7  11
ATOM     11  C   UNL     1      -3.578 -14.216   0.590  0.00  0.00    +0.030 A 
ATOM     12  C   UNL     1      -4.764 -14.935   0.663  0.00  0.00    +0.026 A 
ATOM     13  C   UNL     1      -4.735 -16.316   0.646  0.00  0.00    +0.040 A 
ATOM     14  C   UNL     1      -3.525 -16.983   0.555  0.00  0.00    +0.124 A 
ATOM     15  C   UNL     1      -2.342 -16.268   0.482  0.00  0.00    +0.040 A 
ATOM     16  C   UNL     1      -2.366 -14.887   0.494  0.00  0.00    +0.026 A 
ATOM     17  F   UNL     1      -3.500 -18.334   0.539  0.00  0.00    -0.205 F 
ENDBRANCH   7  11
BRANCH   1  21
ATOM     18  C   UNL     1      -2.456  -4.177  -0.009  0.00  0.00    +0.037 A 
ATOM     19  C   UNL     1      -1.284  -4.907   0.203  0.00  0.00    +0.015 A 
ATOM     20  C   UNL     1      -1.279  -6.270   0.006  0.00  0.00    +0.024 A 
ATOM     21  C   UNL     1      -2.439  -6.920  -0.403  0.00  0.00    +0.035 A 
ATOM     22  C   UNL     1      -3.608  -6.195  -0.615  0.00  0.00    +0.024 A 
ATOM     23  C   UNL     1      -3.621  -4.833  -0.415  0.00  0.00    +0.015 A 
BRANCH  18  25
ATOM     24  N   UNL     1      -1.340  -2.084   0.592  0.00  0.00    -0.311 N 
ATOM     25  C   UNL     1      -2.465  -2.716   0.201  0.00  0.00    +0.244 C 
ATOM     26  O   UNL     1      -3.486  -2.082   0.021  0.00  0.00    -0.270 OA
ATOM     27  H   UNL     1      -0.525  -2.590   0.736  0.00  0.00    +0.149 HD
BRANCH  24  28
ATOM     28  C   UNL     1      -1.349  -0.634   0.801  0.00  0.00    +0.107 C 
BRANCH  28  30
ATOM     29  C   UNL     1       0.068   1.353   1.336  0.00  0.00    +0.009 C 
ATOM     30  C   UNL     1       0.043  -0.174   1.238  0.00  0.00    -0.000 C 
ATOM     31  C   UNL     1       0.374  -0.777   2.605  0.00  0.00    +0.009 C 
ENDBRANCH  28  30
ENDBRANCH  24  28
ENDBRANCH  18  25
ENDBRANCH   1  21
TORSDOF 5
