REMARK  Name = ZINC12371884
REMARK  8 active torsions:
REMARK  status: ('A' for Active; 'I' for Inactive)
REMARK    1  A    between atoms: C_1  and  S_2
REMARK    2  A    between atoms: S_2  and  C_3
REMARK    3  A    between atoms: C_6  and  C_9
REMARK    4  A    between atoms: C_17  and  N_31
REMARK    5  A    between atoms: C_18  and  C_29
REMARK    6  A    between atoms: C_19  and  C_21
REMARK    7  A    between atoms: C_24  and  S_27
REMARK    8  A    between atoms: S_27  and  C_28
REMARK                            x       y       z     vdW  Elec       q    Type
REMARK                         _______ _______ _______ _____ _____    ______ ____
ROOT
ATOM      1  C   UNL     1      -6.377  -0.663   1.044  0.00  0.00    +0.016 C 
ATOM      2  C   UNL     1      -6.731  -1.340  -0.064  0.00  0.00    +0.009 C 
ATOM      3  C   UNL     1      -5.730  -1.627  -1.163  0.00  0.00    +0.120 C 
ATOM      4  N   UNL     1      -6.428  -1.419  -2.445  0.00  0.00    -0.308 NA
ATOM      5  C   UNL     1      -7.524  -2.377  -2.599  0.00  0.00    +0.117 C 
ATOM      6  C   UNL     1      -8.485  -2.312  -1.440  0.00  0.00    -0.001 C 
ATOM      7  C   UNL     1      -8.111  -1.836  -0.250  0.00  0.00    +0.136 C 
ATOM      8  O   UNL     1      -8.968  -1.775   0.797  0.00  0.00    -0.441 OA
ATOM      9  C   UNL     1     -10.295  -1.801   0.584  0.00  0.00    +0.199 C 
ATOM     10  C   UNL     1     -10.803  -2.287  -0.576  0.00  0.00    +0.098 C 
ATOM     11  C   UNL     1      -9.895  -2.809  -1.653  0.00  0.00    +0.095 C 
ATOM     12  H   UNL     1      -6.840  -0.400  -2.477  0.00  0.00    +0.123 HD
ENDROOT
BRANCH   1  16
ATOM     13  C   UNL     1      -2.299   0.286   1.737  0.00  0.00    +0.008 A 
ATOM     14  C   UNL     1      -3.297   1.147   2.182  0.00  0.00    +0.015 A 
ATOM     15  C   UNL     1      -4.621   0.846   1.954  0.00  0.00    +0.009 A 
ATOM     16  C   UNL     1      -4.963  -0.334   1.284  0.00  0.00    -0.025 A 
ATOM     17  C   UNL     1      -3.956  -1.199   0.843  0.00  0.00    +0.009 A 
ATOM     18  C   UNL     1      -2.635  -0.888   1.069  0.00  0.00    +0.015 A 
BRANCH  13  20
ATOM     19  C   UNL     1      -0.668   2.265   2.905  0.00  0.00    +0.090 C 
ATOM     20  S   UNL     1      -0.606   0.680   2.026  0.00  0.00    -0.129 S 
ENDBRANCH  13  20
ENDBRANCH   1  16
BRANCH  11  21
ATOM     21  C   UNL     1      -9.903  -4.315  -1.618  0.00  0.00    -0.035 A 
ATOM     22  C   UNL     1      -9.472  -4.982  -0.485  0.00  0.00    +0.005 A 
ATOM     23  C   UNL     1      -9.482  -6.362  -0.449  0.00  0.00    +0.015 A 
ATOM     24  C   UNL     1      -9.916  -7.082  -1.556  0.00  0.00    +0.008 A 
ATOM     25  C   UNL     1     -10.343  -6.409  -2.694  0.00  0.00    +0.015 A 
ATOM     26  C   UNL     1     -10.335  -5.028  -2.722  0.00  0.00    +0.005 A 
BRANCH  24  27
ATOM     27  S   UNL     1      -9.924  -8.843  -1.516  0.00  0.00    -0.129 S 
ATOM     28  C   UNL     1      -9.296  -9.248   0.137  0.00  0.00    +0.090 C 
ENDBRANCH  24  27
ENDBRANCH  11  21
BRANCH   9  29
ATOM     29  N   UNL     1     -11.146  -1.331   1.553  0.00  0.00    -0.328 N 
ATOM     30  H   UNL     1     -12.233  -1.349   1.386  0.00  0.00    +0.145 HD
ATOM     31  H   UNL     1     -10.741  -0.936   2.496  0.00  0.00    +0.145 HD
ENDBRANCH   9  29
BRANCH  10  32
ATOM     32  C   UNL     1     -12.221  -2.301  -0.776  0.00  0.00    +0.101 C 
ATOM     33  N   UNL     1     -13.346  -2.313  -0.935  0.00  0.00    -0.191 NA
ENDBRANCH  10  32
TORSDOF 6
