REMARK  Name = ZINC14825969
REMARK  9 active torsions:
REMARK  status: ('A' for Active; 'I' for Inactive)
REMARK    1  A    between atoms: C_4  and  C_7
REMARK    2  A    between atoms: C_7  and  C_8
REMARK    3  A    between atoms: C_7  and  C_14
REMARK    4  A    between atoms: C_7  and  O_20
REMARK    5  A    between atoms: O_20  and  C_21
REMARK    6  A    between atoms: C_21  and  C_22
REMARK    7  A    between atoms: C_24  and  O_41
REMARK    8  A    between atoms: C_26  and  O_40
REMARK    9  A    between atoms: C_28  and  N_31
REMARK                            x       y       z     vdW  Elec       q    Type
REMARK                         _______ _______ _______ _____ _____    ______ ____
ROOT
ATOM      1  O   UNL     1       4.657   4.490  -2.858  0.00  0.00    -0.357 OA
ENDROOT
BRANCH   1   2
ATOM      2  C   UNL     1       4.608   4.283  -4.271  0.00  0.00    +0.144 C 
BRANCH   2   6
ATOM      3  C   UNL     1       5.721   0.255  -5.159  0.00  0.00    +0.000 A 
ATOM      4  C   UNL     1       6.694   1.194  -4.872  0.00  0.00    +0.000 A 
ATOM      5  C   UNL     1       6.334   2.497  -4.585  0.00  0.00    +0.007 A 
ATOM      6  C   UNL     1       5.000   2.862  -4.585  0.00  0.00    -0.007 A 
ATOM      7  C   UNL     1       4.027   1.922  -4.867  0.00  0.00    +0.007 A 
ATOM      8  C   UNL     1       4.387   0.620  -5.159  0.00  0.00    +0.000 A 
ENDBRANCH   2   6
BRANCH   2   9
ATOM      9  C   UNL     1       3.208   4.538  -4.768  0.00  0.00    -0.007 A 
ATOM     10  C   UNL     1       2.830   4.102  -6.024  0.00  0.00    +0.007 A 
ATOM     11  C   UNL     1       1.544   4.333  -6.477  0.00  0.00    +0.000 A 
ATOM     12  C   UNL     1       0.640   5.008  -5.679  0.00  0.00    +0.000 A 
ATOM     13  C   UNL     1       1.020   5.448  -4.425  0.00  0.00    +0.000 A 
ATOM     14  C   UNL     1       2.304   5.214  -3.969  0.00  0.00    +0.007 A 
ENDBRANCH   2   9
BRANCH   2  15
ATOM     15  C   UNL     1       5.563   5.229  -4.951  0.00  0.00    -0.007 A 
ATOM     16  C   UNL     1       6.171   4.864  -6.138  0.00  0.00    +0.007 A 
ATOM     17  C   UNL     1       7.043   5.734  -6.764  0.00  0.00    +0.000 A 
ATOM     18  C   UNL     1       7.315   6.966  -6.199  0.00  0.00    +0.000 A 
ATOM     19  C   UNL     1       6.711   7.330  -5.010  0.00  0.00    +0.000 A 
ATOM     20  C   UNL     1       5.835   6.461  -4.386  0.00  0.00    +0.007 A 
ENDBRANCH   2  15
ENDBRANCH   1   2
BRANCH   1  21
ATOM     21  C   UNL     1       3.784   3.637  -2.115  0.00  0.00    +0.196 C 
BRANCH  21  22
ATOM     22  C   UNL     1       3.920   3.945  -0.622  0.00  0.00    +0.178 C 
ATOM     23  C   UNL     1       3.022   2.994   0.209  0.00  0.00    +0.178 C 
ATOM     24  C   UNL     1       2.802   3.841   1.492  0.00  0.00    +0.195 C 
ATOM     25  C   UNL     1       2.769   5.280   0.932  0.00  0.00    +0.255 C 
ATOM     26  O   UNL     1       3.430   5.265  -0.339  0.00  0.00    -0.346 OA
BRANCH  25  27
ATOM     27  N   UNL     1       3.467   6.186   1.847  0.00  0.00    -0.271 N 
ATOM     28  C   UNL     1       4.557   6.886   1.407  0.00  0.00    +0.098 A 
ATOM     29  C   UNL     1       5.200   7.722   2.250  0.00  0.00    +0.088 A 
ATOM     30  C   UNL     1       4.731   7.855   3.579  0.00  0.00    +0.254 A 
ATOM     31  O   UNL     1       5.295   8.601   4.359  0.00  0.00    -0.268 OA
ATOM     32  N   UNL     1       3.654   7.146   3.974  0.00  0.00    -0.275 N 
ATOM     33  H   UNL     1       3.318   7.232   4.913  0.00  0.00    +0.173 HD
ATOM     34  C   UNL     1       3.028   6.325   3.111  0.00  0.00    +0.331 A 
ATOM     35  O   UNL     1       2.055   5.696   3.480  0.00  0.00    -0.246 OA
ENDBRANCH  25  27
BRANCH  24  36
ATOM     36  O   UNL     1       1.560   3.509   2.114  0.00  0.00    -0.385 OA
ATOM     37  H   UNL     1       1.531   2.615   2.482  0.00  0.00    +0.210 HD
ENDBRANCH  24  36
BRANCH  23  38
ATOM     38  O   UNL     1       3.703   1.774   0.508  0.00  0.00    -0.386 OA
ATOM     39  H   UNL     1       3.223   1.194   1.115  0.00  0.00    +0.210 HD
ENDBRANCH  23  38
ENDBRANCH  21  22
ENDBRANCH   1  21
TORSDOF 9
