REMARK  Name = ZINC59041446
REMARK  10 active torsions:
REMARK  status: ('A' for Active; 'I' for Inactive)
REMARK    1  A    between atoms: C_1  and  C_2
REMARK    2  A    between atoms: C_2  and  O_3
REMARK    3  A    between atoms: O_3  and  C_4
REMARK    4  A    between atoms: C_4  and  C_6
REMARK    5  A    between atoms: C_10  and  N_15
REMARK    6  A    between atoms: N_18  and  C_19
REMARK    7  A    between atoms: C_19  and  C_21
REMARK    8  A    between atoms: C_19  and  C_22
REMARK    9  A    between atoms: C_25  and  S_28
REMARK   10  A    between atoms: S_28  and  N_31
REMARK                            x       y       z     vdW  Elec       q    Type
REMARK                         _______ _______ _______ _____ _____    ______ ____
ROOT
ATOM      1  N   UNL     1      -7.033  -6.844   0.043  0.00  0.00    -0.269 N 
ATOM      2  C   UNL     1      -8.364  -7.022   0.154  0.00  0.00    +0.304 C 
ATOM      3  O   UNL     1      -9.108  -6.060   0.161  0.00  0.00    -0.252 OA
ATOM      4  N   UNL     1      -8.871  -8.267   0.258  0.00  0.00    -0.293 N 
ATOM      5  H   UNL     1      -6.446  -7.612  -0.040  0.00  0.00    +0.156 HD
ATOM      6  H   UNL     1      -8.278  -9.034   0.253  0.00  0.00    +0.151 HD
ENDROOT
BRANCH   1  11
ATOM      7  C   UNL     1      -3.298  -2.226  -1.319  0.00  0.00    +0.097 A 
ATOM      8  C   UNL     1      -3.693  -3.523  -1.430  0.00  0.00    +0.031 A 
ATOM      9  C   UNL     1      -4.820  -3.977  -0.722  0.00  0.00    -0.008 A 
ATOM     10  C   UNL     1      -5.382  -5.280  -0.709  0.00  0.00    +0.032 A 
ATOM     11  C   UNL     1      -6.497  -5.549   0.048  0.00  0.00    +0.035 A 
ATOM     12  C   UNL     1      -7.105  -4.560   0.820  0.00  0.00    +0.024 A 
ATOM     13  C   UNL     1      -6.586  -3.293   0.828  0.00  0.00    +0.017 A 
ATOM     14  C   UNL     1      -5.468  -3.004   0.075  0.00  0.00    +0.020 A 
ATOM     15  S   UNL     1      -4.496  -1.542  -0.187  0.00  0.00    -0.082 S 
BRANCH   7  16
ATOM     16  C   UNL     1      -2.163  -1.556  -1.965  0.00  0.00    +0.346 C 
ATOM     17  O   UNL     1      -1.438  -2.179  -2.717  0.00  0.00    -0.244 OA
BRANCH  16  18
ATOM     18  O   UNL     1      -1.925  -0.251  -1.725  0.00  0.00    -0.461 OA
BRANCH  18  20
ATOM     19  C   UNL     1      -0.693   1.811  -1.996  0.00  0.00    +0.048 C 
ATOM     20  C   UNL     1      -0.803   0.336  -2.388  0.00  0.00    +0.229 C 
ENDBRANCH  18  20
ENDBRANCH  16  18
ENDBRANCH   7  16
ENDBRANCH   1  11
BRANCH   4  21
ATOM     21  C   UNL     1     -10.319  -8.460   0.379  0.00  0.00    +0.102 C 
ATOM     22  C   UNL     1     -10.949  -8.478  -1.015  0.00  0.00    +0.033 C 
BRANCH  21  23
ATOM     23  C   UNL     1     -10.594  -9.770   1.071  0.00  0.00    -0.027 A 
ATOM     24  C   UNL     1      -9.824 -10.881   0.781  0.00  0.00    +0.007 A 
ATOM     25  C   UNL     1     -10.077 -12.082   1.416  0.00  0.00    +0.029 A 
ATOM     26  C   UNL     1     -11.099 -12.173   2.342  0.00  0.00    +0.105 A 
ATOM     27  C   UNL     1     -11.868 -11.062   2.633  0.00  0.00    +0.029 A 
ATOM     28  C   UNL     1     -11.613  -9.860   2.001  0.00  0.00    +0.007 A 
BRANCH  26  29
ATOM     29  S   UNL     1     -11.422 -13.705   3.151  0.00  0.00    +0.056 S 
ATOM     30  O   UNL     1     -12.779 -13.665   3.569  0.00  0.00    -0.153 OA
ATOM     31  O   UNL     1     -10.916 -14.726   2.303  0.00  0.00    -0.153 OA
BRANCH  29  32
ATOM     32  N   UNL     1     -10.503 -13.735   4.528  0.00  0.00    -0.204 NA
ATOM     33  H   UNL     1      -9.928 -12.983   4.744  0.00  0.00    +0.144 HD
ATOM     34  H   UNL     1     -10.539 -14.503   5.119  0.00  0.00    +0.144 HD
ENDBRANCH  29  32
ENDBRANCH  26  29
ENDBRANCH  21  23
ENDBRANCH   4  21
TORSDOF 8
