REMARK  Name = ZINC18970050
REMARK  11 active torsions:
REMARK  status: ('A' for Active; 'I' for Inactive)
REMARK    1  A    between atoms: C_1  and  C_2
REMARK    2  A    between atoms: N_11  and  C_15
REMARK    3  A    between atoms: C_15  and  C_16
REMARK    4  A    between atoms: C_16  and  O_18
REMARK    5  A    between atoms: O_18  and  C_19
REMARK    6  A    between atoms: C_19  and  C_20
REMARK    7  A    between atoms: N_22  and  C_23
REMARK    8  A    between atoms: C_23  and  C_24
REMARK    9  A    between atoms: C_24  and  C_25
REMARK   10  A    between atoms: C_28  and  O_31
REMARK   11  A    between atoms: O_31  and  C_32
REMARK                            x       y       z     vdW  Elec       q    Type
REMARK                         _______ _______ _______ _____ _____    ______ ____
ROOT
ATOM      1  O   UNL     1       4.135   0.789  -1.701  0.00  0.00    -0.454 OA
ENDROOT
BRANCH   1   2
ATOM      2  C   UNL     1       2.907   1.266  -1.441  0.00  0.00    +0.326 C 
ATOM      3  O   UNL     1       2.166   1.555  -2.350  0.00  0.00    -0.249 OA
BRANCH   2   4
ATOM      4  C   UNL     1       2.453   1.440  -0.014  0.00  0.00    +0.238 C 
BRANCH   4  14
ATOM      5  C   UNL     1      -0.712   3.293   2.520  0.00  0.00    +0.010 C 
ATOM      6  C   UNL     1      -1.213   4.053   1.290  0.00  0.00    +0.018 C 
ATOM      7  C   UNL     1      -2.743   4.086   1.300  0.00  0.00    +0.006 C 
ATOM      8  C   UNL     1      -3.244   4.828   0.059  0.00  0.00    +0.000 C 
ATOM      9  C   UNL     1      -2.767   4.099  -1.199  0.00  0.00    +0.003 C 
ATOM     10  C   UNL     1      -1.237   4.066  -1.219  0.00  0.00    +0.035 C 
ATOM     11  C   UNL     1      -0.725   3.352   0.027  0.00  0.00    +0.115 C 
ATOM     12  C   UNL     1       0.785   3.285   0.012  0.00  0.00    +0.247 C 
ATOM     13  O   UNL     1       1.561   4.217   0.010  0.00  0.00    -0.273 OA
ATOM     14  N   UNL     1       1.088   1.971   0.002  0.00  0.00    -0.213 N 
ATOM     15  C   UNL     1      -0.014   1.211   0.009  0.00  0.00    +0.310 C 
ATOM     16  O   UNL     1       0.002  -0.004   0.002  0.00  0.00    -0.252 OA
ATOM     17  N   UNL     1      -1.144   1.945   0.018  0.00  0.00    -0.285 N 
ATOM     18  H   UNL     1      -2.054   1.610   0.019  0.00  0.00    +0.151 HD
ENDBRANCH   4  14
ENDBRANCH   2   4
ENDBRANCH   1   2
BRANCH   1  19
ATOM     19  C   UNL     1       4.505   0.648  -3.098  0.00  0.00    +0.327 C 
BRANCH  19  20
ATOM     20  C   UNL     1       5.906   0.103  -3.194  0.00  0.00    +0.251 C 
ATOM     21  O   UNL     1       6.532  -0.142  -2.184  0.00  0.00    -0.272 OA
ATOM     22  N   UNL     1       6.465  -0.112  -4.402  0.00  0.00    -0.312 N 
ATOM     23  H   UNL     1       5.964   0.084  -5.209  0.00  0.00    +0.149 HD
BRANCH  22  24
ATOM     24  C   UNL     1       7.827  -0.641  -4.495  0.00  0.00    +0.109 C 
BRANCH  24  25
ATOM     25  C   UNL     1       8.217  -0.790  -5.967  0.00  0.00    +0.054 C 
BRANCH  25  26
ATOM     26  C   UNL     1       9.619  -1.335  -6.063  0.00  0.00    -0.046 A 
ATOM     27  C   UNL     1      10.694  -0.468  -6.111  0.00  0.00    +0.007 A 
ATOM     28  C   UNL     1      11.981  -0.964  -6.193  0.00  0.00    +0.046 A 
ATOM     29  C   UNL     1      12.192  -2.335  -6.239  0.00  0.00    +0.127 A 
ATOM     30  C   UNL     1      11.111  -3.203  -6.197  0.00  0.00    +0.046 A 
ATOM     31  C   UNL     1       9.827  -2.701  -6.109  0.00  0.00    +0.007 A 
BRANCH  29  32
ATOM     32  O   UNL     1      13.456  -2.826  -6.325  0.00  0.00    -0.434 OA
BRANCH  32  33
ATOM     33  C   UNL     1      14.521  -1.874  -6.365  0.00  0.00    +0.541 C 
ATOM     34  F   UNL     1      14.364  -1.044  -7.480  0.00  0.00    -0.166 F 
ATOM     35  F   UNL     1      14.497  -1.099  -5.200  0.00  0.00    -0.166 F 
ENDBRANCH  32  33
ENDBRANCH  29  32
ENDBRANCH  25  26
ENDBRANCH  24  25
ENDBRANCH  22  24
ENDBRANCH  19  20
ENDBRANCH   1  19
TORSDOF 10
