REMARK  Name = ZINC14643095
REMARK  13 active torsions:
REMARK  status: ('A' for Active; 'I' for Inactive)
REMARK    1  A    between atoms: C_1  and  C_2
REMARK    2  A    between atoms: C_5  and  N_9
REMARK    3  A    between atoms: C_6  and  C_8
REMARK    4  A    between atoms: C_10  and  C_12
REMARK    5  A    between atoms: C_12  and  C_13
REMARK    6  A    between atoms: C_13  and  C_14
REMARK    7  A    between atoms: N_16  and  N_17
REMARK    8  A    between atoms: C_18  and  C_20
REMARK    9  A    between atoms: C_20  and  C_22
REMARK   10  A    between atoms: C_20  and  O_23
REMARK   11  A    between atoms: O_23  and  C_24
REMARK   12  A    between atoms: C_25  and  C_32
REMARK   13  A    between atoms: C_29  and  C_30
REMARK                            x       y       z     vdW  Elec       q    Type
REMARK                         _______ _______ _______ _____ _____    ______ ____
ROOT
ATOM      1  C   UNL     1       4.414   3.017  -0.205  0.00  0.00    +0.230 C 
ATOM      2  O   UNL     1       4.454   4.125   0.287  0.00  0.00    -0.274 OA
ATOM      3  N   UNL     1       5.559   2.355  -0.467  0.00  0.00    -0.234 N 
ATOM      4  H   UNL     1       5.527   1.469  -0.861  0.00  0.00    +0.173 HD
ENDROOT
BRANCH   3   5
ATOM      5  N   UNL     1       6.793   2.947  -0.171  0.00  0.00    -0.231 N 
ATOM      6  C   UNL     1       7.938   2.284  -0.433  0.00  0.00    +0.270 C 
ATOM      7  O   UNL     1       7.898   1.177  -0.926  0.00  0.00    -0.270 OA
ATOM      8  H   UNL     1       6.825   3.833   0.223  0.00  0.00    +0.173 HD
BRANCH   6   9
ATOM      9  C   UNL     1       9.266   2.921  -0.115  0.00  0.00    +0.257 C 
ATOM     10  C   UNL     1       9.396   3.100   1.399  0.00  0.00    +0.062 C 
BRANCH   9  11
ATOM     11  O   UNL     1      10.322   2.081  -0.587  0.00  0.00    -0.479 OA
BRANCH  11  12
ATOM     12  C   UNL     1      11.494   2.687  -0.911  0.00  0.00    +0.127 A 
ATOM     13  C   UNL     1      11.651   3.273  -2.159  0.00  0.00    -0.007 A 
ATOM     14  C   UNL     1      12.841   3.894  -2.485  0.00  0.00    +0.022 A 
ATOM     15  C   UNL     1      13.881   3.921  -1.573  0.00  0.00    +0.019 A 
ATOM     16  C   UNL     1      13.729   3.332  -0.330  0.00  0.00    +0.022 A 
ATOM     17  C   UNL     1      12.538   2.715   0.002  0.00  0.00    -0.007 A 
ATOM     18  C   UNL     1      12.373   2.073   1.355  0.00  0.00    +0.047 C 
ATOM     19 BR   UNL     1      15.512   4.764  -2.024  0.00  0.00    -0.050 Br
ATOM     20  C   UNL     1      10.521   3.239  -3.156  0.00  0.00    +0.047 C 
ENDBRANCH  11  12
ENDBRANCH   9  11
ENDBRANCH   6   9
ENDBRANCH   3   5
BRANCH   1  21
ATOM     21  C   UNL     1       3.086   2.381  -0.523  0.00  0.00    +0.106 C 
BRANCH  21  22
ATOM     22  C   UNL     1       1.956   3.336  -0.131  0.00  0.00    +0.105 C 
BRANCH  22  24
ATOM     23  N   UNL     1      -0.517   3.364  -0.192  0.00  0.00    -0.285 N 
ATOM     24  C   UNL     1       0.628   2.700  -0.450  0.00  0.00    +0.218 C 
ATOM     25  O   UNL     1       0.588   1.592  -0.942  0.00  0.00    -0.275 OA
ATOM     26  H   UNL     1      -0.490   4.210   0.282  0.00  0.00    +0.155 HD
BRANCH  23  31
ATOM     27  C   UNL     1      -5.487   1.211  -1.881  0.00  0.00    +0.044 C 
ATOM     28  C   UNL     1      -4.167   1.784  -1.432  0.00  0.00    -0.050 A 
ATOM     29  C   UNL     1      -2.995   1.376  -2.044  0.00  0.00    +0.005 A 
ATOM     30  C   UNL     1      -1.783   1.898  -1.635  0.00  0.00    +0.024 A 
ATOM     31  C   UNL     1      -1.742   2.833  -0.609  0.00  0.00    +0.036 A 
ATOM     32  C   UNL     1      -2.920   3.236   0.006  0.00  0.00    -0.029 A 
ATOM     33  C   UNL     1      -4.129   2.715  -0.411  0.00  0.00    +0.008 A 
ATOM     34  C   UNL     1      -2.880   4.246   1.124  0.00  0.00    +0.045 C 
ENDBRANCH  23  31
ENDBRANCH  22  24
ENDBRANCH  21  22
ENDBRANCH   1  21
TORSDOF 8
