REMARK  Name = ZINC09356605
REMARK  5 active torsions:
REMARK  status: ('A' for Active; 'I' for Inactive)
REMARK    1  A    between atoms: C_4  and  C_7
REMARK    2  A    between atoms: C_14  and  N_36
REMARK    3  A    between atoms: C_15  and  C_34
REMARK    4  A    between atoms: N_23  and  C_26
REMARK    5  A    between atoms: C_26  and  C_27
REMARK                            x       y       z     vdW  Elec       q    Type
REMARK                         _______ _______ _______ _____ _____    ______ ____
ROOT
ATOM      1  C   UNL     1       3.696  -0.686  -0.038  0.00  0.00    +0.074 A 
ATOM      2  C   UNL     1       3.986  -1.800  -0.752  0.00  0.00    +0.066 A 
ATOM      3  C   UNL     1       5.324  -2.156  -0.481  0.00  0.00    +0.246 A 
ATOM      4  N   UNL     1       5.815  -1.291   0.359  0.00  0.00    -0.135 NA
ATOM      5  N   UNL     1       4.821  -0.347   0.659  0.00  0.00    -0.273 N 
ATOM      6  H   UNL     1       4.916   0.411   1.256  0.00  0.00    +0.189 HD
ATOM      7  O   UNL     1       5.908  -3.242  -1.056  0.00  0.00    -0.421 OA
ATOM      8  C   UNL     1       5.110  -4.125  -1.688  0.00  0.00    +0.201 C 
ATOM      9  C   UNL     1       3.818  -3.892  -2.010  0.00  0.00    +0.110 C 
ATOM     10  C   UNL     1       3.126  -2.596  -1.692  0.00  0.00    +0.145 C 
ATOM     11  C   UNL     1       2.820  -1.824  -2.936  0.00  0.00    -0.001 A 
ATOM     12  C   UNL     1       3.639  -1.304  -3.915  0.00  0.00    +0.007 A 
ATOM     13  C   UNL     1       3.022  -0.624  -4.959  0.00  0.00    +0.000 A 
ATOM     14  C   UNL     1       1.650  -0.477  -5.009  0.00  0.00    +0.002 A 
ATOM     15  C   UNL     1       0.820  -0.997  -4.029  0.00  0.00    +0.024 A 
ATOM     16  C   UNL     1       1.427  -1.683  -2.975  0.00  0.00    +0.041 A 
ATOM     17  N   UNL     1       0.850  -2.296  -1.877  0.00  0.00    -0.265 N 
ATOM     18  C   UNL     1       1.773  -2.861  -1.070  0.00  0.00    +0.241 C 
ATOM     19  O   UNL     1       1.558  -3.466  -0.041  0.00  0.00    -0.274 OA
ENDROOT
BRANCH   1  23
ATOM     20  C   UNL     1      -0.016   1.380   0.011  0.00  0.00    +0.000 A 
ATOM     21  C   UNL     1       0.558   0.967   1.200  0.00  0.00    +0.001 A 
ATOM     22  C   UNL     1       1.764   0.296   1.191  0.00  0.00    +0.010 A 
ATOM     23  C   UNL     1       2.403   0.033  -0.021  0.00  0.00    +0.000 A 
ATOM     24  C   UNL     1       1.819   0.452  -1.217  0.00  0.00    +0.010 A 
ATOM     25  C   UNL     1       0.613   1.123  -1.194  0.00  0.00    +0.001 A 
ENDBRANCH   1  23
BRANCH   8  26
ATOM     26  N   UNL     1       5.645  -5.343  -2.026  0.00  0.00    -0.328 N 
ATOM     27  H   UNL     1       6.569  -5.544  -1.809  0.00  0.00    +0.145 HD
ATOM     28  H   UNL     1       5.098  -6.003  -2.481  0.00  0.00    +0.145 HD
ENDBRANCH   8  26
BRANCH   9  29
ATOM     29  C   UNL     1       3.080  -4.920  -2.680  0.00  0.00    +0.102 C 
ATOM     30  N   UNL     1       2.495  -5.735  -3.212  0.00  0.00    -0.191 NA
ENDBRANCH   9  29
BRANCH  17  31
ATOM     31  C   UNL     1      -0.592  -2.329  -1.622  0.00  0.00    +0.148 C 
BRANCH  31  32
ATOM     32  C   UNL     1      -1.188  -3.554  -2.266  0.00  0.00    -0.030 A 
ATOM     33  C   UNL     1      -1.649  -3.495  -3.568  0.00  0.00    +0.006 A 
ATOM     34  C   UNL     1      -2.197  -4.618  -4.159  0.00  0.00    +0.020 A 
ATOM     35  C   UNL     1      -2.283  -5.801  -3.448  0.00  0.00    +0.041 A 
ATOM     36  C   UNL     1      -1.822  -5.860  -2.145  0.00  0.00    +0.020 A 
ATOM     37  C   UNL     1      -1.270  -4.738  -1.556  0.00  0.00    +0.006 A 
ATOM     38 CL   UNL     1      -2.971  -7.212  -4.189  0.00  0.00    -0.084 Cl
ENDBRANCH  31  32
ENDBRANCH  17  31
TORSDOF 5
