REMARK  Name = ZINC48436064
REMARK  6 active torsions:
REMARK  status: ('A' for Active; 'I' for Inactive)
REMARK    1  A    between atoms: C_1  and  C_2
REMARK    2  A    between atoms: C_6  and  C_8
REMARK    3  A    between atoms: C_11  and  C_13
REMARK    4  A    between atoms: C_13  and  O_14
REMARK    5  A    between atoms: O_14  and  C_15
REMARK    6  A    between atoms: N_16  and  C_18
REMARK                            x       y       z     vdW  Elec       q    Type
REMARK                         _______ _______ _______ _____ _____    ______ ____
ROOT
ATOM      1  C   UNL     1      -0.018   1.503   0.010  0.00  0.00    +0.070 C 
ATOM      2  C   UNL     1       0.002  -0.004   0.002  0.00  0.00    +0.087 A 
ATOM      3  C   UNL     1       0.008  -0.823  -1.149  0.00  0.00    +0.131 A 
ATOM      4  C   UNL     1       0.028  -2.142  -0.710  0.00  0.00    +0.157 A 
ATOM      5  N   UNL     1       0.034  -2.929  -1.836  0.00  0.00    -0.320 N 
ATOM      6  C   UNL     1       0.017  -2.090  -2.921  0.00  0.00    +0.176 A 
ATOM      7  N   UNL     1       0.002  -0.845  -2.506  0.00  0.00    -0.221 NA
ATOM      8  N   UNL     1       0.034  -2.112   0.650  0.00  0.00    -0.243 N 
ATOM      9  N   UNL     1       0.023  -0.772   1.057  0.00  0.00    -0.172 NA
ATOM     10  H   UNL     1       0.048  -3.899  -1.859  0.00  0.00    +0.169 HD
ENDROOT
BRANCH   8  11
ATOM     11  C   UNL     1       0.054  -3.279   1.536  0.00  0.00    +0.109 C 
ATOM     12  C   UNL     1      -1.191  -3.266   2.425  0.00  0.00    +0.027 C 
ATOM     13  C   UNL     1      -1.170  -4.484   3.349  0.00  0.00    +0.002 C 
ATOM     14  C   UNL     1       0.083  -4.438   4.226  0.00  0.00    +0.000 C 
ATOM     15  C   UNL     1       1.328  -4.450   3.338  0.00  0.00    +0.002 C 
ATOM     16  C   UNL     1       1.307  -3.232   2.413  0.00  0.00    +0.027 C 
ENDBRANCH   8  11
BRANCH   6  17
ATOM     17  C   UNL     1       0.017  -2.518  -4.329  0.00  0.00    +0.170 A 
ATOM     18  C   UNL     1       0.005  -1.696  -5.415  0.00  0.00    +0.053 A 
ATOM     19  C   UNL     1       0.010  -2.526  -6.552  0.00  0.00    +0.048 A 
ATOM     20  C   UNL     1       0.024  -3.801  -6.111  0.00  0.00    +0.131 A 
ATOM     21  O   UNL     1       0.033  -3.792  -4.769  0.00  0.00    -0.454 OA
BRANCH  20  22
ATOM     22  C   UNL     1       0.032  -5.031  -6.981  0.00  0.00    +0.233 C 
BRANCH  22  23
ATOM     23  O   UNL     1       1.382  -5.407  -7.261  0.00  0.00    -0.375 OA
ATOM     24  C   UNL     1       1.503  -6.569  -8.084  0.00  0.00    +0.194 C 
ENDBRANCH  22  23
ENDBRANCH  20  22
ENDBRANCH   6  17
TORSDOF 4
