REMARK  Name = ZINC08632550
REMARK  8 active torsions:
REMARK  status: ('A' for Active; 'I' for Inactive)
REMARK    1  A    between atoms: C_1  and  C_2
REMARK    2  A    between atoms: N_13  and  C_28
REMARK    3  A    between atoms: C_14  and  S_16
REMARK    4  A    between atoms: S_16  and  C_17
REMARK    5  A    between atoms: C_17  and  C_19
REMARK    6  A    between atoms: C_17  and  C_22
REMARK    7  A    between atoms: C_19  and  C_20
REMARK    8  A    between atoms: C_19  and  C_21
REMARK                            x       y       z     vdW  Elec       q    Type
REMARK                         _______ _______ _______ _____ _____    ______ ____
ROOT
ATOM      1  C   UNL     1      -9.293   8.618   1.054  0.00  0.00    +0.008 C 
ATOM      2  C   UNL     1      -8.658   7.268   0.716  0.00  0.00    -0.009 C 
ATOM      3  C   UNL     1      -8.582   6.404   1.978  0.00  0.00    +0.008 C 
ATOM      4  C   UNL     1      -8.186   4.975   1.606  0.00  0.00    +0.037 C 
ATOM      5  C   UNL     1      -6.914   5.021   0.763  0.00  0.00    -0.023 A 
ATOM      6  C   UNL     1      -6.534   6.160   0.151  0.00  0.00    -0.004 A 
ATOM      7  S   UNL     1      -5.031   5.749  -0.695  0.00  0.00    -0.073 S 
ATOM      8  C   UNL     1      -4.918   4.042  -0.222  0.00  0.00    +0.117 A 
ATOM      9  C   UNL     1      -6.056   3.849   0.579  0.00  0.00    +0.076 A 
ATOM     10  C   UNL     1      -6.228   2.532   1.111  0.00  0.00    +0.268 A 
ATOM     11  O   UNL     1      -7.187   2.272   1.817  0.00  0.00    -0.267 OA
ATOM     12  N   UNL     1      -5.316   1.585   0.822  0.00  0.00    -0.255 N 
ATOM     13  C   UNL     1      -4.235   1.860   0.032  0.00  0.00    +0.178 A 
ATOM     14  N   UNL     1      -4.051   3.066  -0.466  0.00  0.00    -0.215 NA
ATOM     15  C   UNL     1      -7.234   7.484   0.182  0.00  0.00    +0.046 C 
ENDROOT
BRANCH  12  16
ATOM     16  C   UNL     1      -5.479   0.293   1.340  0.00  0.00    +0.052 A 
ATOM     17  C   UNL     1      -6.199  -0.656   0.627  0.00  0.00    +0.026 A 
ATOM     18  C   UNL     1      -6.353  -1.930   1.138  0.00  0.00    +0.002 A 
ATOM     19  C   UNL     1      -5.801  -2.257   2.363  0.00  0.00    +0.000 A 
ATOM     20  C   UNL     1      -5.087  -1.312   3.077  0.00  0.00    +0.002 A 
ATOM     21  C   UNL     1      -4.925  -0.038   2.569  0.00  0.00    +0.026 A 
ENDBRANCH  12  16
BRANCH  13  22
ATOM     22  S   UNL     1      -3.068   0.587  -0.318  0.00  0.00    -0.074 S 
BRANCH  22  23
ATOM     23  C   UNL     1      -1.995   1.458  -1.487  0.00  0.00    +0.143 C 
BRANCH  23  24
ATOM     24  C   UNL     1      -0.780   0.615  -1.777  0.00  0.00    +0.234 C 
ATOM     25  O   UNL     1      -0.832  -0.590  -1.646  0.00  0.00    -0.274 OA
ATOM     26  N   UNL     1       0.363   1.198  -2.188  0.00  0.00    -0.239 N 
ATOM     27  C   UNL     1       1.448   0.444  -2.454  0.00  0.00    +0.303 C 
ATOM     28  O   UNL     1       1.395  -0.763  -2.322  0.00  0.00    -0.253 OA
ATOM     29  N   UNL     1       2.591   1.028  -2.865  0.00  0.00    -0.313 N 
ATOM     30  H   UNL     1       0.405   2.162  -2.294  0.00  0.00    +0.159 HD
ATOM     31  H   UNL     1       2.633   1.991  -2.970  0.00  0.00    +0.146 HD
ATOM     32  H   UNL     1       3.371   0.484  -3.056  0.00  0.00    +0.146 HD
ENDBRANCH  23  24
BRANCH  23  33
ATOM     33  C   UNL     1      -2.759   1.716  -2.787  0.00  0.00    +0.005 C 
ATOM     34  C   UNL     1      -1.911   2.590  -3.712  0.00  0.00    +0.009 C 
ATOM     35  C   UNL     1      -3.058   0.383  -3.476  0.00  0.00    +0.009 C 
ENDBRANCH  23  33
ENDBRANCH  22  23
ENDBRANCH  13  22
TORSDOF 5
