REMARK  Name = ZINC21475326
REMARK  8 active torsions:
REMARK  status: ('A' for Active; 'I' for Inactive)
REMARK    1  A    between atoms: C_1  and  C_2
REMARK    2  A    between atoms: C_5  and  N_9
REMARK    3  A    between atoms: C_6  and  C_8
REMARK    4  A    between atoms: C_10  and  S_14
REMARK    5  A    between atoms: S_14  and  C_15
REMARK    6  A    between atoms: C_15  and  C_17
REMARK    7  A    between atoms: C_15  and  C_18
REMARK    8  A    between atoms: C_18  and  C_20
REMARK                            x       y       z     vdW  Elec       q    Type
REMARK                         _______ _______ _______ _____ _____    ______ ____
ROOT
ATOM      1  C   UNL     1      -0.744   4.743   0.927  0.00  0.00    +0.122 C 
ATOM      2  C   UNL     1      -1.334   5.150   2.279  0.00  0.00    +0.028 C 
ENDROOT
BRANCH   1   3
ATOM      3  C   UNL     1       0.508   3.934   1.148  0.00  0.00    +0.176 C 
ATOM      4  O   UNL     1       1.592   4.478   1.130  0.00  0.00    -0.291 OA
BRANCH   3   5
ATOM      5  C   UNL     1       0.415   2.487   1.384  0.00  0.00    +0.020 A 
ATOM      6  C   UNL     1      -0.835   1.858   1.404  0.00  0.00    +0.015 A 
ATOM      7  C   UNL     1      -0.922   0.502   1.625  0.00  0.00    +0.048 A 
ATOM      8  C   UNL     1       0.229  -0.246   1.828  0.00  0.00    +0.142 A 
ATOM      9  C   UNL     1       1.481   0.375   1.810  0.00  0.00    +0.076 A 
ATOM     10  C   UNL     1       1.578   1.734   1.590  0.00  0.00    +0.038 A 
ATOM     11  N   UNL     1       2.633  -0.398   2.019  0.00  0.00    -0.280 N 
ATOM     12  C   UNL     1       2.546  -1.742   1.916  0.00  0.00    +0.255 C 
ATOM     13  O   UNL     1       3.521  -2.434   2.120  0.00  0.00    -0.272 OA
ATOM     14  C   UNL     1       1.231  -2.379   1.544  0.00  0.00    +0.325 C 
ATOM     15  O   UNL     1       0.153  -1.584   2.045  0.00  0.00    -0.481 OA
ATOM     16  H   UNL     1       3.587   0.091   2.263  0.00  0.00    +0.155 HD
ENDBRANCH   3   5
ENDBRANCH   1   3
BRANCH   1  17
ATOM     17  S   UNL     1      -0.343   6.228  -0.028  0.00  0.00    -0.073 S 
BRANCH  17  19
ATOM     18  N   UNL     1      -2.278   8.025  -0.930  0.00  0.00    -0.187 N 
ATOM     19  C   UNL     1      -1.960   6.886  -0.264  0.00  0.00    +0.215 A 
ATOM     20  N   UNL     1      -3.088   6.364   0.168  0.00  0.00    -0.101 NA
ATOM     21  N   UNL     1      -4.084   7.099  -0.174  0.00  0.00    -0.022 NA
ATOM     22  N   UNL     1      -3.678   8.122  -0.845  0.00  0.00    -0.038 NA
BRANCH  18  27
ATOM     23  C   UNL     1       1.279  11.617  -3.511  0.00  0.00    +0.044 C 
ATOM     24  C   UNL     1       0.334  10.664  -2.826  0.00  0.00    -0.050 A 
ATOM     25  C   UNL     1       0.603  10.232  -1.540  0.00  0.00    +0.005 A 
ATOM     26  C   UNL     1      -0.264   9.362  -0.907  0.00  0.00    +0.028 A 
ATOM     27  C   UNL     1      -1.399   8.912  -1.568  0.00  0.00    +0.073 A 
ATOM     28  C   UNL     1      -1.666   9.348  -2.859  0.00  0.00    -0.025 A 
ATOM     29  C   UNL     1      -0.798  10.222  -3.484  0.00  0.00    +0.008 A 
ATOM     30  C   UNL     1      -2.901   8.868  -3.577  0.00  0.00    +0.046 C 
ENDBRANCH  18  27
ENDBRANCH  17  19
ENDBRANCH   1  17
TORSDOF 5
