REMARK  Name = ZINC12080327
REMARK  9 active torsions:
REMARK  status: ('A' for Active; 'I' for Inactive)
REMARK    1  A    between atoms: C_1  and  O_2
REMARK    2  A    between atoms: O_2  and  C_3
REMARK    3  A    between atoms: C_3  and  C_5
REMARK    4  A    between atoms: C_9  and  N_10
REMARK    5  A    between atoms: C_11  and  C_13
REMARK    6  A    between atoms: C_13  and  C_14
REMARK    7  A    between atoms: N_20  and  N_21
REMARK    8  A    between atoms: C_22  and  C_23
REMARK    9  A    between atoms: C_26  and  N_29
REMARK                            x       y       z     vdW  Elec       q    Type
REMARK                         _______ _______ _______ _____ _____    ______ ____
ROOT
ATOM      1  C   UNL     1      -8.435   2.180   0.090  0.00  0.00    +0.149 C 
ATOM      2  C   UNL     1      -7.272   1.199   0.075  0.00  0.00    +0.233 C 
ATOM      3  O   UNL     1      -7.426  -0.003   0.071  0.00  0.00    -0.274 OA
ATOM      4  N   UNL     1      -6.077   1.770   0.066  0.00  0.00    -0.263 N 
ATOM      5  C   UNL     1      -5.905   3.115   0.070  0.00  0.00    +0.183 C 
ATOM      6  N   UNL     1      -4.724   3.805   0.063  0.00  0.00    -0.127 NA
ATOM      7  S   UNL     1      -7.513   3.768   0.094  0.00  0.00    -0.075 S 
ATOM      8  H   UNL     1      -5.292   1.202   0.056  0.00  0.00    +0.157 HD
ENDROOT
BRANCH   6   9
ATOM      9  N   UNL     1      -3.604   3.166   0.050  0.00  0.00    -0.155 NA
ATOM     10  C   UNL     1      -2.437   3.848   0.043  0.00  0.00    +0.143 C 
BRANCH  10  11
ATOM     11  C   UNL     1      -1.220   3.154   0.029  0.00  0.00    -0.005 A 
ATOM     12  C   UNL     1      -1.205   1.738   0.017  0.00  0.00    +0.012 A 
ATOM     13  C   UNL     1      -0.013   1.076   0.008  0.00  0.00    +0.033 A 
ATOM     14  C   UNL     1       1.183   1.784   0.000  0.00  0.00    +0.126 A 
ATOM     15  C   UNL     1       1.184   3.173   0.008  0.00  0.00    +0.033 A 
ATOM     16  C   UNL     1       0.007   3.862   0.022  0.00  0.00    +0.012 A 
BRANCH  14  17
ATOM     17  N   UNL     1       2.470   1.050  -0.015  0.00  0.00    +0.056 N 
ATOM     18  O   UNL     1       2.477  -0.267  -0.022  0.00  0.00    -0.126 OA
ATOM     19  O   UNL     1       3.607   1.714  -0.023  0.00  0.00    -0.126 OA
ENDBRANCH  14  17
ENDBRANCH  10  11
ENDBRANCH   6   9
BRANCH   1  20
ATOM     20  C   UNL     1      -9.299   2.038  -1.165  0.00  0.00    +0.120 C 
BRANCH  20  22
ATOM     21  N   UNL     1     -11.409   2.978  -2.047  0.00  0.00    -0.279 N 
ATOM     22  C   UNL     1     -10.502   2.938  -1.052  0.00  0.00    +0.219 C 
ATOM     23  O   UNL     1     -10.654   3.626  -0.065  0.00  0.00    -0.275 OA
ATOM     24  H   UNL     1     -11.288   2.428  -2.837  0.00  0.00    +0.155 HD
BRANCH  21  29
ATOM     25  C   UNL     1     -13.547   3.989  -2.856  0.00  0.00    +0.091 A 
ATOM     26  C   UNL     1     -14.601   4.923  -2.499  0.00  0.00    -0.021 A 
ATOM     27  C   UNL     1     -14.453   5.529  -1.302  0.00  0.00    -0.004 A 
ATOM     28  S   UNL     1     -12.946   4.871  -0.645  0.00  0.00    -0.077 S 
ATOM     29  C   UNL     1     -12.516   3.807  -1.943  0.00  0.00    +0.086 A 
ATOM     30  C   UNL     1     -15.371   6.535  -0.678  0.00  0.00    +0.043 C 
ATOM     31  C   UNL     1     -16.319   7.063  -1.764  0.00  0.00    +0.005 C 
ATOM     32  C   UNL     1     -16.895   5.873  -2.538  0.00  0.00    +0.005 C 
ATOM     33  C   UNL     1     -15.800   5.228  -3.390  0.00  0.00    +0.037 C 
BRANCH  25  34
ATOM     34  C   UNL     1     -13.572   3.264  -4.128  0.00  0.00    +0.342 C 
ATOM     35  O   UNL     1     -14.124   2.183  -4.201  0.00  0.00    -0.245 OA
BRANCH  34  37
ATOM     36  C   UNL     1     -13.047   3.021  -6.445  0.00  0.00    +0.280 C 
ATOM     37  O   UNL     1     -12.983   3.795  -5.219  0.00  0.00    -0.464 OA
ENDBRANCH  34  37
ENDBRANCH  25  34
ENDBRANCH  21  29
ENDBRANCH  20  22
ENDBRANCH   1  20
TORSDOF 8
