REMARK  Name = ZINC10041340
REMARK  9 active torsions:
REMARK  status: ('A' for Active; 'I' for Inactive)
REMARK    1  A    between atoms: C_1  and  C_2
REMARK    2  A    between atoms: C_2  and  C_3
REMARK    3  A    between atoms: C_2  and  C_4
REMARK    4  A    between atoms: C_4  and  C_6
REMARK    5  A    between atoms: C_4  and  N_18
REMARK    6  A    between atoms: N_8  and  N_9
REMARK    7  A    between atoms: C_10  and  C_11
REMARK    8  A    between atoms: C_14  and  O_17
REMARK    9  A    between atoms: C_19  and  C_21
REMARK                            x       y       z     vdW  Elec       q    Type
REMARK                         _______ _______ _______ _____ _____    ______ ____
ROOT
ATOM      1  C   UNL     1      -3.750  -1.085   0.015  0.00  0.00    +0.163 C 
ENDROOT
BRANCH   1   2
ATOM      2  C   UNL     1      -3.531  -2.446  -0.593  0.00  0.00    +0.253 C 
ATOM      3  O   UNL     1      -2.429  -2.763  -0.990  0.00  0.00    -0.272 OA
ATOM      4  N   UNL     1      -4.558  -3.312  -0.697  0.00  0.00    -0.205 N 
ATOM      5  H   UNL     1      -5.439  -3.059  -0.379  0.00  0.00    +0.177 HD
BRANCH   4   6
ATOM      6  N   UNL     1      -4.354  -4.577  -1.262  0.00  0.00    -0.188 NA
ATOM      7  C   UNL     1      -5.344  -5.411  -1.362  0.00  0.00    +0.138 C 
BRANCH   7   8
ATOM      8  C   UNL     1      -5.129  -6.743  -1.957  0.00  0.00    -0.005 A 
ATOM      9  C   UNL     1      -3.862  -7.107  -2.420  0.00  0.00    +0.013 A 
ATOM     10  C   UNL     1      -3.665  -8.354  -2.972  0.00  0.00    +0.046 A 
ATOM     11  C   UNL     1      -4.726  -9.245  -3.077  0.00  0.00    +0.117 A 
ATOM     12  C   UNL     1      -5.988  -8.885  -2.623  0.00  0.00    +0.046 A 
ATOM     13  C   UNL     1      -6.193  -7.642  -2.065  0.00  0.00    +0.013 A 
BRANCH  11  14
ATOM     14  O   UNL     1      -4.528 -10.472  -3.626  0.00  0.00    -0.507 OA
ATOM     15  H   UNL     1      -4.665 -10.501  -4.583  0.00  0.00    +0.292 HD
ENDBRANCH  11  14
ENDBRANCH   7   8
ENDBRANCH   4   6
ENDBRANCH   1   2
BRANCH   1  16
ATOM     16  N   UNL     1      -2.489  -0.340   0.013  0.00  0.00    -0.300 N 
ATOM     17  C   UNL     1      -2.502   1.008   0.020  0.00  0.00    +0.246 C 
ATOM     18  O   UNL     1      -3.561   1.605   0.028  0.00  0.00    -0.270 OA
ATOM     19  H   UNL     1      -1.644  -0.817   0.006  0.00  0.00    +0.150 HD
BRANCH  17  20
ATOM     20  C   UNL     1      -1.231   1.759   0.017  0.00  0.00    +0.055 A 
ATOM     21  C   UNL     1      -0.013   1.076   0.008  0.00  0.00    +0.016 A 
ATOM     22  C   UNL     1       1.171   1.782   0.001  0.00  0.00    +0.021 A 
ATOM     23  C   UNL     1       1.155   3.168   0.008  0.00  0.00    +0.042 A 
ATOM     24  C   UNL     1      -0.049   3.852   0.022  0.00  0.00    +0.040 A 
ATOM     25  C   UNL     1      -1.241   3.156   0.030  0.00  0.00    +0.054 A 
ATOM     26 CL   UNL     1      -2.750   4.015   0.048  0.00  0.00    -0.083 Cl
ATOM     27 CL   UNL     1       2.650   4.050  -0.001  0.00  0.00    -0.083 Cl
ENDBRANCH  17  20
ENDBRANCH   1  16
BRANCH   1  29
ATOM     28  C   UNL     1      -3.151  -1.895   2.302  0.00  0.00    +0.009 C 
ATOM     29  C   UNL     1      -4.246  -1.244   1.454  0.00  0.00    +0.012 C 
ATOM     30  C   UNL     1      -4.588   0.132   2.030  0.00  0.00    +0.009 C 
ENDBRANCH   1  29
TORSDOF 7
