REMARK  Name = ZINC26571518
REMARK  10 active torsions:
REMARK  status: ('A' for Active; 'I' for Inactive)
REMARK    1  A    between atoms: C_1  and  C_2
REMARK    2  A    between atoms: C_3  and  N_15
REMARK    3  A    between atoms: N_6  and  C_9
REMARK    4  A    between atoms: N_7  and  C_8
REMARK    5  A    between atoms: N_15  and  C_16
REMARK    6  A    between atoms: C_16  and  N_18
REMARK    7  A    between atoms: N_18  and  C_19
REMARK    8  A    between atoms: C_19  and  C_21
REMARK    9  A    between atoms: C_19  and  N_25
REMARK   10  A    between atoms: C_26  and  C_28
REMARK                            x       y       z     vdW  Elec       q    Type
REMARK                         _______ _______ _______ _____ _____    ______ ____
ROOT
ATOM      1  N   UNL     1      -1.527  -0.586   1.932  0.00  0.00    -0.291 N 
ATOM      2  H   UNL     1      -1.892  -1.003   0.982  0.00  0.00    +0.154 HD
ENDROOT
BRANCH   1   5
ATOM      3  C   UNL     1       0.238   1.182   0.161  0.00  0.00    +0.067 C 
ATOM      4  C   UNL     1      -0.620   1.617   1.321  0.00  0.00    +0.059 A 
ATOM      5  C   UNL     1      -1.389   0.808   2.083  0.00  0.00    +0.120 A 
ATOM      6  C   UNL     1      -2.032   1.609   3.061  0.00  0.00    +0.293 A 
ATOM      7  O   UNL     1      -2.801   1.216   3.920  0.00  0.00    -0.264 OA
ATOM      8  N   UNL     1      -1.639   2.885   2.870  0.00  0.00    -0.216 N 
ATOM      9  N   UNL     1      -0.750   2.901   1.787  0.00  0.00    -0.282 N 
ATOM     10  C   UNL     1      -0.078   4.084   1.244  0.00  0.00    +0.171 C 
BRANCH   8  11
ATOM     11  C   UNL     1      -2.040   3.993   3.622  0.00  0.00    +0.067 A 
ATOM     12  C   UNL     1      -2.485   5.144   2.984  0.00  0.00    +0.028 A 
ATOM     13  C   UNL     1      -2.887   6.234   3.730  0.00  0.00    +0.002 A 
ATOM     14  C   UNL     1      -2.836   6.185   5.111  0.00  0.00    +0.000 A 
ATOM     15  C   UNL     1      -2.388   5.043   5.750  0.00  0.00    +0.002 A 
ATOM     16  C   UNL     1      -1.991   3.947   5.010  0.00  0.00    +0.028 A 
ENDBRANCH   8  11
ENDBRANCH   1   5
BRANCH   1  17
ATOM     17  C   UNL     1      -1.213  -1.409   2.952  0.00  0.00    +0.136 C 
ATOM     18  S   UNL     1      -0.744  -0.757   4.464  0.00  0.00    -0.019 S 
BRANCH  17  19
ATOM     19  N   UNL     1      -1.268  -2.745   2.782  0.00  0.00    -0.305 N 
ATOM     20  H   UNL     1      -1.569  -3.164   1.811  0.00  0.00    +0.150 HD
BRANCH  19  21
ATOM     21  C   UNL     1      -0.926  -3.639   3.891  0.00  0.00    +0.211 C 
BRANCH  21  22
ATOM     22  C   UNL     1      -0.018  -4.760   3.382  0.00  0.00    +0.225 C 
ATOM     23 CL   UNL     1       1.490  -4.048   2.697  0.00  0.00    -0.080 Cl
ATOM     24 CL   UNL     1       0.402  -5.861   4.747  0.00  0.00    -0.080 Cl
ATOM     25 CL   UNL     1      -0.877  -5.693   2.100  0.00  0.00    -0.080 Cl
ENDBRANCH  21  22
BRANCH  21  26
ATOM     26  N   UNL     1      -2.152  -4.218   4.447  0.00  0.00    -0.293 N 
ATOM     27  C   UNL     1      -2.633  -3.774   5.626  0.00  0.00    +0.229 C 
ATOM     28  O   UNL     1      -2.050  -2.896   6.226  0.00  0.00    -0.274 OA
ATOM     29  H   UNL     1      -2.680  -5.015   3.903  0.00  0.00    +0.151 HD
BRANCH  27  30
ATOM     30  C   UNL     1      -3.893  -4.370   6.197  0.00  0.00    +0.204 C 
ATOM     31 CL   UNL     1      -4.275  -3.574   7.769  0.00  0.00    -0.116 Cl
ENDBRANCH  27  30
ENDBRANCH  21  26
ENDBRANCH  19  21
ENDBRANCH  17  19
ENDBRANCH   1  17
TORSDOF 8
