REMARK  Name = ZINC06086662
REMARK  5 active torsions:
REMARK  status: ('A' for Active; 'I' for Inactive)
REMARK    1  A    between atoms: C_13  and  S_15
REMARK    2  A    between atoms: S_15  and  C_16
REMARK    3  A    between atoms: C_16  and  C_17
REMARK    4  A    between atoms: N_19  and  C_20
REMARK    5  A    between atoms: C_22  and  N_27
REMARK                            x       y       z     vdW  Elec       q    Type
REMARK                         _______ _______ _______ _____ _____    ______ ____
ROOT
ATOM      1  C   UNL     1      -0.002   1.103   0.008  0.00  0.00    +0.173 C 
ENDROOT
BRANCH   1   2
ATOM      2  C   UNL     1      -0.738   1.591  -1.213  0.00  0.00    +0.228 C 
ATOM      3  O   UNL     1      -1.734   2.272  -1.089  0.00  0.00    -0.275 OA
ATOM      4  N   UNL     1      -0.288   1.272  -2.443  0.00  0.00    -0.282 N 
ATOM      5  H   UNL     1       0.543   0.783  -2.544  0.00  0.00    +0.155 HD
BRANCH   4   6
ATOM      6  C   UNL     1      -1.022   1.647  -3.576  0.00  0.00    +0.071 A 
ATOM      7  C   UNL     1      -1.723   2.845  -3.586  0.00  0.00    +0.059 A 
ATOM      8  C   UNL     1      -2.445   3.212  -4.705  0.00  0.00    +0.128 A 
ATOM      9  C   UNL     1      -2.472   2.388  -5.815  0.00  0.00    +0.035 A 
ATOM     10  C   UNL     1      -1.776   1.193  -5.809  0.00  0.00    +0.042 A 
ATOM     11  C   UNL     1      -1.046   0.822  -4.695  0.00  0.00    +0.145 A 
ATOM     12  F   UNL     1      -0.361  -0.343  -4.691  0.00  0.00    -0.204 F 
BRANCH   8  13
ATOM     13  N   UNL     1      -3.192   4.490  -4.715  0.00  0.00    +0.056 N 
ATOM     14  O   UNL     1      -3.169   5.217  -3.739  0.00  0.00    -0.126 OA
ATOM     15  O   UNL     1      -3.829   4.815  -5.701  0.00  0.00    -0.126 OA
ENDBRANCH   8  13
ENDBRANCH   4   6
ENDBRANCH   1   2
BRANCH   1  16
ATOM     16  S   UNL     1      -0.846   1.693   1.497  0.00  0.00    -0.079 S 
BRANCH  16  28
ATOM     17  C   UNL     1       3.630  -1.465   5.350  0.00  0.00    +0.000 A 
ATOM     18  C   UNL     1       3.666  -1.940   4.051  0.00  0.00    +0.002 A 
ATOM     19  C   UNL     1       2.877  -1.368   3.076  0.00  0.00    +0.028 A 
ATOM     20  C   UNL     1       2.033  -0.301   3.398  0.00  0.00    +0.072 A 
ATOM     21  C   UNL     1       2.001   0.164   4.719  0.00  0.00    +0.001 A 
ATOM     22  C   UNL     1       2.795  -0.410   5.682  0.00  0.00    +0.007 A 
ATOM     23  C   UNL     1       1.065   1.299   5.050  0.00  0.00    +0.137 C 
ATOM     24  C   UNL     1       0.357   1.075   6.394  0.00  0.00    +0.078 C 
ATOM     25  C   UNL     1      -1.114   1.136   6.038  0.00  0.00    +0.105 C 
ATOM     26  N   UNL     1      -1.247   1.210   4.773  0.00  0.00    -0.190 NA
ATOM     27  N   UNL     1      -0.048   1.183   4.078  0.00  0.00    -0.194 N 
ATOM     28  C   UNL     1       0.196   0.996   2.735  0.00  0.00    +0.178 C 
ATOM     29  N   UNL     1       1.257   0.270   2.426  0.00  0.00    -0.224 NA
ENDBRANCH  16  28
ENDBRANCH   1  16
TORSDOF 5
