REMARK  Name = ZINC40541245
REMARK  6 active torsions:
REMARK  status: ('A' for Active; 'I' for Inactive)
REMARK    1  A    between atoms: C_1  and  C_2
REMARK    2  A    between atoms: C_2  and  O_3
REMARK    3  A    between atoms: O_3  and  C_4
REMARK    4  A    between atoms: N_6  and  C_7
REMARK    5  A    between atoms: C_14  and  C_16
REMARK    6  A    between atoms: C_16  and  C_17
REMARK                            x       y       z     vdW  Elec       q    Type
REMARK                         _______ _______ _______ _____ _____    ______ ____
ROOT
ATOM      1  C   UNL     1       1.509  -3.748  -2.597  0.00  0.00    +0.093 C 
ATOM      2  C   UNL     1       0.237  -4.285  -3.258  0.00  0.00    +0.025 C 
ATOM      3  C   UNL     1       0.342  -5.804  -3.411  0.00  0.00    +0.021 C 
ATOM      4  C   UNL     1       1.534  -6.141  -4.312  0.00  0.00    +0.108 C 
ATOM      5  N   UNL     1       2.738  -5.506  -3.760  0.00  0.00    -0.300 N 
ATOM      6  C   UNL     1       2.715  -4.062  -3.488  0.00  0.00    +0.130 C 
ATOM      7  C   UNL     1       3.844  -6.234  -3.508  0.00  0.00    +0.216 C 
ATOM      8  O   UNL     1       4.832  -5.698  -3.053  0.00  0.00    -0.276 OA
ENDROOT
BRANCH   1  11
ATOM      9  C   UNL     1       0.776  -1.798  -1.335  0.00  0.00    +0.401 C 
ATOM     10  O   UNL     1       0.312  -2.549  -0.500  0.00  0.00    -0.226 OA
ATOM     11  N   UNL     1       1.395  -2.298  -2.422  0.00  0.00    -0.277 N 
ATOM     12  H   UNL     1       1.765  -1.699  -3.088  0.00  0.00    +0.152 HD
BRANCH   9  13
ATOM     13  O   UNL     1       0.671  -0.465  -1.174  0.00  0.00    -0.451 OA
BRANCH  13  15
ATOM     14  C   UNL     1      -0.019   1.526   0.010  0.00  0.00    +0.048 C 
ATOM     15  C   UNL     1       0.002  -0.004   0.002  0.00  0.00    +0.230 C 
ENDBRANCH  13  15
ENDBRANCH   9  13
ENDBRANCH   1  11
BRANCH   7  16
ATOM     16  C   UNL     1       3.853  -7.714  -3.792  0.00  0.00    +0.099 C 
BRANCH  16  17
ATOM     17  C   UNL     1       5.218  -8.297  -3.420  0.00  0.00    -0.002 C 
ATOM     18  C   UNL     1       6.292  -7.703  -4.332  0.00  0.00    +0.004 C 
ATOM     19  C   UNL     1       7.657  -8.286  -3.960  0.00  0.00    +0.000 C 
ATOM     20  C   UNL     1       7.626  -9.806  -4.130  0.00  0.00    +0.000 C 
ATOM     21  C   UNL     1       6.552 -10.400  -3.217  0.00  0.00    +0.000 C 
ATOM     22  C   UNL     1       5.187  -9.817  -3.590  0.00  0.00    +0.004 C 
ENDBRANCH  16  17
ENDBRANCH   7  16
TORSDOF 5
