REMARK  Name = ZINC10245711
REMARK  9 active torsions:
REMARK  status: ('A' for Active; 'I' for Inactive)
REMARK    1  A    between atoms: C_1  and  C_2
REMARK    2  A    between atoms: C_7  and  N_8
REMARK    3  A    between atoms: C_9  and  C_30
REMARK    4  A    between atoms: C_12  and  S_13
REMARK    5  A    between atoms: S_13  and  C_14
REMARK    6  A    between atoms: C_14  and  C_16
REMARK    7  A    between atoms: C_14  and  C_17
REMARK    8  A    between atoms: N_19  and  C_20
REMARK    9  A    between atoms: C_23  and  N_27
REMARK                            x       y       z     vdW  Elec       q    Type
REMARK                         _______ _______ _______ _____ _____    ______ ____
ROOT
ATOM      1  C   UNL     1      -4.133   0.062  -3.566  0.00  0.00    +0.137 C 
ATOM      2  C   UNL     1      -4.089  -1.439  -3.274  0.00  0.00    +0.029 C 
ENDROOT
BRANCH   1   3
ATOM      3  C   UNL     1      -4.058   0.287  -5.054  0.00  0.00    +0.230 C 
ATOM      4  O   UNL     1      -2.988   0.510  -5.580  0.00  0.00    -0.274 OA
ATOM      5  N   UNL     1      -5.179   0.239  -5.800  0.00  0.00    -0.283 N 
ATOM      6  H   UNL     1      -6.024  -0.003  -5.391  0.00  0.00    +0.155 HD
BRANCH   5   7
ATOM      7  C   UNL     1      -5.123   0.540  -7.166  0.00  0.00    +0.052 A 
ATOM      8  C   UNL     1      -4.003   0.194  -7.910  0.00  0.00    +0.027 A 
ATOM      9  C   UNL     1      -3.951   0.492  -9.258  0.00  0.00    +0.034 A 
ATOM     10  C   UNL     1      -5.013   1.135  -9.867  0.00  0.00    +0.128 A 
ATOM     11  C   UNL     1      -6.130   1.481  -9.130  0.00  0.00    +0.054 A 
ATOM     12  C   UNL     1      -6.191   1.181  -7.782  0.00  0.00    +0.064 A 
ATOM     13 CL   UNL     1      -7.598   1.609  -6.859  0.00  0.00    -0.082 Cl
BRANCH  10  14
ATOM     14  N   UNL     1      -4.953   1.453 -11.312  0.00  0.00    +0.056 N 
ATOM     15  O   UNL     1      -3.970   1.149 -11.962  0.00  0.00    -0.126 OA
ATOM     16  O   UNL     1      -5.888   2.019 -11.850  0.00  0.00    -0.126 OA
ENDBRANCH  10  14
ENDBRANCH   5   7
ENDBRANCH   1   3
BRANCH   1  17
ATOM     17  S   UNL     1      -2.731   0.875  -2.760  0.00  0.00    -0.073 S 
BRANCH  17  22
ATOM     18  N   UNL     1      -2.421   0.992   0.021  0.00  0.00    -0.274 N 
ATOM     19  C   UNL     1      -3.126   0.555   1.110  0.00  0.00    +0.135 A 
ATOM     20  N   UNL     1      -4.183  -0.064   0.665  0.00  0.00    -0.133 NA
ATOM     21  N   UNL     1      -4.196  -0.049  -0.620  0.00  0.00    -0.122 NA
ATOM     22  C   UNL     1      -3.142   0.591  -1.071  0.00  0.00    +0.197 A 
ATOM     23  C   UNL     1      -2.750   0.754   2.556  0.00  0.00    +0.088 C 
BRANCH  18  30
ATOM     24  C   UNL     1      -2.541   3.835   0.071  0.00  0.00    +0.046 C 
ATOM     25  C   UNL     1      -1.228   3.095   0.047  0.00  0.00    -0.027 A 
ATOM     26  C   UNL     1      -0.039   3.797   0.043  0.00  0.00    +0.005 A 
ATOM     27  C   UNL     1       1.166   3.118   0.021  0.00  0.00    +0.000 A 
ATOM     28  C   UNL     1       1.183   1.735   0.003  0.00  0.00    +0.002 A 
ATOM     29  C   UNL     1      -0.003   1.028   0.006  0.00  0.00    +0.026 A 
ATOM     30  C   UNL     1      -1.214   1.707   0.023  0.00  0.00    +0.053 A 
ENDBRANCH  18  30
ENDBRANCH  17  22
ENDBRANCH   1  17
TORSDOF 6
