REMARK  Name = ZINC28161708
REMARK  10 active torsions:
REMARK  status: ('A' for Active; 'I' for Inactive)
REMARK    1  A    between atoms: CB_1  and  CA_2
REMARK    2  A    between atoms: CA_2  and  C_4
REMARK    3  A    between atoms: CA_2  and  N_7
REMARK    4  A    between atoms: C_8  and  C_10
REMARK    5  A    between atoms: C_10  and  C_11
REMARK    6  A    between atoms: C_19  and  C_29
REMARK    7  A    between atoms: C_22  and  C_24
REMARK    8  A    between atoms: C_32  and  C_35
REMARK    9  A    between atoms: C_35  and  C_36
REMARK   10  A    between atoms: C_35  and  C_37
REMARK                            x       y       z     vdW  Elec       q    Type
REMARK                         _______ _______ _______ _____ _____    ______ ____
ROOT
ATOM      1  C   UNK A   0       4.245  -1.105  -2.204  0.00  0.00    +0.150 C 
ATOM      2  C   UNK A   0       5.003  -1.608  -3.427  0.00  0.00    +0.252 C 
ATOM      3  O   UNK A   0       4.845  -2.728  -3.874  0.00  0.00    -0.272 OA
ATOM      4  N   UNK A   0       5.831  -0.754  -3.961  0.00  0.00    -0.157 NA
ATOM      5  C   UNK A   0       6.035   0.477  -3.509  0.00  0.00    +0.170 C 
ATOM      6  S   UNK A   0       4.946   0.595  -2.094  0.00  0.00    -0.078 S 
ATOM      7  N   UNK A   0       6.878   1.428  -4.005  0.00  0.00    -0.195 N 
ATOM      8  C   UNK A   0       7.749   1.270  -5.181  0.00  0.00    +0.136 C 
ATOM      9  C   UNK A   0       8.467   2.630  -5.285  0.00  0.00    +0.087 C 
ATOM     10  C   UNK A   0       7.910   3.427  -4.127  0.00  0.00    +0.075 C 
ATOM     11  N   UNK A   0       7.050   2.709  -3.484  0.00  0.00    -0.181 NA
ENDROOT
BRANCH   8  12
ATOM     12  C   UNK A   0       8.741   0.158  -4.960  0.00  0.00    -0.025 A 
ATOM     13  C   UNK A   0       9.314  -0.020  -3.715  0.00  0.00    +0.006 A 
ATOM     14  C   UNK A   0      10.225  -1.041  -3.513  0.00  0.00    +0.004 A 
ATOM     15  C   UNK A   0      10.561  -1.884  -4.555  0.00  0.00    -0.045 A 
ATOM     16  C   UNK A   0       9.987  -1.706  -5.800  0.00  0.00    +0.004 A 
ATOM     17  C   UNK A   0       9.074  -0.688  -6.001  0.00  0.00    +0.006 A 
BRANCH  15  18
ATOM     18  C   UNK A   0      11.554  -2.995  -4.335  0.00  0.00    +0.013 C 
ATOM     19  C   UNK A   0      10.887  -4.341  -4.629  0.00  0.00    +0.012 C 
ATOM     20  C   UNK A   0      12.750  -2.804  -5.270  0.00  0.00    +0.012 C 
ENDBRANCH  15  18
ENDBRANCH   8  12
BRANCH  10  21
ATOM     21  C   UNK A   0       8.283   4.804  -3.790  0.00  0.00    +0.035 A 
ATOM     22  C   UNK A   0       7.831   5.602  -2.753  0.00  0.00    +0.017 A 
ATOM     23  C   UNK A   0       8.336   6.877  -2.642  0.00  0.00    +0.008 A 
ATOM     24  C   UNK A   0       9.255   7.310  -3.544  0.00  0.00    +0.046 A 
ATOM     25  S   UNK A   0       9.445   5.887  -4.606  0.00  0.00    -0.095 S 
ENDBRANCH  10  21
BRANCH   1  26
ATOM     26  C   UNK A   0       2.736  -1.073  -2.455  0.00  0.00    +0.119 C 
BRANCH  26  28
ATOM     27  N   ALA A   1       0.688  -0.476  -1.203  0.00  0.00    -0.302 N 
ATOM     28  C   UNK A   0       2.031  -0.587  -1.215  0.00  0.00    +0.215 C 
ATOM     29  O   UNK A   0       2.672  -0.295  -0.228  0.00  0.00    -0.276 OA
ATOM     30  H   ALA A   1       0.175  -0.710  -1.993  0.00  0.00    +0.150 HD
BRANCH  27  32
ATOM     31  CB  ALA A   1      -0.019   1.526   0.010  0.00  0.00    +0.040 C 
ATOM     32  CA  ALA A   1       0.002  -0.004   0.002  0.00  0.00    +0.183 C 
BRANCH  32  33
ATOM     33  C   ALA A   1      -1.412  -0.526   0.013  0.00  0.00    +0.376 C 
ATOM     34  O   ALA A   1      -1.868  -1.070  -0.978  0.00  0.00    -0.244 OA
ATOM     35  OXT ALA A   1      -2.099  -0.403   1.012  0.00  0.00    -0.244 OA
ENDBRANCH  32  33
ENDBRANCH  27  32
ENDBRANCH  26  28
ENDBRANCH   1  26
TORSDOF 7
