REMARK  Name = ZINC64713955
REMARK  7 active torsions:
REMARK  status: ('A' for Active; 'I' for Inactive)
REMARK    1  A    between atoms: C_1  and  C_2
REMARK    2  A    between atoms: C_2  and  C_3
REMARK    3  A    between atoms: C_6  and  C_9
REMARK    4  A    between atoms: C_17  and  S_21
REMARK    5  A    between atoms: S_21  and  C_22
REMARK    6  A    between atoms: C_22  and  C_23
REMARK    7  A    between atoms: C_25  and  C_28
REMARK                            x       y       z     vdW  Elec       q    Type
REMARK                         _______ _______ _______ _____ _____    ______ ____
ROOT
ATOM      1  C   UNL     1       2.697  -1.860  -4.735  0.00  0.00    +0.047 C 
ATOM      2  C   UNL     1       4.023  -2.112  -4.832  0.00  0.00    +0.027 C 
ATOM      3  C   UNL     1       4.214  -2.548  -6.259  0.00  0.00    +0.193 C 
ATOM      4  C   UNL     1       5.154  -3.692  -6.489  0.00  0.00    +0.276 C 
ATOM      5  O   UNL     1       6.110  -3.885  -5.776  0.00  0.00    -0.270 OA
ATOM      6  N   UNL     1       4.870  -4.500  -7.543  0.00  0.00    -0.081 NA
ATOM      7  N   UNL     1       3.847  -4.403  -8.224  0.00  0.00    -0.163 NA
ATOM      8  C   UNL     1       2.783  -3.420  -7.954  0.00  0.00    +0.272 C 
ATOM      9  N   UNL     1       2.843  -3.079  -6.552  0.00  0.00    -0.178 NA
ATOM     10  N   UNL     1       2.075  -2.130  -5.977  0.00  0.00    -0.274 N 
ATOM     11  H   UNL     1       1.272  -1.721  -6.339  0.00  0.00    +0.167 HD
ENDROOT
BRANCH   1  15
ATOM     12  C   UNL     1       0.707  -0.490  -1.238  0.00  0.00    -0.048 A 
ATOM     13  C   UNL     1      -0.014  -0.718  -2.396  0.00  0.00    +0.004 A 
ATOM     14  C   UNL     1       0.627  -1.162  -3.535  0.00  0.00    +0.010 A 
ATOM     15  C   UNL     1       2.004  -1.382  -3.516  0.00  0.00    -0.003 A 
ATOM     16  C   UNL     1       2.725  -1.151  -2.345  0.00  0.00    +0.010 A 
ATOM     17  C   UNL     1       2.074  -0.701  -1.215  0.00  0.00    +0.004 A 
BRANCH  12  19
ATOM     18  C   UNL     1      -0.019   1.526   0.010  0.00  0.00    +0.009 C 
ATOM     19  C   UNL     1       0.002  -0.004   0.002  0.00  0.00    +0.032 C 
ENDBRANCH  12  19
ENDBRANCH   1  15
BRANCH   8  20
ATOM     20  S   UNL     1       1.164  -4.136  -8.352  0.00  0.00    -0.106 S 
BRANCH  20  21
ATOM     21  C   UNL     1       1.044  -5.582  -7.262  0.00  0.00    +0.171 C 
BRANCH  21  22
ATOM     22  C   UNL     1      -0.272  -6.277  -7.495  0.00  0.00    +0.238 A 
ATOM     23  N   UNL     1      -0.487  -7.232  -8.354  0.00  0.00    -0.191 NA
ATOM     24  C   UNL     1      -1.773  -7.622  -8.297  0.00  0.00    +0.202 A 
ATOM     25  N   UNL     1      -2.388  -6.907  -7.388  0.00  0.00    -0.056 NA
ATOM     26  O   UNL     1      -1.417  -6.023  -6.848  0.00  0.00    -0.337 OA
BRANCH  24  27
ATOM     27  C   UNL     1      -2.393  -8.686  -9.126  0.00  0.00    +0.022 A 
ATOM     28  C   UNL     1      -1.626  -9.381 -10.059  0.00  0.00    +0.012 A 
ATOM     29  C   UNL     1      -2.208 -10.369 -10.828  0.00  0.00    +0.001 A 
ATOM     30  C   UNL     1      -3.549 -10.669 -10.674  0.00  0.00    +0.000 A 
ATOM     31  C   UNL     1      -4.314  -9.983  -9.748  0.00  0.00    +0.001 A 
ATOM     32  C   UNL     1      -3.742  -8.997  -8.970  0.00  0.00    +0.012 A 
ENDBRANCH  24  27
ENDBRANCH  21  22
ENDBRANCH  20  21
ENDBRANCH   8  20
TORSDOF 6
