REMARK  Name = ZINC07821195
REMARK  9 active torsions:
REMARK  status: ('A' for Active; 'I' for Inactive)
REMARK    1  A    between atoms: C_1  and  C_2
REMARK    2  A    between atoms: C_5  and  C_25
REMARK    3  A    between atoms: C_6  and  N_8
REMARK    4  A    between atoms: C_9  and  C_11
REMARK    5  A    between atoms: C_11  and  C_13
REMARK    6  A    between atoms: C_11  and  O_14
REMARK    7  A    between atoms: O_14  and  C_15
REMARK    8  A    between atoms: C_18  and  C_24
REMARK    9  A    between atoms: C_20  and  N_21
REMARK                            x       y       z     vdW  Elec       q    Type
REMARK                         _______ _______ _______ _____ _____    ______ ____
ROOT
ATOM      1  C   UNL     1       0.156   0.106  -4.872  0.00  0.00    +0.256 C 
ATOM      2  C   UNL     1      -1.136   0.894  -5.097  0.00  0.00    +0.062 C 
ENDROOT
BRANCH   1   4
ATOM      3  N   UNL     1      -0.033  -0.009  -2.408  0.00  0.00    -0.282 N 
ATOM      4  C   UNL     1       0.055  -0.666  -3.582  0.00  0.00    +0.258 C 
ATOM      5  O   UNL     1       0.053  -1.879  -3.599  0.00  0.00    -0.271 OA
ATOM      6  H   UNL     1      -0.116   0.958  -2.399  0.00  0.00    +0.155 HD
BRANCH   3  12
ATOM      7  C   UNL     1       1.281  -4.024   0.105  0.00  0.00    +0.044 C 
ATOM      8  C   UNL     1       0.625  -2.669   0.043  0.00  0.00    -0.049 A 
ATOM      9  C   UNL     1       0.044  -2.130   1.177  0.00  0.00    +0.004 A 
ATOM     10  C   UNL     1      -0.559  -0.887   1.123  0.00  0.00    +0.005 A 
ATOM     11  C   UNL     1      -0.583  -0.179  -0.063  0.00  0.00    -0.029 A 
ATOM     12  C   UNL     1      -0.005  -0.720  -1.204  0.00  0.00    +0.037 A 
ATOM     13  C   UNL     1       0.605  -1.966  -1.146  0.00  0.00    +0.027 A 
ATOM     14  C   UNL     1      -1.242   1.175  -0.120  0.00  0.00    +0.045 C 
ENDBRANCH   3  12
ENDBRANCH   1   4
BRANCH   1  15
ATOM     15  O   UNL     1       0.355  -0.804  -5.957  0.00  0.00    -0.478 OA
BRANCH  15  16
ATOM     16  C   UNL     1       1.140  -0.379  -6.982  0.00  0.00    +0.152 A 
ATOM     17  C   UNL     1       1.613   0.925  -7.001  0.00  0.00    +0.048 A 
ATOM     18  C   UNL     1       2.414   1.352  -8.042  0.00  0.00    +0.007 A 
ATOM     19  C   UNL     1       2.736   0.484  -9.069  0.00  0.00    -0.048 A 
ATOM     20  C   UNL     1       2.262  -0.814  -9.055  0.00  0.00    +0.039 A 
ATOM     21  C   UNL     1       1.464  -1.248  -8.013  0.00  0.00    +0.168 A 
ATOM     22  C   UNL     1       3.606   0.955 -10.206  0.00  0.00    +0.044 C 
BRANCH  21  23
ATOM     23  N   UNL     1       0.957  -2.638  -7.998  0.00  0.00    +0.060 N 
ATOM     24  O   UNL     1       1.242  -3.400  -8.905  0.00  0.00    -0.126 OA
ATOM     25  O   UNL     1       0.254  -3.020  -7.080  0.00  0.00    -0.126 OA
ENDBRANCH  21  23
ENDBRANCH  15  16
ENDBRANCH   1  15
TORSDOF 5
