REMARK  Name = ZINC09044288
REMARK  7 active torsions:
REMARK  status: ('A' for Active; 'I' for Inactive)
REMARK    1  A    between atoms: C_1  and  O_2
REMARK    2  A    between atoms: O_2  and  C_3
REMARK    3  A    between atoms: C_3  and  C_5
REMARK    4  A    between atoms: C_6  and  C_15
REMARK    5  A    between atoms: N_22  and  C_25
REMARK    6  A    between atoms: C_25  and  C_26
REMARK    7  A    between atoms: C_26  and  C_27
REMARK                            x       y       z     vdW  Elec       q    Type
REMARK                         _______ _______ _______ _____ _____    ______ ____
ROOT
ATOM      1  C   UNL     1       1.903  -2.297  -3.296  0.00  0.00    +0.029 C 
ATOM      2  C   UNL     1       1.239  -1.412  -4.132  0.00  0.00    +0.102 C 
ATOM      3  C   UNL     1      -0.098  -0.894  -3.798  0.00  0.00    +0.276 C 
ATOM      4  O   UNL     1      -0.720  -1.269  -2.661  0.00  0.00    -0.268 OA
ATOM      5  N   UNL     1      -0.676  -0.054  -4.639  0.00  0.00    -0.123 NA
ATOM      6  C   UNL     1      -0.087   0.334  -5.768  0.00  0.00    +0.335 C 
ATOM      7  O   UNL     1      -0.684   1.112  -6.491  0.00  0.00    -0.250 OA
ATOM      8  N   UNL     1       1.128  -0.084  -6.154  0.00  0.00    -0.220 N 
ATOM      9  C   UNL     1       1.844  -0.941  -5.394  0.00  0.00    +0.259 C 
ATOM     10  O   UNL     1       2.948  -1.316  -5.741  0.00  0.00    -0.269 OA
ENDROOT
BRANCH   1  12
ATOM     11  C   UNL     1       1.595  -2.705  -0.834  0.00  0.00    +0.133 A 
ATOM     12  C   UNL     1       1.236  -2.846  -2.175  0.00  0.00    +0.015 A 
ATOM     13  C   UNL     1       0.024  -3.682  -2.187  0.00  0.00    +0.008 A 
ATOM     14  C   UNL     1      -0.800  -4.169  -3.200  0.00  0.00    +0.010 A 
ATOM     15  C   UNL     1      -1.882  -4.941  -2.883  0.00  0.00    +0.001 A 
ATOM     16  C   UNL     1      -2.167  -5.243  -1.558  0.00  0.00    +0.002 A 
ATOM     17  C   UNL     1      -1.367  -4.772  -0.542  0.00  0.00    +0.026 A 
ATOM     18  C   UNL     1      -0.257  -3.983  -0.843  0.00  0.00    +0.048 A 
ATOM     19  N   UNL     1       0.705  -3.388  -0.061  0.00  0.00    -0.349 N 
ATOM     20  H   UNL     1       0.743  -3.445   0.907  0.00  0.00    +0.166 HD
BRANCH  11  21
ATOM     21  C   UNL     1       2.755  -1.944  -0.334  0.00  0.00    +0.356 C 
ATOM     22  O   UNL     1       3.488  -1.370  -1.115  0.00  0.00    -0.243 OA
BRANCH  21  24
ATOM     23  C   UNL     1       4.144  -1.130   1.403  0.00  0.00    +0.280 C 
ATOM     24  O   UNL     1       3.003  -1.885   0.989  0.00  0.00    -0.463 OA
ENDBRANCH  21  24
ENDBRANCH  11  21
ENDBRANCH   1  12
BRANCH   8  25
ATOM     25  C   UNL     1       1.690   0.402  -7.416  0.00  0.00    +0.122 C 
BRANCH  25  26
ATOM     26  C   UNL     1       2.488   1.681  -7.160  0.00  0.00    +0.050 C 
BRANCH  26  27
ATOM     27  C   UNL     1       3.066   2.181  -8.459  0.00  0.00    -0.072 C 
ATOM     28  C   UNL     1       2.405   3.084  -9.109  0.00  0.00    -0.028 C 
ATOM     29  C   UNL     1       2.848   3.670 -10.418  0.00  0.00    +0.027 C 
ATOM     30  C   UNL     1       4.333   3.385 -10.648  0.00  0.00    +0.004 C 
ATOM     31  C   UNL     1       4.585   1.892 -10.405  0.00  0.00    +0.005 C 
ATOM     32  C   UNL     1       4.375   1.606  -8.914  0.00  0.00    +0.030 C 
ENDBRANCH  26  27
ENDBRANCH  25  26
ENDBRANCH   8  25
TORSDOF 6
