REMARK  Name = ZINC13279091
REMARK  10 active torsions:
REMARK  status: ('A' for Active; 'I' for Inactive)
REMARK    1  A    between atoms: C_4  and  C_7
REMARK    2  A    between atoms: C_7  and  C_8
REMARK    3  A    between atoms: C_8  and  C_9
REMARK    4  A    between atoms: C_9  and  C_10
REMARK    5  A    between atoms: C_10  and  N_11
REMARK    6  A    between atoms: N_11  and  C_12
REMARK    7  A    between atoms: C_15  and  S_21
REMARK    8  A    between atoms: C_17  and  N_18
REMARK    9  A    between atoms: S_21  and  N_24
REMARK   10  A    between atoms: C_27  and  C_30
REMARK                            x       y       z     vdW  Elec       q    Type
REMARK                         _______ _______ _______ _____ _____    ______ ____
ROOT
ATOM      1  C   UNL     1       0.362  -4.780   4.070  0.00  0.00    +0.058 A 
ATOM      2  C   UNL     1       0.468  -4.095   5.274  0.00  0.00    +0.027 A 
ATOM      3  C   UNL     1       0.233  -4.754   6.465  0.00  0.00    +0.030 A 
ATOM      4  C   UNL     1      -0.109  -6.094   6.459  0.00  0.00    +0.108 A 
ATOM      5  C   UNL     1      -0.215  -6.779   5.263  0.00  0.00    +0.063 A 
ATOM      6  C   UNL     1       0.013  -6.125   4.068  0.00  0.00    +0.149 A 
ENDROOT
BRANCH   6   7
ATOM      7  N   UNL     1      -0.107  -6.857   2.788  0.00  0.00    +0.058 N 
ATOM      8  O   UNL     1      -0.577  -6.303   1.811  0.00  0.00    -0.126 OA
ATOM      9  O   UNL     1       0.265  -8.015   2.711  0.00  0.00    -0.126 OA
ENDBRANCH   6   7
BRANCH   4  10
ATOM     10  S   UNL     1      -0.408  -6.931   7.981  0.00  0.00    +0.061 S 
ATOM     11  O   UNL     1      -0.177  -8.311   7.737  0.00  0.00    -0.153 OA
ATOM     12  O   UNL     1       0.289  -6.207   8.986  0.00  0.00    -0.153 OA
BRANCH  10  13
ATOM     13  N   UNL     1      -2.022  -6.773   8.317  0.00  0.00    -0.177 NA
ATOM     14  C   UNL     1      -2.514  -5.637   9.108  0.00  0.00    +0.110 C 
ATOM     15  C   UNL     1      -3.339  -6.167  10.280  0.00  0.00    +0.032 C 
ATOM     16  C   UNL     1      -4.440  -7.089   9.751  0.00  0.00    +0.105 C 
ATOM     17  C   UNL     1      -3.806  -8.279   9.026  0.00  0.00    +0.032 C 
ATOM     18  C   UNL     1      -2.987  -7.770   7.836  0.00  0.00    +0.110 C 
BRANCH  16  19
ATOM     19  C   UNL     1      -5.274  -7.588  10.902  0.00  0.00    +0.359 C 
ATOM     20  O   UNL     1      -5.353  -8.774  11.121  0.00  0.00    -0.246 OA
ATOM     21  O   UNL     1      -5.928  -6.715  11.685  0.00  0.00    -0.246 OA
ENDBRANCH  16  19
ENDBRANCH  10  13
ENDBRANCH   4  10
BRANCH   1  22
ATOM     22  N   UNL     1       0.599  -4.117   2.864  0.00  0.00    -0.342 N 
ATOM     23  H   UNL     1       0.609  -4.614   2.031  0.00  0.00    +0.146 HD
BRANCH  22  24
ATOM     24  C   UNL     1       0.834  -2.671   2.857  0.00  0.00    +0.101 C 
BRANCH  24  25
ATOM     25  C   UNL     1       1.066  -2.199   1.420  0.00  0.00    +0.019 C 
BRANCH  25  26
ATOM     26  C   UNL     1       1.311  -0.689   1.413  0.00  0.00    +0.006 C 
BRANCH  26  27
ATOM     27  C   UNL     1       1.543  -0.217  -0.024  0.00  0.00    +0.035 C 
BRANCH  27  31
ATOM     28  C   UNL     1       2.227   4.000  -0.045  0.00  0.00    +0.000 A 
ATOM     29  C   UNL     1       3.291   3.127   0.085  0.00  0.00    +0.000 A 
ATOM     30  C   UNL     1       3.070   1.763   0.092  0.00  0.00    +0.003 A 
ATOM     31  C   UNL     1       1.784   1.271  -0.031  0.00  0.00    -0.047 A 
ATOM     32  C   UNL     1       0.720   2.143  -0.167  0.00  0.00    +0.003 A 
ATOM     33  C   UNL     1       0.941   3.508  -0.169  0.00  0.00    +0.000 A 
ENDBRANCH  27  31
ENDBRANCH  26  27
ENDBRANCH  25  26
ENDBRANCH  24  25
ENDBRANCH  22  24
ENDBRANCH   1  22
TORSDOF 10
