REMARK  Name = ZINC65405215
REMARK  7 active torsions:
REMARK  status: ('A' for Active; 'I' for Inactive)
REMARK    1  A    between atoms: C_2  and  C_3
REMARK    2  A    between atoms: C_3  and  O_4
REMARK    3  A    between atoms: O_4  and  C_5
REMARK    4  A    between atoms: C_8  and  C_11
REMARK    5  A    between atoms: N_14  and  C_16
REMARK    6  A    between atoms: C_16  and  C_17
REMARK    7  A    between atoms: C_20  and  C_23
REMARK                            x       y       z     vdW  Elec       q    Type
REMARK                         _______ _______ _______ _____ _____    ______ ____
ROOT
ATOM      1  C   UNL     1       5.884  -4.982   1.391  0.00  0.00    +0.205 A 
ATOM      2  N   UNL     1       7.029  -4.835   0.709  0.00  0.00    -0.108 NA
ATOM      3  N   UNL     1       7.833  -5.762   1.107  0.00  0.00    -0.045 NA
ATOM      4  N   UNL     1       7.241  -6.474   2.001  0.00  0.00    -0.155 N 
ATOM      5  N   UNL     1       6.053  -6.014   2.195  0.00  0.00    -0.130 NA
ENDROOT
BRANCH   1   9
ATOM      6  C   UNL     1       2.392  -2.577   1.044  0.00  0.00    +0.121 A 
ATOM      7  C   UNL     1       3.504  -2.301   0.260  0.00  0.00    +0.046 A 
ATOM      8  C   UNL     1       4.637  -3.079   0.370  0.00  0.00    +0.015 A 
ATOM      9  C   UNL     1       4.666  -4.143   1.270  0.00  0.00    +0.023 A 
ATOM     10  C   UNL     1       3.548  -4.417   2.056  0.00  0.00    +0.015 A 
ATOM     11  C   UNL     1       2.420  -3.632   1.946  0.00  0.00    +0.046 A 
BRANCH   6  12
ATOM     12  O   UNL     1       1.277  -1.809   0.933  0.00  0.00    -0.488 OA
BRANCH  12  13
ATOM     13  C   UNL     1       1.317  -0.740  -0.015  0.00  0.00    +0.256 C 
BRANCH  13  15
ATOM     14  C   UNL     1      -0.016   1.306   0.009  0.00  0.00    +0.007 C 
ATOM     15  C   UNL     1       0.002  -0.004   0.002  0.00  0.00    +0.006 C 
ENDBRANCH  13  15
ENDBRANCH  12  13
ENDBRANCH   6  12
ENDBRANCH   1   9
BRANCH   4  16
ATOM     16  C   UNL     1       7.828  -7.623   2.694  0.00  0.00    +0.243 C 
BRANCH  16  17
ATOM     17  C   UNL     1       8.522  -7.154   3.947  0.00  0.00    +0.149 A 
ATOM     18  H   UNL     1       7.647  -8.283   5.454  0.00  0.00    +0.190 HD
ATOM     19  N   UNL     1       9.451  -6.237   4.009  0.00  0.00    -0.210 NA
ATOM     20  C   UNL     1       9.842  -6.073   5.280  0.00  0.00    +0.181 A 
ATOM     21  N   UNL     1       9.155  -6.896   6.042  0.00  0.00    -0.152 NA
ATOM     22  N   UNL     1       8.288  -7.603   5.193  0.00  0.00    -0.261 N 
BRANCH  20  23
ATOM     23  C   UNL     1      10.879  -5.121   5.750  0.00  0.00    +0.021 A 
ATOM     24  C   UNL     1      11.535  -4.296   4.839  0.00  0.00    +0.011 A 
ATOM     25  C   UNL     1      12.498  -3.412   5.282  0.00  0.00    +0.001 A 
ATOM     26  C   UNL     1      12.813  -3.345   6.627  0.00  0.00    +0.000 A 
ATOM     27  C   UNL     1      12.165  -4.162   7.535  0.00  0.00    +0.001 A 
ATOM     28  C   UNL     1      11.196  -5.046   7.104  0.00  0.00    +0.011 A 
ENDBRANCH  20  23
ENDBRANCH  16  17
ENDBRANCH   4  16
TORSDOF 7
