REMARK  Name = ZINC05362177
REMARK  7 active torsions:
REMARK  status: ('A' for Active; 'I' for Inactive)
REMARK    1  A    between atoms: C_3  and  N_23
REMARK    2  A    between atoms: C_4  and  N_20
REMARK    3  A    between atoms: C_6  and  C_7
REMARK    4  A    between atoms: C_7  and  O_9
REMARK    5  A    between atoms: O_9  and  C_10
REMARK    6  A    between atoms: C_10  and  C_11
REMARK    7  A    between atoms: N_23  and  C_24
REMARK                            x       y       z     vdW  Elec       q    Type
REMARK                         _______ _______ _______ _____ _____    ______ ____
ROOT
ATOM      1  C   UNL     1      -0.083   1.266   0.023  0.00  0.00    +0.017 A 
ATOM      2  C   UNL     1       1.025   2.082  -0.012  0.00  0.00    +0.026 A 
ATOM      3  C   UNL     1       2.300   1.522  -0.042  0.00  0.00    +0.058 A 
ATOM      4  C   UNL     1       2.456   0.139  -0.037  0.00  0.00    +0.148 A 
ATOM      5  C   UNL     1       1.361  -0.677  -0.002  0.00  0.00    +0.049 A 
ATOM      6  C   UNL     1       0.077  -0.124   0.029  0.00  0.00    +0.061 A 
ENDROOT
BRANCH   4   7
ATOM      7  N   UNL     1       3.814  -0.450  -0.069  0.00  0.00    +0.058 N 
ATOM      8  O   UNL     1       3.952  -1.647  -0.177  0.00  0.00    -0.126 OA
ATOM      9  O   UNL     1       4.785   0.265   0.013  0.00  0.00    -0.126 OA
ENDBRANCH   4   7
BRANCH   6  10
ATOM     10  C   UNL     1      -1.105  -1.003   0.067  0.00  0.00    +0.340 C 
ATOM     11  O   UNL     1      -0.965  -2.210   0.072  0.00  0.00    -0.245 OA
BRANCH  10  12
ATOM     12  O   UNL     1      -2.342  -0.469   0.096  0.00  0.00    -0.452 OA
BRANCH  12  13
ATOM     13  C   UNL     1      -3.442  -1.380   0.132  0.00  0.00    +0.328 C 
BRANCH  13  14
ATOM     14  C   UNL     1      -4.735  -0.606   0.161  0.00  0.00    +0.253 C 
ATOM     15  O   UNL     1      -4.716   0.606   0.152  0.00  0.00    -0.272 OA
ATOM     16  N   UNL     1      -5.912  -1.262   0.198  0.00  0.00    -0.299 N 
ATOM     17  C   UNL     1      -5.900  -2.708   0.214  0.00  0.00    +0.108 C 
ATOM     18  C   UNL     1      -5.913  -3.243  -1.239  0.00  0.00    +0.019 C 
ATOM     19  C   UNL     1      -7.228  -3.015  -1.856  0.00  0.00    +0.002 C 
ATOM     20  C   UNL     1      -7.612  -1.545  -1.992  0.00  0.00    +0.002 C 
ATOM     21  C   UNL     1      -8.238  -1.070  -0.704  0.00  0.00    +0.019 C 
ATOM     22  C   UNL     1      -7.160  -0.474   0.226  0.00  0.00    +0.108 C 
ENDBRANCH  13  14
ENDBRANCH  12  13
ENDBRANCH  10  12
ENDBRANCH   6  10
BRANCH   3  23
ATOM     23  N   UNL     1       3.418   2.346  -0.077  0.00  0.00    -0.339 N 
ATOM     24  H   UNL     1       4.307   1.962  -0.015  0.00  0.00    +0.146 HD
BRANCH  23  25
ATOM     25  C   UNL     1       3.256   3.796  -0.210  0.00  0.00    +0.071 C 
ATOM     26  C   UNL     1       4.101   4.508  -1.267  0.00  0.00    +0.024 C 
ATOM     27  C   UNL     1       4.429   4.681   0.217  0.00  0.00    +0.024 C 
ENDBRANCH  23  25
ENDBRANCH   3  23
TORSDOF 7
