REMARK  Name = ZINC64058553
REMARK  5 active torsions:
REMARK  status: ('A' for Active; 'I' for Inactive)
REMARK    1  A    between atoms: C_7  and  C_10
REMARK    2  A    between atoms: C_10  and  N_11
REMARK    3  A    between atoms: C_14  and  N_17
REMARK    4  A    between atoms: C_21  and  C_24
REMARK    5  A    between atoms: N_26  and  C_27
REMARK                            x       y       z     vdW  Elec       q    Type
REMARK                         _______ _______ _______ _____ _____    ______ ____
ROOT
ATOM      1  N   UNL     1       0.371  -3.559  -1.408  0.00  0.00    -0.298 NA
ATOM      2  C   UNL     1       1.532  -4.168  -2.070  0.00  0.00    +0.083 C 
ATOM      3  C   UNL     1       1.211  -4.411  -3.546  0.00  0.00    +0.000 C 
ATOM      4  C   UNL     1      -0.005  -5.335  -3.654  0.00  0.00    -0.066 C 
ATOM      5  C   UNL     1      -1.186  -4.700  -2.916  0.00  0.00    +0.000 C 
ATOM      6  C   UNL     1      -0.795  -4.450  -1.458  0.00  0.00    +0.083 C 
ENDROOT
BRANCH   4   7
ATOM      7  N   UNL     1      -0.354  -5.525  -5.068  0.00  0.00    +0.382 N 
ATOM      8  C   UNL     1       0.786  -6.119  -5.777  0.00  0.00    -0.078 C 
ATOM      9  C   UNL     1       0.457  -6.243  -7.266  0.00  0.00    -0.018 C 
ATOM     10  C   UNL     1      -0.774  -7.137  -7.438  0.00  0.00    +0.009 C 
ATOM     11  C   UNL     1      -1.937  -6.547  -6.634  0.00  0.00    +0.058 C 
ATOM     12  C   UNL     1      -1.519  -6.412  -5.168  0.00  0.00    -0.066 C 
ATOM     13  H   UNL     1      -0.576  -4.631  -5.481  0.00  0.00    -0.081 HD
BRANCH  11  14
ATOM     14  C   UNL     1      -3.132  -7.460  -6.735  0.00  0.00    +0.215 C 
ATOM     15  O   UNL     1      -3.607  -7.950  -5.733  0.00  0.00    -0.276 OA
ATOM     16  N   UNL     1      -3.674  -7.730  -7.939  0.00  0.00    -0.312 N 
ATOM     17  H   UNL     1      -3.294  -7.337  -8.741  0.00  0.00    +0.149 HD
BRANCH  16  18
ATOM     18  C   UNL     1      -4.836  -8.617  -8.038  0.00  0.00    +0.073 C 
ATOM     19  C   UNL     1      -4.832  -9.665  -9.152  0.00  0.00    +0.024 C 
ATOM     20  C   UNL     1      -5.753  -8.448  -9.251  0.00  0.00    +0.024 C 
ENDBRANCH  16  18
ENDBRANCH  11  14
ENDBRANCH   4   7
BRANCH   1  21
ATOM     21  C   UNL     1       0.691  -3.186  -0.024  0.00  0.00    +0.117 C 
BRANCH  21  28
ATOM     22  C   UNL     1       5.255  -2.806   0.260  0.00  0.00    +0.001 A 
ATOM     23  C   UNL     1       5.712  -1.482   0.221  0.00  0.00    +0.002 A 
ATOM     24  C   UNL     1       4.879  -0.426   0.110  0.00  0.00    +0.026 A 
ATOM     25  C   UNL     1       3.473  -0.625   0.027  0.00  0.00    +0.043 A 
ATOM     26  N   UNL     1       2.477   0.220  -0.084  0.00  0.00    -0.380 N 
ATOM     27  C   UNL     1       1.222  -0.539  -0.127  0.00  0.00    +0.146 C 
ATOM     28  C   UNL     1       1.615  -1.996  -0.025  0.00  0.00    -0.028 C 
ATOM     29  C   UNL     1       2.965  -2.014   0.065  0.00  0.00    +0.000 A 
ATOM     30  C   UNL     1       3.938  -3.106   0.187  0.00  0.00    +0.010 A 
ATOM     31  H   UNL     1       2.556   1.186  -0.128  0.00  0.00    +0.160 HD
ENDBRANCH  21  28
ENDBRANCH   1  21
TORSDOF 5
