REMARK  Name = ZINC61537263
REMARK  2 active torsions:
REMARK  status: ('A' for Active; 'I' for Inactive)
REMARK    1  A    between atoms: C_1  and  C_2
REMARK    2  A    between atoms: C_7  and  N_10
REMARK                            x       y       z     vdW  Elec       q    Type
REMARK                         _______ _______ _______ _____ _____    ______ ____
ROOT
ATOM      1  N   UNL     1      -0.612  -2.548   1.244  0.00  0.00    -0.310 N 
ATOM      2  C   UNL     1      -0.879  -3.805   1.744  0.00  0.00    +0.221 A 
ATOM      3  N   UNL     1      -2.125  -4.268   1.749  0.00  0.00    -0.181 NA
ATOM      4  C   UNL     1      -2.378  -5.480   2.232  0.00  0.00    +0.223 A 
ATOM      5  N   UNL     1      -1.385  -6.226   2.709  0.00  0.00    -0.184 NA
ATOM      6  C   UNL     1      -0.146  -5.762   2.703  0.00  0.00    +0.229 A 
ATOM      7  N   UNL     1       0.111  -4.558   2.218  0.00  0.00    -0.184 NA
ATOM      8 CL   UNL     1       1.147  -6.739   3.326  0.00  0.00    -0.041 Cl
ATOM      9  N   UNL     1      -3.671  -5.964   2.239  0.00  0.00    -0.299 N 
ATOM     10  C   UNL     1      -4.856  -5.251   1.740  0.00  0.00    +0.108 C 
ATOM     11  C   UNL     1      -6.075  -6.167   1.976  0.00  0.00    +0.020 C 
ATOM     12  C   UNL     1      -5.588  -7.108   3.109  0.00  0.00    +0.020 C 
ATOM     13  C   UNL     1      -4.091  -7.284   2.743  0.00  0.00    +0.108 C 
ATOM     14  H   UNL     1      -1.333  -2.000   0.898  0.00  0.00    +0.149 HD
ENDROOT
BRANCH   1  20
ATOM     15  C   UNL     1      -0.019   1.526   0.010  0.00  0.00    +0.007 C 
ATOM     16  C   UNL     1       0.002  -0.004   0.002  0.00  0.00    -0.012 C 
ATOM     17  C   UNL     1       0.718  -0.497  -1.257  0.00  0.00    +0.003 C 
ATOM     18  C   UNL     1       0.739  -2.027  -1.265  0.00  0.00    +0.002 C 
ATOM     19  C   UNL     1       1.479  -2.534  -0.026  0.00  0.00    +0.022 C 
ATOM     20  C   UNL     1       0.763  -2.041   1.233  0.00  0.00    +0.073 C 
ATOM     21  C   UNL     1       0.742  -0.511   1.242  0.00  0.00    +0.025 C 
ENDBRANCH   1  20
TORSDOF 1
