REMARK  Name = ZINC20310236
REMARK  11 active torsions:
REMARK  status: ('A' for Active; 'I' for Inactive)
REMARK    1  A    between atoms: C_1  and  C_2
REMARK    2  A    between atoms: C_5  and  C_8
REMARK    3  A    between atoms: C_10  and  C_25
REMARK    4  A    between atoms: N_14  and  C_15
REMARK    5  A    between atoms: C_15  and  C_16
REMARK    6  A    between atoms: C_16  and  C_17
REMARK    7  A    between atoms: C_17  and  N_18
REMARK    8  A    between atoms: C_25  and  C_27
REMARK    9  A    between atoms: C_30  and  O_34
REMARK   10  A    between atoms: C_32  and  O_33
REMARK   11  A    between atoms: O_34  and  C_35
REMARK                            x       y       z     vdW  Elec       q    Type
REMARK                         _______ _______ _______ _____ _____    ______ ____
ROOT
ATOM      1  C   UNL     1       1.276   3.530   0.020  0.00  0.00    +0.145 C 
ATOM      2  C   UNL     1       1.188   2.023   0.090  0.00  0.00    +0.076 C 
ATOM      3  C   UNL     1       2.450   1.564   0.250  0.00  0.00    +0.249 C 
ATOM      4  C   UNL     1       3.383   2.710   0.280  0.00  0.00    +0.288 C 
ATOM      5  O   UNL     1       4.588   2.625   0.409  0.00  0.00    -0.266 OA
ATOM      6  N   UNL     1       2.700   3.862   0.149  0.00  0.00    -0.284 N 
ATOM      7  O   UNL     1       2.803   0.263   0.362  0.00  0.00    -0.282 OA
ENDROOT
BRANCH   1  12
ATOM      8  C   UNL     1      -0.749   5.406  -5.056  0.00  0.00    +0.044 C 
ATOM      9  C   UNL     1      -0.221   4.917  -3.733  0.00  0.00    -0.050 A 
ATOM     10  C   UNL     1      -0.969   5.090  -2.583  0.00  0.00    +0.004 A 
ATOM     11  C   UNL     1      -0.485   4.641  -1.369  0.00  0.00    +0.006 A 
ATOM     12  C   UNL     1       0.748   4.019  -1.304  0.00  0.00    -0.022 A 
ATOM     13  C   UNL     1       1.499   3.851  -2.453  0.00  0.00    +0.006 A 
ATOM     14  C   UNL     1       1.012   4.295  -3.668  0.00  0.00    +0.004 A 
ENDBRANCH   1  12
BRANCH   2  15
ATOM     15  C   UNL     1      -0.033   1.214   0.006  0.00  0.00    +0.199 C 
ATOM     16  O   UNL     1      -0.211   0.476  -0.946  0.00  0.00    -0.287 OA
BRANCH  15  17
ATOM     17  C   UNL     1      -1.047   1.298   1.072  0.00  0.00    +0.064 A 
ATOM     18  C   UNL     1      -0.884   2.203   2.126  0.00  0.00    +0.019 A 
ATOM     19  C   UNL     1      -1.827   2.284   3.110  0.00  0.00    +0.046 A 
ATOM     20  C   UNL     1      -2.950   1.461   3.079  0.00  0.00    +0.124 A 
ATOM     21  C   UNL     1      -3.124   0.553   2.044  0.00  0.00    +0.091 A 
ATOM     22  C   UNL     1      -2.178   0.465   1.037  0.00  0.00    +0.131 A 
BRANCH  22  23
ATOM     23  O   UNL     1      -2.342  -0.419   0.022  0.00  0.00    -0.506 OA
ATOM     24  H   UNL     1      -3.229  -1.070  -0.002  0.00  0.00    +0.292 HD
ENDBRANCH  22  23
BRANCH  20  25
ATOM     25  O   UNL     1      -3.878   1.546   4.066  0.00  0.00    -0.495 OA
ATOM     26  C   UNL     1      -3.638   2.501   5.101  0.00  0.00    +0.277 C 
ENDBRANCH  20  25
ENDBRANCH  15  17
ENDBRANCH   2  15
BRANCH   6  27
ATOM     27  C   UNL     1       3.276   5.209   0.137  0.00  0.00    +0.110 C 
BRANCH  27  28
ATOM     28  C   UNL     1       3.328   5.754   1.566  0.00  0.00    +0.034 C 
BRANCH  28  29
ATOM     29  C   UNL     1       3.929   7.161   1.553  0.00  0.00    +0.086 C 
BRANCH  29  30
ATOM     30  N   UNL     1       3.980   7.684   2.925  0.00  0.00    -0.298 NA
ATOM     31  C   UNL     1       2.626   7.894   3.459  0.00  0.00    +0.112 C 
ATOM     32  C   UNL     1       2.725   8.382   4.907  0.00  0.00    +0.175 C 
ATOM     33  O   UNL     1       3.515   9.573   4.951  0.00  0.00    -0.377 OA
ATOM     34  C   UNL     1       4.839   9.404   4.439  0.00  0.00    +0.175 C 
ATOM     35  C   UNL     1       4.763   8.927   2.986  0.00  0.00    +0.112 C 
ENDBRANCH  29  30
ENDBRANCH  28  29
ENDBRANCH  27  28
ENDBRANCH   6  27
TORSDOF 9
