REMARK  Name = ZINC08820038
REMARK  10 active torsions:
REMARK  status: ('A' for Active; 'I' for Inactive)
REMARK    1  A    between atoms: C_3  and  C_8
REMARK    2  A    between atoms: C_5  and  O_7
REMARK    3  A    between atoms: N_10  and  N_11
REMARK    4  A    between atoms: C_12  and  C_14
REMARK    5  A    between atoms: C_14  and  C_15
REMARK    6  A    between atoms: C_15  and  C_16
REMARK    7  A    between atoms: C_16  and  C_17
REMARK    8  A    between atoms: C_17  and  C_18
REMARK    9  A    between atoms: C_18  and  N_19
REMARK   10  A    between atoms: C_23  and  C_24
REMARK                            x       y       z     vdW  Elec       q    Type
REMARK                         _______ _______ _______ _____ _____    ______ ____
ROOT
ATOM      1  C   UNL     1       9.628   5.525  -7.220  0.00  0.00    +0.002 C 
ENDROOT
BRANCH   1   2
ATOM      2  C   UNL     1       8.693   5.449  -6.011  0.00  0.00    +0.009 C 
BRANCH   2   3
ATOM      3  C   UNL     1       7.380   4.781  -6.423  0.00  0.00    +0.097 C 
BRANCH   3   5
ATOM      4  N   UNL     1       5.237   4.152  -5.358  0.00  0.00    -0.234 N 
ATOM      5  C   UNL     1       6.460   4.706  -5.232  0.00  0.00    +0.229 C 
ATOM      6  O   UNL     1       6.819   5.144  -4.159  0.00  0.00    -0.274 OA
ATOM      7  H   UNL     1       4.950   3.802  -6.216  0.00  0.00    +0.173 HD
BRANCH   4  10
ATOM      8  C   UNL     1       3.159   3.529  -4.378  0.00  0.00    +0.260 C 
ATOM      9  O   UNL     1       2.799   3.090  -5.453  0.00  0.00    -0.269 OA
ATOM     10  N   UNL     1       4.382   4.083  -4.251  0.00  0.00    -0.230 N 
ATOM     11  H   UNL     1       4.669   4.433  -3.393  0.00  0.00    +0.173 HD
BRANCH   8  14
ATOM     12  C   UNL     1       1.821   3.889  -0.886  0.00  0.00    +0.004 A 
ATOM     13  C   UNL     1       2.667   3.959  -1.974  0.00  0.00    +0.013 A 
ATOM     14  C   UNL     1       2.256   3.456  -3.209  0.00  0.00    +0.042 A 
ATOM     15  C   UNL     1       0.990   2.883  -3.338  0.00  0.00    +0.058 A 
ATOM     16  C   UNL     1       0.150   2.818  -2.239  0.00  0.00    +0.118 A 
ATOM     17  C   UNL     1       0.565   3.327  -1.016  0.00  0.00    +0.045 A 
BRANCH  16  18
ATOM     18  O   UNL     1      -1.084   2.262  -2.360  0.00  0.00    -0.507 OA
ATOM     19  H   UNL     1      -1.105   1.311  -2.185  0.00  0.00    +0.292 HD
ENDBRANCH  16  18
ENDBRANCH   8  14
ENDBRANCH   4  10
ENDBRANCH   3   5
ENDBRANCH   2   3
ENDBRANCH   1   2
BRANCH   1  20
ATOM     20  C   UNL     1      10.941   6.193  -6.808  0.00  0.00    +0.019 C 
BRANCH  20  21
ATOM     21  C   UNL     1      11.876   6.269  -8.017  0.00  0.00    +0.115 C 
BRANCH  21  22
ATOM     22  N   UNL     1      13.133   6.909  -7.623  0.00  0.00    -0.255 N 
ATOM     23  C   UNL     1      14.127   6.160  -7.175  0.00  0.00    +0.258 C 
ATOM     24  O   UNL     1      14.024   4.950  -7.081  0.00  0.00    -0.269 OA
ATOM     25  C   UNL     1      15.367   6.864  -6.794  0.00  0.00    +0.077 C 
ATOM     26  C   UNL     1      16.532   6.364  -6.310  0.00  0.00    +0.028 C 
ATOM     27  S   UNL     1      14.912   8.557  -7.146  0.00  0.00    -0.061 S 
ATOM     28  C   UNL     1      13.254   8.248  -7.731  0.00  0.00    +0.121 C 
ATOM     29  S   UNL     1      12.095   9.378  -8.289  0.00  0.00    -0.027 S 
BRANCH  26  30
ATOM     30  C   UNL     1      17.700   7.241  -6.156  0.00  0.00    -0.020 A 
ATOM     31  C   UNL     1      17.675   8.541  -6.675  0.00  0.00    +0.012 A 
ATOM     32  C   UNL     1      18.771   9.363  -6.525  0.00  0.00    +0.050 A 
ATOM     33  C   UNL     1      19.905   8.903  -5.869  0.00  0.00    +0.166 A 
ATOM     34  C   UNL     1      19.939   7.607  -5.353  0.00  0.00    +0.167 A 
ATOM     35  C   UNL     1      18.844   6.778  -5.494  0.00  0.00    +0.057 A 
ATOM     36  O   UNL     1      21.154   7.405  -4.763  0.00  0.00    -0.453 OA
ATOM     37  C   UNL     1      22.009   8.442  -5.279  0.00  0.00    +0.466 C 
ATOM     38  O   UNL     1      21.098   9.510  -5.600  0.00  0.00    -0.453 OA
ENDBRANCH  26  30
ENDBRANCH  21  22
ENDBRANCH  20  21
ENDBRANCH   1  20
TORSDOF 10
