REMARK  Name = ZINC12697823
REMARK  15 active torsions:
REMARK  status: ('A' for Active; 'I' for Inactive)
REMARK    1  A    between atoms: C_1  and  C_2
REMARK    2  A    between atoms: C_2  and  O_3
REMARK    3  A    between atoms: O_3  and  C_4
REMARK    4  A    between atoms: C_7  and  N_10
REMARK    5  A    between atoms: C_11  and  C_13
REMARK    6  A    between atoms: C_13  and  O_14
REMARK    7  A    between atoms: O_14  and  C_15
REMARK    8  A    between atoms: C_15  and  C_17
REMARK    9  A    between atoms: C_17  and  C_19
REMARK   10  A    between atoms: C_17  and  N_23
REMARK   11  A    between atoms: C_19  and  C_20
REMARK   12  A    between atoms: C_20  and  S_21
REMARK   13  A    between atoms: S_21  and  C_22
REMARK   14  A    between atoms: N_23  and  S_24
REMARK   15  A    between atoms: S_24  and  C_27
REMARK                            x       y       z     vdW  Elec       q    Type
REMARK                         _______ _______ _______ _____ _____    ______ ____
ROOT
ATOM      1  C   UNL     1       4.510   0.085  -2.510  0.00  0.00    +0.186 C 
ENDROOT
BRANCH   1   2
ATOM      2  C   UNL     1       3.876   0.070  -3.878  0.00  0.00    +0.326 C 
ATOM      3  O   UNL     1       3.318  -0.926  -4.274  0.00  0.00    -0.249 OA
BRANCH   2   4
ATOM      4  O   UNL     1       3.931   1.162  -4.655  0.00  0.00    -0.454 OA
BRANCH   4   5
ATOM      5  C   UNL     1       3.299   1.075  -5.960  0.00  0.00    +0.328 C 
BRANCH   5   7
ATOM      6  N   UNL     1       2.950   2.540  -7.922  0.00  0.00    -0.283 N 
ATOM      7  C   UNL     1       3.460   2.387  -6.685  0.00  0.00    +0.255 C 
ATOM      8  O   UNL     1       4.050   3.304  -6.154  0.00  0.00    -0.272 OA
ATOM      9  H   UNL     1       2.544   1.785  -8.377  0.00  0.00    +0.155 HD
BRANCH   6  13
ATOM     10  C   UNL     1       3.113   6.260  -9.800  0.00  0.00    +0.121 A 
ATOM     11  C   UNL     1       4.152   5.853  -8.976  0.00  0.00    +0.047 A 
ATOM     12  C   UNL     1       4.099   4.621  -8.354  0.00  0.00    +0.027 A 
ATOM     13  C   UNL     1       3.005   3.790  -8.553  0.00  0.00    +0.034 A 
ATOM     14  C   UNL     1       1.967   4.196  -9.382  0.00  0.00    +0.027 A 
ATOM     15  C   UNL     1       2.019   5.430  -9.999  0.00  0.00    +0.047 A 
BRANCH  10  16
ATOM     16  O   UNL     1       3.167   7.472 -10.413  0.00  0.00    -0.492 OA
BRANCH  16  18
ATOM     17  C   UNL     1       2.300   9.215 -11.846  0.00  0.00    +0.048 C 
ATOM     18  C   UNL     1       2.062   7.827 -11.247  0.00  0.00    +0.225 C 
ENDBRANCH  16  18
ENDBRANCH  10  16
ENDBRANCH   6  13
ENDBRANCH   5   7
ENDBRANCH   4   5
ENDBRANCH   2   4
ENDBRANCH   1   2
BRANCH   1  19
ATOM     19  N   UNL     1       4.314  -1.216  -1.867  0.00  0.00    -0.176 NA
ATOM     20  H   UNL     1       4.366  -2.030  -2.393  0.00  0.00    +0.149 HD
BRANCH  19  21
ATOM     21  S   UNL     1       4.005  -1.298  -0.242  0.00  0.00    +0.059 S 
ATOM     22  O   UNL     1       5.010  -0.527   0.402  0.00  0.00    -0.153 OA
ATOM     23  O   UNL     1       3.786  -2.670   0.061  0.00  0.00    -0.153 OA
BRANCH  21  24
ATOM     24  C   UNL     1       2.476  -0.470   0.040  0.00  0.00    +0.109 A 
ATOM     25  C   UNL     1       1.288  -1.176  -0.014  0.00  0.00    +0.032 A 
ATOM     26  C   UNL     1       0.087  -0.529   0.205  0.00  0.00    +0.051 A 
ATOM     27  C   UNL     1       0.069   0.830   0.479  0.00  0.00    +0.162 A 
ATOM     28  C   UNL     1       1.263   1.539   0.535  0.00  0.00    +0.164 A 
ATOM     29  C   UNL     1       2.466   0.884   0.314  0.00  0.00    +0.078 A 
ATOM     30  O   UNL     1       1.269   2.872   0.811  0.00  0.00    -0.485 OA
ATOM     31  C   UNL     1       0.026   3.567   0.658  0.00  0.00    +0.270 C 
ATOM     32  C   UNL     1      -1.075   2.734   1.328  0.00  0.00    +0.270 C 
ATOM     33  O   UNL     1      -1.122   1.455   0.684  0.00  0.00    -0.485 OA
ENDBRANCH  21  24
ENDBRANCH  19  21
ENDBRANCH   1  19
BRANCH   1  34
ATOM     34  C   UNL     1       6.007   0.368  -2.646  0.00  0.00    +0.042 C 
BRANCH  34  35
ATOM     35  C   UNL     1       6.665  -0.747  -3.460  0.00  0.00    +0.071 C 
BRANCH  35  36
ATOM     36  S   UNL     1       8.461  -0.492  -3.494  0.00  0.00    -0.164 S 
ATOM     37  C   UNL     1       9.082  -1.879  -4.485  0.00  0.00    +0.084 C 
ENDBRANCH  35  36
ENDBRANCH  34  35
ENDBRANCH   1  34
TORSDOF 13
