REMARK  Name = ZINC12462721
REMARK  3 active torsions:
REMARK  status: ('A' for Active; 'I' for Inactive)
REMARK    1  A    between atoms: C_1  and  C_2
REMARK    2  A    between atoms: C_6  and  N_8
REMARK    3  A    between atoms: C_14  and  C_15
REMARK                            x       y       z     vdW  Elec       q    Type
REMARK                         _______ _______ _______ _____ _____    ______ ____
ROOT
ATOM      1  N   UNL     1       0.148  -2.872   2.304  0.00  0.00    -0.226 NA
ATOM      2  C   UNL     1      -0.622  -3.928   2.448  0.00  0.00    +0.166 C 
ATOM      3  N   UNL     1      -0.544  -4.921   3.399  0.00  0.00    -0.260 N 
ATOM      4  C   UNL     1      -1.408  -5.923   3.399  0.00  0.00    +0.256 C 
ATOM      5  O   UNL     1      -1.354  -6.809   4.232  0.00  0.00    -0.269 OA
ATOM      6  C   UNL     1      -2.440  -5.917   2.345  0.00  0.00    +0.078 C 
ATOM      7  C   UNL     1      -3.438  -6.807   2.112  0.00  0.00    +0.028 C 
ATOM      8  S   UNL     1      -2.028  -4.418   1.463  0.00  0.00    -0.049 S 
ATOM      9  H   UNL     1       0.151  -4.886   4.074  0.00  0.00    +0.157 HD
ENDROOT
BRANCH   7  10
ATOM     10  C   UNL     1      -3.703  -7.883   3.075  0.00  0.00    -0.020 A 
ATOM     11  C   UNL     1      -3.639  -7.626   4.450  0.00  0.00    +0.012 A 
ATOM     12  C   UNL     1      -3.888  -8.637   5.352  0.00  0.00    +0.050 A 
ATOM     13  C   UNL     1      -4.203  -9.913   4.902  0.00  0.00    +0.166 A 
ATOM     14  C   UNL     1      -4.268 -10.177   3.534  0.00  0.00    +0.167 A 
ATOM     15  C   UNL     1      -4.025  -9.168   2.623  0.00  0.00    +0.057 A 
ATOM     16  O   UNL     1      -4.592 -11.492   3.359  0.00  0.00    -0.453 OA
ATOM     17  C   UNL     1      -4.322 -12.125   4.624  0.00  0.00    +0.466 C 
ATOM     18  O   UNL     1      -4.486 -11.062   5.581  0.00  0.00    -0.453 OA
ENDBRANCH   7  10
BRANCH   1  24
ATOM     19  C   UNL     1      -0.281   1.763   0.787  0.00  0.00    +0.044 C 
ATOM     20  C   UNL     1      -0.309   0.280   0.517  0.00  0.00    -0.048 A 
ATOM     21  C   UNL     1      -0.576  -0.185  -0.758  0.00  0.00    +0.003 A 
ATOM     22  C   UNL     1      -0.603  -1.544  -1.014  0.00  0.00    +0.002 A 
ATOM     23  C   UNL     1      -0.362  -2.446   0.002  0.00  0.00    +0.028 A 
ATOM     24  C   UNL     1      -0.092  -1.984   1.291  0.00  0.00    +0.067 A 
ATOM     25  C   UNL     1      -0.061  -0.609   1.542  0.00  0.00    +0.031 A 
ENDBRANCH   1  24
TORSDOF 2
