REMARK  Name = ZINC17080970
REMARK  9 active torsions:
REMARK  status: ('A' for Active; 'I' for Inactive)
REMARK    1  A    between atoms: C_1  and  C_2
REMARK    2  A    between atoms: C_3  and  C_19
REMARK    3  A    between atoms: C_4  and  C_10
REMARK    4  A    between atoms: C_13  and  N_16
REMARK    5  A    between atoms: C_19  and  O_21
REMARK    6  A    between atoms: O_21  and  C_22
REMARK    7  A    between atoms: C_22  and  C_23
REMARK    8  A    between atoms: C_23  and  O_24
REMARK    9  A    between atoms: O_24  and  C_25
REMARK                            x       y       z     vdW  Elec       q    Type
REMARK                         _______ _______ _______ _____ _____    ______ ____
ROOT
ATOM      1  C   UNL     1      -2.532   4.030  -0.015  0.00  0.00    +0.061 C 
ATOM      2  C   UNL     1      -1.246   3.267  -0.204  0.00  0.00    +0.018 C 
ATOM      3  C   UNL     1      -0.155   3.913  -0.648  0.00  0.00    +0.061 C 
ATOM      4  C   UNL     1       1.132   3.167  -0.888  0.00  0.00    +0.066 C 
ATOM      5  C   UNL     1       1.260   2.030   0.128  0.00  0.00    +0.109 C 
ATOM      6  C   UNL     1      -0.043   1.274   0.197  0.00  0.00    +0.218 C 
ATOM      7  O   UNL     1      -0.035   0.072   0.359  0.00  0.00    -0.275 OA
ATOM      8  N   UNL     1      -1.212   1.927   0.075  0.00  0.00    -0.289 N 
ATOM      9  H   UNL     1      -2.044   1.442   0.188  0.00  0.00    +0.155 HD
ENDROOT
BRANCH   4  10
ATOM     10  C   UNL     1       1.130   2.597  -2.283  0.00  0.00    -0.039 A 
ATOM     11  C   UNL     1       0.152   1.695  -2.659  0.00  0.00    +0.006 A 
ATOM     12  C   UNL     1       0.147   1.175  -3.940  0.00  0.00    +0.033 A 
ATOM     13  C   UNL     1       1.126   1.550  -4.842  0.00  0.00    +0.126 A 
ATOM     14  C   UNL     1       2.107   2.448  -4.464  0.00  0.00    +0.033 A 
ATOM     15  C   UNL     1       2.109   2.971  -3.184  0.00  0.00    +0.006 A 
BRANCH  13  16
ATOM     16  N   UNL     1       1.123   0.990  -6.212  0.00  0.00    +0.056 N 
ATOM     17  O   UNL     1       1.985   1.320  -7.006  0.00  0.00    -0.126 OA
ATOM     18  O   UNL     1       0.259   0.199  -6.545  0.00  0.00    -0.126 OA
ENDBRANCH  13  16
ENDBRANCH   4  10
BRANCH   3  19
ATOM     19  C   UNL     1      -0.216   5.306  -0.893  0.00  0.00    +0.337 C 
ATOM     20  O   UNL     1       0.316   6.082  -0.123  0.00  0.00    -0.245 OA
BRANCH  19  21
ATOM     21  O   UNL     1      -0.864   5.771  -1.981  0.00  0.00    -0.458 OA
BRANCH  21  22
ATOM     22  C   UNL     1      -0.886   7.188  -2.166  0.00  0.00    +0.273 C 
BRANCH  22  23
ATOM     23  C   UNL     1      -1.660   7.524  -3.442  0.00  0.00    +0.270 C 
BRANCH  23  24
ATOM     24  O   UNL     1      -3.028   7.143  -3.284  0.00  0.00    -0.489 OA
BRANCH  24  25
ATOM     25  C   UNL     1      -3.859   7.375  -4.334  0.00  0.00    +0.121 A 
ATOM     26  C   UNL     1      -3.369   7.962  -5.491  0.00  0.00    +0.045 A 
ATOM     27  C   UNL     1      -4.214   8.191  -6.560  0.00  0.00    +0.004 A 
ATOM     28  C   UNL     1      -5.550   7.846  -6.472  0.00  0.00    +0.000 A 
ATOM     29  C   UNL     1      -6.042   7.266  -5.318  0.00  0.00    +0.004 A 
ATOM     30  C   UNL     1      -5.200   7.029  -4.249  0.00  0.00    +0.045 A 
ENDBRANCH  24  25
ENDBRANCH  23  24
ENDBRANCH  22  23
ENDBRANCH  21  22
ENDBRANCH  19  21
ENDBRANCH   3  19
TORSDOF 8
