REMARK  Name = ZINC26233322
REMARK  6 active torsions:
REMARK  status: ('A' for Active; 'I' for Inactive)
REMARK    1  A    between atoms: C_1  and  C_2
REMARK    2  A    between atoms: C_2  and  C_4
REMARK    3  A    between atoms: C_2  and  O_17
REMARK    4  A    between atoms: O_17  and  C_18
REMARK    5  A    between atoms: C_18  and  C_20
REMARK    6  A    between atoms: C_21  and  C_25
REMARK                            x       y       z     vdW  Elec       q    Type
REMARK                         _______ _______ _______ _____ _____    ______ ____
ROOT
ATOM      1  C   UNL     1       2.792   4.389  -5.035  0.00  0.00    +0.062 C 
ATOM      2  C   UNL     1       2.559   5.175  -3.743  0.00  0.00    +0.259 C 
ENDROOT
BRANCH   2   3
ATOM      3  C   UNL     1       2.792   6.641  -3.998  0.00  0.00    +0.259 C 
ATOM      4  O   UNL     1       3.707   7.215  -3.447  0.00  0.00    -0.271 OA
ATOM      5  N   UNL     1       1.982   7.316  -4.839  0.00  0.00    -0.266 N 
ATOM      6  C   UNL     1       2.197   8.668  -5.074  0.00  0.00    +0.154 A 
ATOM      7  C   UNL     1       1.364   9.386  -5.947  0.00  0.00    +0.126 A 
ATOM      8  C   UNL     1       1.624  10.754  -6.138  0.00  0.00    +0.183 A 
ATOM      9  N   UNL     1       0.671  11.201  -7.018  0.00  0.00    -0.216 NA
ATOM     10  H   UNL     1      -0.102   8.046  -6.718  0.00  0.00    +0.167 HD
ATOM     11  C   UNL     1      -0.110  10.135  -7.351  0.00  0.00    +0.199 A 
ATOM     12  N   UNL     1       0.290   9.074  -6.713  0.00  0.00    -0.340 N 
ATOM     13  N   UNL     1       2.644  11.313  -5.495  0.00  0.00    -0.214 NA
ATOM     14  C   UNL     1       3.402  10.598  -4.691  0.00  0.00    +0.225 A 
ATOM     15  N   UNL     1       3.190   9.313  -4.473  0.00  0.00    -0.218 NA
ATOM     16  H   UNL     1       1.152   6.795  -5.339  0.00  0.00    +0.156 HD
ENDBRANCH   2   3
BRANCH   2  17
ATOM     17  O   UNL     1       3.465   4.717  -2.737  0.00  0.00    -0.448 OA
BRANCH  17  18
ATOM     18  C   UNL     1       3.047   3.701  -1.952  0.00  0.00    +0.347 C 
ATOM     19  O   UNL     1       1.943   3.218  -2.119  0.00  0.00    -0.244 OA
BRANCH  18  20
ATOM     20  C   UNL     1       3.895   3.197  -0.934  0.00  0.00    +0.104 A 
ATOM     21  C   UNL     1       3.659   2.162  -0.022  0.00  0.00    +0.003 A 
ATOM     22  C   UNL     1       4.679   1.877   0.867  0.00  0.00    +0.017 A 
ATOM     23  C   UNL     1       5.824   2.600   0.815  0.00  0.00    +0.046 A 
ATOM     24  S   UNL     1       5.539   3.718  -0.479  0.00  0.00    -0.090 S 
BRANCH  21  25
ATOM     25  C   UNL     1       2.384   1.407  -0.013  0.00  0.00    -0.017 A 
ATOM     26  C   UNL     1       1.167   2.088   0.002  0.00  0.00    +0.008 A 
ATOM     27  C   UNL     1      -0.017   1.379   0.010  0.00  0.00    +0.001 A 
ATOM     28  C   UNL     1       0.002  -0.004   0.002  0.00  0.00    +0.000 A 
ATOM     29  C   UNL     1       1.206  -0.685  -0.013  0.00  0.00    +0.001 A 
ATOM     30  C   UNL     1       2.397   0.013  -0.021  0.00  0.00    +0.008 A 
ENDBRANCH  21  25
ENDBRANCH  18  20
ENDBRANCH  17  18
ENDBRANCH   2  17
TORSDOF 5
