REMARK  Name = ZINC45830629
REMARK  10 active torsions:
REMARK  status: ('A' for Active; 'I' for Inactive)
REMARK    1  A    between atoms: C_1  and  C_2
REMARK    2  A    between atoms: C_5  and  N_29
REMARK    3  A    between atoms: C_6  and  N_9
REMARK    4  A    between atoms: C_7  and  C_8
REMARK    5  A    between atoms: C_10  and  C_12
REMARK    6  A    between atoms: C_12  and  C_14
REMARK    7  A    between atoms: C_12  and  S_15
REMARK    8  A    between atoms: S_15  and  C_16
REMARK    9  A    between atoms: N_25  and  C_26
REMARK   10  A    between atoms: C_26  and  C_27
REMARK                            x       y       z     vdW  Elec       q    Type
REMARK                         _______ _______ _______ _____ _____    ______ ____
ROOT
ATOM      1  C   UNL     1      -0.842  -4.106   4.210  0.00  0.00    +0.137 C 
ATOM      2  C   UNL     1      -2.332  -4.436   4.330  0.00  0.00    +0.029 C 
ENDROOT
BRANCH   1   4
ATOM      3  N   UNL     1      -0.726  -2.323   2.499  0.00  0.00    -0.283 N 
ATOM      4  C   UNL     1      -0.545  -3.621   2.814  0.00  0.00    +0.230 C 
ATOM      5  O   UNL     1      -0.144  -4.399   1.974  0.00  0.00    -0.274 OA
ATOM      6  H   UNL     1      -1.121  -1.718   3.145  0.00  0.00    +0.155 HD
BRANCH   3  12
ATOM      7  C   UNL     1      -0.962  -2.660  -2.400  0.00  0.00    +0.044 C 
ATOM      8  C   UNL     1      -0.442  -1.994  -1.152  0.00  0.00    -0.046 A 
ATOM      9  C   UNL     1       0.414  -0.913  -1.252  0.00  0.00    +0.006 A 
ATOM     10  C   UNL     1       0.893  -0.299  -0.109  0.00  0.00    +0.035 A 
ATOM     11  C   UNL     1       0.517  -0.764   1.136  0.00  0.00    +0.148 A 
ATOM     12  C   UNL     1      -0.343  -1.850   1.239  0.00  0.00    +0.067 A 
ATOM     13  C   UNL     1      -0.826  -2.461   0.089  0.00  0.00    -0.024 A 
ATOM     14  C   UNL     1      -1.765  -3.635   0.197  0.00  0.00    +0.046 C 
BRANCH  11  15
ATOM     15  N   UNL     1       1.031  -0.107   2.359  0.00  0.00    +0.058 N 
ATOM     16  O   UNL     1       1.680   0.909   2.272  0.00  0.00    -0.126 OA
ATOM     17  O   UNL     1       0.801  -0.587   3.445  0.00  0.00    -0.126 OA
ENDBRANCH  11  15
ENDBRANCH   3  12
ENDBRANCH   1   4
BRANCH   1  18
ATOM     18  S   UNL     1       0.136  -5.595   4.554  0.00  0.00    -0.075 S 
BRANCH  18  19
ATOM     19  C   UNL     1      -0.204  -5.946   6.246  0.00  0.00    +0.174 A 
ATOM     20  N   UNL     1      -1.026  -5.167   6.920  0.00  0.00    -0.216 NA
ATOM     21  C   UNL     1      -1.301  -5.408   8.196  0.00  0.00    +0.116 A 
ATOM     22  C   UNL     1      -0.736  -6.495   8.890  0.00  0.00    +0.072 A 
ATOM     23  C   UNL     1      -1.143  -6.613  10.279  0.00  0.00    +0.023 A 
ATOM     24  C   UNL     1      -1.997  -5.714  10.790  0.00  0.00    +0.048 A 
ATOM     25  S   UNL     1      -2.322  -4.624   9.418  0.00  0.00    -0.077 S 
ATOM     26  C   UNL     1       0.153  -7.322   8.133  0.00  0.00    +0.263 A 
ATOM     27  O   UNL     1       0.689  -8.287   8.650  0.00  0.00    -0.267 OA
ATOM     28  N   UNL     1       0.383  -7.026   6.841  0.00  0.00    -0.283 N 
BRANCH  28  29
ATOM     29  C   UNL     1       1.287  -7.873   6.059  0.00  0.00    +0.154 C 
BRANCH  29  30
ATOM     30  C   UNL     1       2.695  -7.352   6.181  0.00  0.00    -0.013 C 
ATOM     31  C   UNL     1       3.654  -8.145   6.590  0.00  0.00    +0.005 C 
ENDBRANCH  29  30
ENDBRANCH  28  29
ENDBRANCH  18  19
ENDBRANCH   1  18
TORSDOF 7
