REMARK  Name = ZINC59749385
REMARK  7 active torsions:
REMARK  status: ('A' for Active; 'I' for Inactive)
REMARK    1  A    between atoms: C_1  and  C_2
REMARK    2  A    between atoms: C_2  and  N_3
REMARK    3  A    between atoms: N_3  and  C_4
REMARK    4  A    between atoms: C_4  and  C_5
REMARK    5  A    between atoms: C_11  and  C_14
REMARK    6  A    between atoms: N_16  and  C_17
REMARK    7  A    between atoms: C_20  and  N_24
REMARK                            x       y       z     vdW  Elec       q    Type
REMARK                         _______ _______ _______ _____ _____    ______ ____
ROOT
ATOM      1  C   UNL     1      -4.686   0.605  -0.533  0.00  0.00    +0.220 C 
ATOM      2  O   UNL     1      -4.702   0.319   0.645  0.00  0.00    -0.275 OA
ATOM      3  N   UNL     1      -5.831   0.602  -1.243  0.00  0.00    -0.284 N 
ATOM      4  H   UNL     1      -5.810   0.771  -2.198  0.00  0.00    +0.155 HD
ENDROOT
BRANCH   1  11
ATOM      5  N   UNL     1       0.668  -0.853  -3.385  0.00  0.00    -0.286 N 
ATOM      6  C   UNL     1       0.409  -0.250  -2.207  0.00  0.00    +0.305 C 
ATOM      7  O   UNL     1       1.206  -0.334  -1.293  0.00  0.00    -0.252 OA
ATOM      8  N   UNL     1      -0.734   0.445  -2.043  0.00  0.00    -0.285 N 
ATOM      9  C   UNL     1      -0.932   1.290  -0.858  0.00  0.00    +0.110 C 
ATOM     10  C   UNL     1      -2.248   0.891  -0.182  0.00  0.00    +0.032 C 
ATOM     11  C   UNL     1      -3.385   0.964  -1.203  0.00  0.00    +0.078 C 
ATOM     12  C   UNL     1      -3.111  -0.018  -2.345  0.00  0.00    +0.032 C 
ATOM     13  C   UNL     1      -1.803   0.376  -3.049  0.00  0.00    +0.110 C 
BRANCH   5  15
ATOM     14  C   UNL     1       3.020  -1.279  -3.901  0.00  0.00    +0.024 C 
ATOM     15  C   UNL     1       1.691  -1.898  -3.463  0.00  0.00    +0.106 C 
ENDBRANCH   5  15
BRANCH   5  16
ATOM     16  C   UNL     1      -0.073  -0.462  -4.586  0.00  0.00    +0.106 C 
ATOM     17  C   UNL     1      -0.952  -1.627  -5.045  0.00  0.00    +0.024 C 
ENDBRANCH   5  16
ENDBRANCH   1  11
BRANCH   3  18
ATOM     18  C   UNL     1      -7.051   0.354  -0.603  0.00  0.00    +0.052 A 
ATOM     19  C   UNL     1      -7.085  -0.401   0.562  0.00  0.00    +0.027 A 
ATOM     20  C   UNL     1      -8.290  -0.643   1.192  0.00  0.00    +0.034 A 
ATOM     21  C   UNL     1      -9.463  -0.134   0.664  0.00  0.00    +0.128 A 
ATOM     22  C   UNL     1      -9.433   0.618  -0.495  0.00  0.00    +0.054 A 
ATOM     23  C   UNL     1      -8.230   0.869  -1.128  0.00  0.00    +0.064 A 
ATOM     24 CL   UNL     1      -8.193   1.819  -2.580  0.00  0.00    -0.082 Cl
BRANCH  21  25
ATOM     25  N   UNL     1     -10.752  -0.396   1.342  0.00  0.00    +0.056 N 
ATOM     26  O   UNL     1     -10.779  -1.054   2.356  0.00  0.00    -0.126 OA
ATOM     27  O   UNL     1     -11.778   0.048   0.882  0.00  0.00    -0.126 OA
ENDBRANCH  21  25
ENDBRANCH   3  18
TORSDOF 5
