REMARK  Name = ZINC18030797
REMARK  14 active torsions:
REMARK  status: ('A' for Active; 'I' for Inactive)
REMARK    1  A    between atoms: C_1  and  C_2
REMARK    2  A    between atoms: C_7  and  C_19
REMARK    3  A    between atoms: C_9  and  C_13
REMARK    4  A    between atoms: C_10  and  C_12
REMARK    5  A    between atoms: C_13  and  O_15
REMARK    6  A    between atoms: O_15  and  C_16
REMARK    7  A    between atoms: C_16  and  C_17
REMARK    8  A    between atoms: C_16  and  C_18
REMARK    9  A    between atoms: C_22  and  O_26
REMARK   10  A    between atoms: C_23  and  O_25
REMARK   11  A    between atoms: O_26  and  C_27
REMARK   12  A    between atoms: C_30  and  C_32
REMARK   13  A    between atoms: C_32  and  O_34
REMARK   14  A    between atoms: O_34  and  C_35
REMARK                            x       y       z     vdW  Elec       q    Type
REMARK                         _______ _______ _______ _____ _____    ______ ____
ROOT
ATOM      1  C   UNL     1       0.558   1.649  -0.220  0.00  0.00    +0.009 C 
ATOM      2  C   UNL     1       0.418   0.127  -0.150  0.00  0.00    +0.013 C 
ATOM      3  C   UNL     1       1.037  -0.504  -1.399  0.00  0.00    +0.055 C 
ATOM      4  C   UNL     1       0.944  -2.007  -1.306  0.00  0.00    +0.016 C 
ATOM      5  C   UNL     1       0.975  -2.633  -0.110  0.00  0.00    +0.025 C 
ATOM      6  C   UNL     1       0.881  -4.136  -0.025  0.00  0.00    +0.092 C 
ATOM      7  C   UNL     1       1.182  -4.770  -1.351  0.00  0.00    +0.065 C 
ATOM      8  C   UNL     1       1.142  -4.058  -2.490  0.00  0.00    +0.016 C 
ATOM      9  N   UNL     1       0.831  -2.728  -2.465  0.00  0.00    -0.321 N 
ATOM     10  C   UNL     1       1.442  -4.732  -3.805  0.00  0.00    +0.061 C 
ATOM     11  C   UNL     1       1.090  -1.905   1.087  0.00  0.00    +0.176 C 
ATOM     12  O   UNL     1       1.132  -2.500   2.145  0.00  0.00    -0.291 OA
ATOM     13  C   UNL     1       1.157  -0.402   1.084  0.00  0.00    +0.171 C 
ATOM     14  H   UNL     1       0.527  -2.289  -3.275  0.00  0.00    +0.152 HD
ENDROOT
BRANCH   6  15
ATOM     15  C   UNL     1      -0.511  -4.521   0.402  0.00  0.00    -0.032 A 
ATOM     16  C   UNL     1      -1.596  -4.162  -0.377  0.00  0.00    +0.008 A 
ATOM     17  C   UNL     1      -2.876  -4.513   0.011  0.00  0.00    +0.050 A 
ATOM     18  C   UNL     1      -3.073  -5.227   1.182  0.00  0.00    +0.161 A 
ATOM     19  C   UNL     1      -1.982  -5.589   1.966  0.00  0.00    +0.159 A 
ATOM     20  C   UNL     1      -0.701  -5.238   1.569  0.00  0.00    +0.053 A 
BRANCH  19  21
ATOM     21  O   UNL     1      -2.171  -6.290   3.115  0.00  0.00    -0.503 OA
ATOM     22  H   UNL     1      -2.154  -7.250   2.998  0.00  0.00    +0.292 HD
ENDBRANCH  19  21
BRANCH  18  23
ATOM     23  O   UNL     1      -4.332  -5.573   1.565  0.00  0.00    -0.491 OA
ATOM     24  C   UNL     1      -5.404  -5.168   0.712  0.00  0.00    +0.277 C 
ENDBRANCH  18  23
ENDBRANCH   6  15
BRANCH   7  25
ATOM     25  C   UNL     1       1.515  -6.144  -1.403  0.00  0.00    +0.338 C 
ATOM     26  O   UNL     1       2.611  -6.519  -1.031  0.00  0.00    -0.245 OA
BRANCH  25  27
ATOM     27  O   UNL     1       0.617  -7.039  -1.865  0.00  0.00    -0.459 OA
BRANCH  27  28
ATOM     28  C   UNL     1       1.020  -8.410  -1.889  0.00  0.00    +0.171 C 
ATOM     29  C   UNL     1       0.651  -9.074  -0.561  0.00  0.00    +0.052 C 
ATOM     30  C   UNL     1       0.307  -9.131  -3.035  0.00  0.00    +0.052 C 
ENDBRANCH  27  28
ENDBRANCH  25  27
ENDBRANCH   7  25
BRANCH  13  31
ATOM     31  C   UNL     1       0.506   0.139   2.331  0.00  0.00    +0.318 C 
ATOM     32  O   UNL     1      -0.450   0.872   2.244  0.00  0.00    -0.250 OA
BRANCH  31  33
ATOM     33  O   UNL     1       0.989  -0.194   3.538  0.00  0.00    -0.467 OA
ATOM     34  C   UNL     1       0.324   0.355   4.678  0.00  0.00    +0.280 C 
ENDBRANCH  31  33
ENDBRANCH  13  31
TORSDOF 8
