REMARK  Name = ZINC58881200
REMARK  9 active torsions:
REMARK  status: ('A' for Active; 'I' for Inactive)
REMARK    1  A    between atoms: C_3  and  O_22
REMARK    2  A    between atoms: C_6  and  C_7
REMARK    3  A    between atoms: N_8  and  N_9
REMARK    4  A    between atoms: C_10  and  C_12
REMARK    5  A    between atoms: N_14  and  C_15
REMARK    6  A    between atoms: O_22  and  C_23
REMARK    7  A    between atoms: C_23  and  C_24
REMARK    8  A    between atoms: N_26  and  C_27
REMARK    9  A    between atoms: C_27  and  C_28
REMARK                            x       y       z     vdW  Elec       q    Type
REMARK                         _______ _______ _______ _____ _____    ______ ____
ROOT
ATOM      1  C   UNL     1      -0.016   1.393  -0.007  0.00  0.00    +0.013 A 
ATOM      2  C   UNL     1       1.169   2.096  -0.023  0.00  0.00    +0.046 A 
ATOM      3  C   UNL     1       2.381   1.418  -0.049  0.00  0.00    +0.121 A 
ATOM      4  C   UNL     1       2.405   0.029  -0.059  0.00  0.00    +0.046 A 
ATOM      5  C   UNL     1       1.225  -0.682  -0.043  0.00  0.00    +0.013 A 
ATOM      6  C   UNL     1       0.003  -0.004  -0.017  0.00  0.00    -0.005 A 
ENDROOT
BRANCH   6   7
ATOM      7  C   UNL     1      -1.262  -0.760  -0.000  0.00  0.00    +0.138 C 
ATOM      8  N   UNL     1      -1.242  -2.060  -0.009  0.00  0.00    -0.187 NA
BRANCH   8   9
ATOM      9  N   UNL     1      -2.444  -2.779   0.007  0.00  0.00    -0.199 N 
ATOM     10  C   UNL     1      -2.424  -4.126  -0.003  0.00  0.00    +0.318 C 
ATOM     11  O   UNL     1      -1.363  -4.717  -0.025  0.00  0.00    -0.263 OA
ATOM     12  H   UNL     1      -3.292  -2.307   0.025  0.00  0.00    +0.178 HD
BRANCH  10  13
ATOM     13  C   UNL     1      -3.703  -4.891   0.015  0.00  0.00    +0.305 C 
ATOM     14  O   UNL     1      -4.764  -4.301   0.037  0.00  0.00    -0.265 OA
ATOM     15  N   UNL     1      -3.683  -6.239   0.005  0.00  0.00    -0.278 N 
ATOM     16  H   UNL     1      -2.840  -6.710  -0.080  0.00  0.00    +0.155 HD
BRANCH  15  17
ATOM     17  C   UNL     1      -4.877  -6.957   0.119  0.00  0.00    +0.034 A 
ATOM     18  C   UNL     1      -4.902  -8.159   0.814  0.00  0.00    +0.025 A 
ATOM     19  C   UNL     1      -6.083  -8.866   0.925  0.00  0.00    +0.022 A 
ATOM     20  C   UNL     1      -7.241  -8.378   0.344  0.00  0.00    +0.041 A 
ATOM     21  C   UNL     1      -7.218  -7.180  -0.349  0.00  0.00    +0.022 A 
ATOM     22  C   UNL     1      -6.041  -6.466  -0.459  0.00  0.00    +0.025 A 
ATOM     23 CL   UNL     1      -8.723  -9.270   0.485  0.00  0.00    -0.084 Cl
ENDBRANCH  15  17
ENDBRANCH  10  13
ENDBRANCH   8   9
ENDBRANCH   6   7
BRANCH   3  24
ATOM     24  O   UNL     1       3.546   2.115  -0.064  0.00  0.00    -0.483 OA
BRANCH  24  25
ATOM     25  C   UNL     1       4.756   1.355  -0.091  0.00  0.00    +0.324 C 
BRANCH  25  26
ATOM     26  C   UNL     1       5.937   2.291  -0.105  0.00  0.00    +0.251 C 
ATOM     27  O   UNL     1       5.760   3.491  -0.094  0.00  0.00    -0.272 OA
ATOM     28  N   UNL     1       7.190   1.795  -0.130  0.00  0.00    -0.310 N 
ATOM     29  H   UNL     1       7.332   0.836  -0.139  0.00  0.00    +0.149 HD
BRANCH  28  30
ATOM     30  C   UNL     1       8.338   2.705  -0.144  0.00  0.00    +0.135 C 
BRANCH  30  31
ATOM     31  C   UNL     1       9.634   1.892  -0.172  0.00  0.00    +0.135 C 
ATOM     32  C   UNL     1      10.862   2.836  -0.152  0.00  0.00    +0.035 C 
ATOM     33  C   UNL     1      11.943   1.900   0.454  0.00  0.00    +0.031 C 
ATOM     34  C   UNL     1      11.120   1.041   1.437  0.00  0.00    +0.160 C 
ATOM     35  O   UNL     1       9.749   1.097   1.019  0.00  0.00    -0.375 OA
ENDBRANCH  30  31
ENDBRANCH  28  30
ENDBRANCH  25  26
ENDBRANCH  24  25
ENDBRANCH   3  24
TORSDOF 9
