REMARK  Name = ZINC17089939
REMARK  7 active torsions:
REMARK  status: ('A' for Active; 'I' for Inactive)
REMARK    1  A    between atoms: C_1  and  C_2
REMARK    2  A    between atoms: C_2  and  C_3
REMARK    3  A    between atoms: C_2  and  C_4
REMARK    4  A    between atoms: C_7  and  C_10
REMARK    5  A    between atoms: C_15  and  C_23
REMARK    6  A    between atoms: C_26  and  O_29
REMARK    7  A    between atoms: O_29  and  C_30
REMARK                            x       y       z     vdW  Elec       q    Type
REMARK                         _______ _______ _______ _____ _____    ______ ____
ROOT
ATOM      1  C   UNL     1      -5.419  -2.005   0.043  0.00  0.00    +0.032 C 
ATOM      2  C   UNL     1      -6.159  -1.517  -1.204  0.00  0.00    +0.060 C 
ATOM      3  C   UNL     1      -7.563  -2.074  -1.211  0.00  0.00    +0.020 C 
ATOM      4  C   UNL     1      -7.833  -3.279  -0.665  0.00  0.00    +0.041 C 
ATOM      5  C   UNL     1      -9.225  -3.871  -0.672  0.00  0.00    +0.175 C 
ATOM      6  N   UNL     1     -10.201  -2.845  -1.014  0.00  0.00    -0.221 N 
ATOM      7  C   UNL     1      -9.865  -1.642  -1.543  0.00  0.00    +0.218 A 
ATOM      8  N   UNL     1     -10.964  -0.965  -1.736  0.00  0.00    -0.201 NA
ATOM      9  C   UNL     1     -12.013  -1.694  -1.343  0.00  0.00    +0.247 A 
ATOM     10  N   UNL     1     -11.590  -2.850  -0.894  0.00  0.00    -0.156 NA
ATOM     11  N   UNL     1      -8.544  -1.303  -1.786  0.00  0.00    -0.287 N 
ATOM     12  C   UNL     1      -6.818  -4.040  -0.058  0.00  0.00    +0.164 C 
ATOM     13  O   UNL     1      -7.090  -5.128   0.410  0.00  0.00    -0.292 OA
ATOM     14  C   UNL     1      -5.404  -3.537   0.027  0.00  0.00    +0.088 C 
ATOM     15  H   UNL     1      -8.319  -0.543  -2.345  0.00  0.00    +0.155 HD
ENDROOT
BRANCH   1  19
ATOM     16  C   UNL     1      -1.412  -0.526   0.013  0.00  0.00    -0.045 A 
ATOM     17  C   UNL     1      -2.259  -0.204   1.056  0.00  0.00    +0.004 A 
ATOM     18  C   UNL     1      -3.556  -0.683   1.066  0.00  0.00    +0.004 A 
ATOM     19  C   UNL     1      -4.006  -1.482   0.032  0.00  0.00    -0.043 A 
ATOM     20  C   UNL     1      -3.159  -1.803  -1.012  0.00  0.00    +0.004 A 
ATOM     21  C   UNL     1      -1.863  -1.321  -1.024  0.00  0.00    +0.004 A 
BRANCH  16  23
ATOM     22  C   UNL     1      -0.019   1.526   0.010  0.00  0.00    +0.012 C 
ATOM     23  C   UNL     1       0.002  -0.004   0.002  0.00  0.00    +0.013 C 
ATOM     24  C   UNL     1       0.742  -0.511   1.242  0.00  0.00    +0.012 C 
ENDBRANCH  16  23
ENDBRANCH   1  19
BRANCH   5  25
ATOM     25  C   UNL     1      -9.292  -4.981  -1.690  0.00  0.00    -0.018 A 
ATOM     26  C   UNL     1      -9.029  -4.714  -3.021  0.00  0.00    +0.009 A 
ATOM     27  C   UNL     1      -9.091  -5.729  -3.955  0.00  0.00    +0.046 A 
ATOM     28  C   UNL     1      -9.416  -7.018  -3.557  0.00  0.00    +0.120 A 
ATOM     29  C   UNL     1      -9.679  -7.283  -2.221  0.00  0.00    +0.046 A 
ATOM     30  C   UNL     1      -9.611  -6.266  -1.290  0.00  0.00    +0.009 A 
BRANCH  28  31
ATOM     31  O   UNL     1      -9.477  -8.018  -4.475  0.00  0.00    -0.495 OA
ATOM     32  C   UNL     1      -9.818  -9.320  -3.994  0.00  0.00    +0.277 C 
ENDBRANCH  28  31
ENDBRANCH   5  25
TORSDOF 4
