REMARK  Name = ZINC00666544
REMARK  10 active torsions:
REMARK  status: ('A' for Active; 'I' for Inactive)
REMARK    1  A    between atoms: C_1  and  C_2
REMARK    2  A    between atoms: C_2  and  O_3
REMARK    3  A    between atoms: O_3  and  C_4
REMARK    4  A    between atoms: C_7  and  N_10
REMARK    5  A    between atoms: C_11  and  C_13
REMARK    6  A    between atoms: C_14  and  C_30
REMARK    7  A    between atoms: C_19  and  C_21
REMARK    8  A    between atoms: C_24  and  N_27
REMARK    9  A    between atoms: N_27  and  C_28
REMARK   10  A    between atoms: N_27  and  C_29
REMARK                            x       y       z     vdW  Elec       q    Type
REMARK                         _______ _______ _______ _____ _____    ______ ____
ROOT
ATOM      1  C   UNL     1      -1.443   4.080   0.777  0.00  0.00    +0.056 C 
ATOM      2  C   UNL     1      -0.345   4.429   1.480  0.00  0.00    +0.017 C 
ATOM      3  N   UNL     1       0.823   3.732   1.355  0.00  0.00    -0.300 N 
ATOM      4  C   UNL     1       0.973   2.673   0.549  0.00  0.00    +0.135 C 
ATOM      5  S   UNL     1       2.493   1.888   0.487  0.00  0.00    -0.019 S 
ATOM      6  N   UNL     1      -0.034   2.206  -0.215  0.00  0.00    -0.315 N 
ATOM      7  C   UNL     1      -1.335   2.893  -0.158  0.00  0.00    +0.139 C 
ATOM      8  C   UNL     1      -0.408   5.608   2.417  0.00  0.00    +0.061 C 
ATOM      9  H   UNL     1       1.586   4.020   1.879  0.00  0.00    +0.154 HD
ATOM     10  H   UNL     1       0.097   1.437  -0.793  0.00  0.00    +0.149 HD
ENDROOT
BRANCH   7  11
ATOM     11  C   UNL     1      -2.375   1.884   0.257  0.00  0.00    -0.023 A 
ATOM     12  C   UNL     1      -2.163   1.093   1.371  0.00  0.00    +0.007 A 
ATOM     13  C   UNL     1      -3.117   0.171   1.757  0.00  0.00    +0.023 A 
ATOM     14  C   UNL     1      -4.285   0.033   1.018  0.00  0.00    +0.029 A 
ATOM     15  C   UNL     1      -4.492   0.825  -0.103  0.00  0.00    +0.023 A 
ATOM     16  C   UNL     1      -3.537   1.749  -0.481  0.00  0.00    +0.007 A 
BRANCH  14  17
ATOM     17  N   UNL     1      -5.249  -0.903   1.402  0.00  0.00    -0.336 N 
ATOM     18  C   UNL     1      -6.483  -1.044   0.626  0.00  0.00    +0.129 C 
ATOM     19  C   UNL     1      -5.026  -1.743   2.582  0.00  0.00    +0.129 C 
ENDBRANCH  14  17
ENDBRANCH   7  11
BRANCH   1  21
ATOM     20  N   UNL     1      -3.411   4.660   2.012  0.00  0.00    -0.282 N 
ATOM     21  C   UNL     1      -2.655   4.803   0.906  0.00  0.00    +0.248 C 
ATOM     22  O   UNL     1      -3.013   5.554   0.016  0.00  0.00    -0.270 OA
ATOM     23  H   UNL     1      -3.079   4.143   2.763  0.00  0.00    +0.155 HD
BRANCH  20  27
ATOM     24  C   UNL     1      -7.175   6.441   2.209  0.00  0.00    +0.121 A 
ATOM     25  C   UNL     1      -6.410   6.309   3.358  0.00  0.00    +0.047 A 
ATOM     26  C   UNL     1      -5.163   5.719   3.294  0.00  0.00    +0.027 A 
ATOM     27  C   UNL     1      -4.675   5.258   2.078  0.00  0.00    +0.034 A 
ATOM     28  C   UNL     1      -5.440   5.395   0.927  0.00  0.00    +0.027 A 
ATOM     29  C   UNL     1      -6.689   5.979   0.994  0.00  0.00    +0.047 A 
BRANCH  24  30
ATOM     30  O   UNL     1      -8.403   7.021   2.273  0.00  0.00    -0.492 OA
BRANCH  30  32
ATOM     31  C   UNL     1     -10.484   7.799   1.320  0.00  0.00    +0.048 C 
ATOM     32  C   UNL     1      -9.137   7.124   1.052  0.00  0.00    +0.225 C 
ENDBRANCH  30  32
ENDBRANCH  24  30
ENDBRANCH  20  27
ENDBRANCH   1  21
TORSDOF 6
