REMARK  Name = ZINC05108033
REMARK  6 active torsions:
REMARK  status: ('A' for Active; 'I' for Inactive)
REMARK    1  A    between atoms: C_6  and  C_7
REMARK    2  A    between atoms: C_10  and  S_13
REMARK    3  A    between atoms: S_13  and  C_14
REMARK    4  A    between atoms: C_14  and  C_15
REMARK    5  A    between atoms: N_17  and  C_18
REMARK    6  A    between atoms: C_21  and  N_24
REMARK                            x       y       z     vdW  Elec       q    Type
REMARK                         _______ _______ _______ _____ _____    ______ ____
ROOT
ATOM      1  S   UNL     1      -0.891   1.685  -1.462  0.00  0.00    -0.095 S 
ENDROOT
BRANCH   1   5
ATOM      2  C   UNL     1       1.520  -0.009  -4.805  0.00  0.00    +0.093 A 
ATOM      3  C   UNL     1       0.407   0.766  -5.148  0.00  0.00    +0.033 A 
ATOM      4  C   UNL     1      -0.353   1.300  -4.123  0.00  0.00    +0.039 A 
ATOM      5  C   UNL     1       0.038   1.032  -2.809  0.00  0.00    +0.120 A 
ATOM      6  N   UNL     1       1.112   0.290  -2.577  0.00  0.00    -0.142 NA
ATOM      7  N   UNL     1       1.815  -0.210  -3.527  0.00  0.00    -0.148 NA
BRANCH   2  13
ATOM      8  C   UNL     1       2.055  -0.397  -7.209  0.00  0.00    +0.013 A 
ATOM      9  C   UNL     1       2.849  -0.948  -8.193  0.00  0.00    +0.039 A 
ATOM     10  C   UNL     1       3.951  -1.714  -7.849  0.00  0.00    +0.123 A 
ATOM     11  C   UNL     1       4.263  -1.927  -6.515  0.00  0.00    +0.039 A 
ATOM     12  C   UNL     1       3.477  -1.376  -5.524  0.00  0.00    +0.013 A 
ATOM     13  C   UNL     1       2.368  -0.604  -5.866  0.00  0.00    +0.002 A 
ATOM     14  F   UNL     1       4.723  -2.256  -8.816  0.00  0.00    -0.205 F 
ENDBRANCH   2  13
ENDBRANCH   1   5
BRANCH   1  15
ATOM     15  C   UNL     1      -0.016   1.080   0.008  0.00  0.00    +0.172 C 
BRANCH  15  16
ATOM     16  C   UNL     1      -0.717   1.573   1.248  0.00  0.00    +0.227 C 
ATOM     17  O   UNL     1      -1.709   2.264   1.150  0.00  0.00    -0.275 OA
ATOM     18  N   UNL     1      -0.242   1.246   2.466  0.00  0.00    -0.285 N 
ATOM     19  H   UNL     1       0.511   0.639   2.546  0.00  0.00    +0.155 HD
BRANCH  18  20
ATOM     20  C   UNL     1      -0.833   1.782   3.615  0.00  0.00    +0.034 A 
ATOM     21  C   UNL     1      -0.052   2.086   4.722  0.00  0.00    +0.025 A 
ATOM     22  C   UNL     1      -0.639   2.620   5.853  0.00  0.00    +0.034 A 
ATOM     23  C   UNL     1      -2.003   2.842   5.887  0.00  0.00    +0.126 A 
ATOM     24  C   UNL     1      -2.784   2.535   4.788  0.00  0.00    +0.034 A 
ATOM     25  C   UNL     1      -2.203   2.006   3.652  0.00  0.00    +0.025 A 
BRANCH  23  26
ATOM     26  N   UNL     1      -2.629   3.409   7.103  0.00  0.00    +0.056 N 
ATOM     27  O   UNL     1      -3.831   3.604   7.134  0.00  0.00    -0.126 OA
ATOM     28  O   UNL     1      -1.943   3.680   8.072  0.00  0.00    -0.126 OA
ENDBRANCH  23  26
ENDBRANCH  18  20
ENDBRANCH  15  16
ENDBRANCH   1  15
TORSDOF 6
