REMARK  Name = ZINC08816206
REMARK  8 active torsions:
REMARK  status: ('A' for Active; 'I' for Inactive)
REMARK    1  A    between atoms: C_1  and  C_2
REMARK    2  A    between atoms: C_2  and  C_3
REMARK    3  A    between atoms: C_6  and  N_8
REMARK    4  A    between atoms: N_8  and  S_9
REMARK    5  A    between atoms: S_9  and  C_12
REMARK    6  A    between atoms: C_15  and  N_18
REMARK    7  A    between atoms: N_18  and  C_19
REMARK    8  A    between atoms: C_24  and  N_25
REMARK                            x       y       z     vdW  Elec       q    Type
REMARK                         _______ _______ _______ _____ _____    ______ ____
ROOT
ATOM      1  C   UNL     1      -7.339  -3.475   0.890  0.00  0.00    +0.111 A 
ATOM      2  C   UNL     1      -7.850  -4.758   0.971  0.00  0.00    +0.031 A 
ATOM      3  C   UNL     1      -9.099  -4.972   1.520  0.00  0.00    +0.025 A 
ATOM      4  C   UNL     1      -9.842  -3.897   1.992  0.00  0.00    +0.031 A 
ATOM      5  C   UNL     1      -9.326  -2.610   1.909  0.00  0.00    +0.025 A 
ATOM      6  C   UNL     1      -8.074  -2.404   1.364  0.00  0.00    +0.031 A 
ENDROOT
BRANCH   1   7
ATOM      7  S   UNL     1      -5.746  -3.206   0.188  0.00  0.00    +0.094 S 
ATOM      8  O   UNL     1      -5.723  -1.859  -0.264  0.00  0.00    -0.148 OA
ATOM      9  O   UNL     1      -5.492  -4.304  -0.677  0.00  0.00    -0.148 OA
BRANCH   7  10
ATOM     10  N   UNL     1      -4.644  -3.310   1.420  0.00  0.00    -0.068 NA
BRANCH  10  14
ATOM     11  C   UNL     1      -0.648  -2.865   1.019  0.00  0.00    +0.104 A 
ATOM     12  N   UNL     1      -1.417  -2.757  -0.045  0.00  0.00    -0.145 NA
ATOM     13  N   UNL     1      -2.670  -2.886   0.015  0.00  0.00    -0.123 NA
ATOM     14  C   UNL     1      -3.293  -3.139   1.159  0.00  0.00    +0.224 A 
ATOM     15  S   UNL     1      -1.888  -3.201   2.267  0.00  0.00    -0.032 S 
BRANCH  11  17
ATOM     16  C   UNL     1       1.221  -1.290   1.440  0.00  0.00    +0.011 C 
ATOM     17  C   UNL     1       0.849  -2.745   1.149  0.00  0.00    +0.061 C 
ENDBRANCH  11  17
ENDBRANCH  10  14
ENDBRANCH   7  10
ENDBRANCH   1   7
BRANCH   4  18
ATOM     18  N   UNL     1     -11.106  -4.110   2.548  0.00  0.00    -0.313 N 
ATOM     19  H   UNL     1     -11.362  -3.648   3.361  0.00  0.00    +0.152 HD
BRANCH  18  20
ATOM     20  C   UNL     1     -11.999  -4.987   1.933  0.00  0.00    +0.064 A 
ATOM     21  C   UNL     1     -11.672  -5.513   0.670  0.00  0.00    +0.028 A 
ATOM     22  C   UNL     1     -12.495  -6.367   0.022  0.00  0.00    +0.035 A 
ATOM     23  C   UNL     1     -13.758  -6.755   0.651  0.00  0.00    +0.137 A 
ATOM     24  C   UNL     1     -14.080  -6.190   1.978  0.00  0.00    +0.166 A 
ATOM     25  C   UNL     1     -13.151  -5.308   2.578  0.00  0.00    +0.178 A 
ATOM     26  N   UNL     1     -15.246  -6.667   2.350  0.00  0.00    -0.047 NA
ATOM     27  O   UNL     1     -15.714  -7.526   1.325  0.00  0.00    -0.242 OA
ATOM     28  N   UNL     1     -14.744  -7.541   0.292  0.00  0.00    -0.049 NA
BRANCH  25  29
ATOM     29  N   UNL     1     -13.438  -4.727   3.910  0.00  0.00    +0.061 N 
ATOM     30  O   UNL     1     -14.037  -3.680   3.996  0.00  0.00    -0.126 OA
ATOM     31  O   UNL     1     -13.075  -5.300   4.910  0.00  0.00    -0.126 OA
ENDBRANCH  25  29
ENDBRANCH  18  20
ENDBRANCH   4  18
TORSDOF 7
