REMARK  Name = ZINC36597124
REMARK  9 active torsions:
REMARK  status: ('A' for Active; 'I' for Inactive)
REMARK    1  A    between atoms: C_1  and  C_2
REMARK    2  A    between atoms: C_2  and  C_3
REMARK    3  A    between atoms: C_3  and  C_5
REMARK    4  A    between atoms: C_3  and  C_6
REMARK    5  A    between atoms: C_6  and  C_8
REMARK    6  A    between atoms: C_6  and  N_12
REMARK    7  A    between atoms: C_8  and  O_10
REMARK    8  A    between atoms: O_10  and  C_11
REMARK    9  A    between atoms: N_27  and  C_30
REMARK                            x       y       z     vdW  Elec       q    Type
REMARK                         _______ _______ _______ _____ _____    ______ ____
ROOT
ATOM      1  N   UNL     1      -3.447  -0.518  -0.740  0.00  0.00    -0.286 N 
ATOM      2  C   UNL     1      -3.919  -1.536  -1.486  0.00  0.00    +0.304 C 
ATOM      3  O   UNL     1      -3.149  -2.232  -2.120  0.00  0.00    -0.253 OA
ATOM      4  N   UNL     1      -5.243  -1.782  -1.530  0.00  0.00    -0.274 N 
ATOM      5  C   UNL     1      -6.217  -0.711  -1.271  0.00  0.00    +0.116 C 
ATOM      6  C   UNL     1      -7.043  -0.465  -2.541  0.00  0.00    +0.074 C 
ATOM      7  C   UNL     1      -7.463  -1.793  -3.114  0.00  0.00    +0.040 A 
ATOM      8  C   UNL     1      -6.891  -2.979  -2.810  0.00  0.00    +0.060 A 
ATOM      9  N   UNL     1      -7.517  -3.931  -3.506  0.00  0.00    -0.348 N 
ATOM     10  C   UNL     1      -8.459  -3.384  -4.229  0.00  0.00    +0.171 A 
ATOM     11  N   UNL     1      -8.456  -2.049  -4.010  0.00  0.00    -0.349 N 
ATOM     12  H   UNL     1      -9.049  -1.397  -4.415  0.00  0.00    +0.166 HD
ATOM     13  C   UNL     1      -5.748  -3.127  -1.844  0.00  0.00    +0.077 C 
ATOM     14  C   UNL     1      -6.237  -3.806  -0.566  0.00  0.00    +0.014 C 
ATOM     15  C   UNL     1      -5.052  -4.019   0.380  0.00  0.00    -0.077 C 
ATOM     16  N   UNL     1      -4.042  -4.858  -0.277  0.00  0.00    +0.378 N 
ATOM     17  C   UNL     1      -3.513  -4.167  -1.459  0.00  0.00    -0.077 C 
ATOM     18  C   UNL     1      -4.636  -3.961  -2.479  0.00  0.00    +0.014 C 
ATOM     19  C   UNL     1      -2.946  -5.127   0.663  0.00  0.00    -0.096 C 
ATOM     20  H   UNL     1      -4.046  -0.027  -0.155  0.00  0.00    +0.151 HD
ATOM     21  H   UNL     1      -4.463  -5.730  -0.558  0.00  0.00    -0.082 HD
ATOM     22  H   UNL     1      -7.307  -4.877  -3.478  0.00  0.00    +0.166 HD
ENDROOT
BRANCH   1  23
ATOM     23  C   UNL     1      -2.030  -0.152  -0.810  0.00  0.00    +0.186 C 
BRANCH  23  24
ATOM     24  C   UNL     1      -1.228  -1.034   0.149  0.00  0.00    +0.017 C 
ATOM     25  C   UNL     1      -2.102  -1.413   1.345  0.00  0.00    +0.010 C 
BRANCH  24  27
ATOM     26  C   UNL     1       0.127  -1.926  -1.752  0.00  0.00    +0.004 C 
ATOM     27  C   UNL     1      -0.780  -2.303  -0.579  0.00  0.00    +0.002 C 
ENDBRANCH  24  27
ENDBRANCH  23  24
BRANCH  23  28
ATOM     28  C   UNL     1      -1.864   1.294  -0.421  0.00  0.00    +0.328 C 
ATOM     29  O   UNL     1      -2.834   1.961  -0.149  0.00  0.00    -0.249 OA
BRANCH  28  30
ATOM     30  O   UNL     1      -0.639   1.841  -0.377  0.00  0.00    -0.467 OA
ATOM     31  C   UNL     1      -0.544   3.182   0.106  0.00  0.00    +0.280 C 
ENDBRANCH  28  30
ENDBRANCH  23  28
ENDBRANCH   1  23
TORSDOF 5
