REMARK  Name = ZINC05358772
REMARK  8 active torsions:
REMARK  status: ('A' for Active; 'I' for Inactive)
REMARK    1  A    between atoms: C_1  and  C_2
REMARK    2  A    between atoms: C_6  and  N_26
REMARK    3  A    between atoms: C_7  and  N_8
REMARK    4  A    between atoms: C_9  and  C_11
REMARK    5  A    between atoms: C_11  and  S_12
REMARK    6  A    between atoms: S_12  and  C_13
REMARK    7  A    between atoms: C_16  and  C_21
REMARK    8  A    between atoms: N_17  and  C_18
REMARK                            x       y       z     vdW  Elec       q    Type
REMARK                         _______ _______ _______ _____ _____    ______ ____
ROOT
ATOM      1  C   UNL     1       1.078   0.545   0.852  0.00  0.00    +0.173 C 
ENDROOT
BRANCH   1   3
ATOM      2  N   UNL     1       0.460   0.605   3.246  0.00  0.00    -0.283 N 
ATOM      3  C   UNL     1       0.126   0.263   1.986  0.00  0.00    +0.228 C 
ATOM      4  O   UNL     1      -0.939  -0.273   1.765  0.00  0.00    -0.275 OA
ATOM      5  H   UNL     1       1.285   1.085   3.417  0.00  0.00    +0.155 HD
BRANCH   2  12
ATOM      6  C   UNL     1      -2.094   1.854   3.381  0.00  0.00    +0.046 C 
ATOM      7  C   UNL     1      -1.641   0.854   4.413  0.00  0.00    -0.027 A 
ATOM      8  C   UNL     1      -2.473   0.519   5.463  0.00  0.00    +0.005 A 
ATOM      9  C   UNL     1      -2.058  -0.398   6.411  0.00  0.00    +0.003 A 
ATOM     10  C   UNL     1      -0.808  -0.983   6.311  0.00  0.00    +0.034 A 
ATOM     11  C   UNL     1       0.026  -0.657   5.260  0.00  0.00    +0.148 A 
ATOM     12  C   UNL     1      -0.386   0.268   4.309  0.00  0.00    +0.067 A 
BRANCH  11  13
ATOM     13  N   UNL     1       1.360  -1.288   5.150  0.00  0.00    +0.058 N 
ATOM     14  O   UNL     1       1.763  -2.019   6.037  0.00  0.00    -0.126 OA
ATOM     15  O   UNL     1       2.055  -1.077   4.172  0.00  0.00    -0.126 OA
ENDBRANCH  11  13
ENDBRANCH   2  12
ENDBRANCH   1   3
BRANCH   1  16
ATOM     16  S   UNL     1       0.350  -0.027  -0.703  0.00  0.00    -0.077 S 
BRANCH  16  17
ATOM     17  C   UNL     1       1.635   0.415  -1.824  0.00  0.00    +0.193 A 
ATOM     18  N   UNL     1       2.769   1.002  -1.516  0.00  0.00    -0.122 NA
ATOM     19  N   UNL     1       3.480   1.175  -2.572  0.00  0.00    -0.128 NA
ATOM     20  C   UNL     1       2.838   0.718  -3.625  0.00  0.00    +0.172 A 
ATOM     21  N   UNL     1       1.636   0.216  -3.177  0.00  0.00    -0.299 N 
BRANCH  20  22
ATOM     22  C   UNL     1       3.313   0.738  -5.018  0.00  0.00    +0.056 A 
ATOM     23  C   UNL     1       4.347   1.453  -5.568  0.00  0.00    +0.019 A 
ATOM     24  C   UNL     1       4.609   1.307  -6.912  0.00  0.00    +0.008 A 
ATOM     25  C   UNL     1       3.840   0.465  -7.649  0.00  0.00    +0.046 A 
ATOM     26  S   UNL     1       2.700  -0.167  -6.429  0.00  0.00    -0.094 S 
ENDBRANCH  20  22
BRANCH  21  27
ATOM     27  C   UNL     1       0.578  -0.401  -3.981  0.00  0.00    +0.091 C 
ATOM     28  C   UNL     1      -0.814  -0.509  -3.355  0.00  0.00    +0.027 C 
ATOM     29  C   UNL     1       0.049  -1.762  -3.527  0.00  0.00    +0.027 C 
ENDBRANCH  21  27
ENDBRANCH  16  17
ENDBRANCH   1  16
TORSDOF 7
