REMARK  Name = ZINC63194356
REMARK  7 active torsions:
REMARK  status: ('A' for Active; 'I' for Inactive)
REMARK    1  A    between atoms: C_7  and  C_10
REMARK    2  A    between atoms: C_10  and  C_11
REMARK    3  A    between atoms: C_11  and  C_13
REMARK    4  A    between atoms: C_11  and  N_28
REMARK    5  A    between atoms: N_15  and  C_16
REMARK    6  A    between atoms: C_19  and  N_22
REMARK    7  A    between atoms: C_29  and  C_31
REMARK                            x       y       z     vdW  Elec       q    Type
REMARK                         _______ _______ _______ _____ _____    ______ ____
ROOT
ATOM      1  C   UNL     1       0.458  -3.653  -1.459  0.00  0.00    +0.163 C 
ENDROOT
BRANCH   1   2
ATOM      2  C   UNL     1      -0.390  -4.899  -1.440  0.00  0.00    +0.238 C 
ATOM      3  O   UNL     1      -1.474  -4.903  -1.984  0.00  0.00    -0.273 OA
ATOM      4  N   UNL     1       0.057  -6.008  -0.819  0.00  0.00    -0.284 N 
ATOM      5  H   UNL     1       0.949  -6.026  -0.440  0.00  0.00    +0.155 HD
BRANCH   4   6
ATOM      6  C   UNL     1      -0.769  -7.136  -0.720  0.00  0.00    +0.034 A 
ATOM      7  C   UNL     1      -0.721  -7.933   0.416  0.00  0.00    +0.025 A 
ATOM      8  C   UNL     1      -1.535  -9.044   0.513  0.00  0.00    +0.025 A 
ATOM      9  C   UNL     1      -2.400  -9.365  -0.524  0.00  0.00    +0.036 A 
ATOM     10  C   UNL     1      -2.447  -8.567  -1.660  0.00  0.00    +0.025 A 
ATOM     11  C   UNL     1      -1.638  -7.453  -1.755  0.00  0.00    +0.025 A 
BRANCH   9  12
ATOM     12  N   UNL     1      -3.225 -10.493  -0.426  0.00  0.00    -0.271 N 
ATOM     13  C   UNL     1      -4.081 -10.989  -1.509  0.00  0.00    +0.114 C 
ATOM     14  C   UNL     1      -4.443 -12.439  -1.117  0.00  0.00    +0.029 C 
ATOM     15  C   UNL     1      -4.302 -12.393   0.422  0.00  0.00    +0.098 C 
ATOM     16  C   UNL     1      -3.329 -11.263   0.671  0.00  0.00    +0.220 C 
ATOM     17  O   UNL     1      -2.731 -11.076   1.710  0.00  0.00    -0.275 OA
ENDBRANCH   9  12
ENDBRANCH   4   6
ENDBRANCH   1   2
BRANCH   1  18
ATOM     18  N   UNL     1      -0.244  -2.596  -2.191  0.00  0.00    -0.300 N 
ATOM     19  C   UNL     1       0.454  -1.602  -2.775  0.00  0.00    +0.245 C 
ATOM     20  O   UNL     1       1.667  -1.583  -2.694  0.00  0.00    -0.270 OA
ATOM     21  H   UNL     1      -1.212  -2.611  -2.255  0.00  0.00    +0.150 HD
BRANCH  19  22
ATOM     22  C   UNL     1      -0.254  -0.536  -3.513  0.00  0.00    +0.037 A 
ATOM     23  C   UNL     1      -1.647  -0.552  -3.602  0.00  0.00    +0.016 A 
ATOM     24  C   UNL     1      -2.303   0.445  -4.292  0.00  0.00    +0.039 A 
ATOM     25  C   UNL     1      -1.582   1.463  -4.896  0.00  0.00    +0.123 A 
ATOM     26  C   UNL     1      -0.198   1.484  -4.811  0.00  0.00    +0.039 A 
ATOM     27  C   UNL     1       0.467   0.495  -4.118  0.00  0.00    +0.016 A 
ATOM     28  F   UNL     1      -2.229   2.437  -5.572  0.00  0.00    -0.205 F 
ENDBRANCH  19  22
ENDBRANCH   1  18
BRANCH   1  29
ATOM     29  C   UNL     1       0.720  -3.192  -0.024  0.00  0.00    +0.065 C 
BRANCH  29  36
ATOM     30  C   UNL     1       0.038   1.345   0.040  0.00  0.00    +0.001 A 
ATOM     31  C   UNL     1       1.224   2.092   0.015  0.00  0.00    +0.002 A 
ATOM     32  C   UNL     1       2.445   1.520  -0.024  0.00  0.00    +0.026 A 
ATOM     33  C   UNL     1       2.575   0.103  -0.041  0.00  0.00    +0.043 A 
ATOM     34  N   UNL     1       3.629  -0.676  -0.078  0.00  0.00    -0.380 N 
ATOM     35  C   UNL     1       3.178  -2.072  -0.080  0.00  0.00    +0.144 C 
ATOM     36  C   UNL     1       1.667  -2.020  -0.037  0.00  0.00    -0.039 C 
ATOM     37  C   UNL     1       1.337  -0.708  -0.015  0.00  0.00    -0.001 A 
ATOM     38  C   UNL     1       0.049  -0.007   0.027  0.00  0.00    +0.010 A 
ATOM     39  H   UNL     1       4.552  -0.380  -0.101  0.00  0.00    +0.160 HD
ENDBRANCH  29  36
ENDBRANCH   1  29
TORSDOF 7
