REMARK  Name = ZINC59465299
REMARK  7 active torsions:
REMARK  status: ('A' for Active; 'I' for Inactive)
REMARK    1  A    between atoms: C_1  and  C_2
REMARK    2  A    between atoms: C_2  and  C_3
REMARK    3  A    between atoms: C_2  and  C_4
REMARK    4  A    between atoms: C_7  and  C_13
REMARK    5  A    between atoms: C_9  and  N_10
REMARK    6  A    between atoms: N_14  and  C_15
REMARK    7  A    between atoms: C_20  and  O_21
REMARK                            x       y       z     vdW  Elec       q    Type
REMARK                         _______ _______ _______ _____ _____    ______ ____
ROOT
ATOM      1  C   UNL     1      -1.388  -0.605   0.010  0.00  0.00    -0.015 A 
ATOM      2  C   UNL     1      -2.162  -0.649   1.157  0.00  0.00    +0.007 A 
ATOM      3  C   UNL     1      -3.527  -0.814   1.066  0.00  0.00    +0.010 A 
ATOM      4  C   UNL     1      -4.131  -0.936  -0.190  0.00  0.00    -0.005 A 
ATOM      5  C   UNL     1      -3.343  -0.890  -1.343  0.00  0.00    +0.042 A 
ATOM      6  C   UNL     1      -1.979  -0.719  -1.236  0.00  0.00    +0.130 A 
ENDROOT
BRANCH   1   8
ATOM      7  C   UNL     1       0.411   0.973   0.661  0.00  0.00    +0.012 C 
ATOM      8  C   UNL     1       0.104  -0.425   0.119  0.00  0.00    +0.015 C 
ATOM      9  C   UNL     1       0.677  -1.478   1.069  0.00  0.00    +0.012 C 
ENDBRANCH   1   8
BRANCH   6  10
ATOM     10  N   UNL     1      -1.143  -0.664  -2.457  0.00  0.00    +0.057 N 
ATOM     11  O   UNL     1      -0.242   0.137  -2.537  0.00  0.00    -0.126 OA
ATOM     12  O   UNL     1      -1.363  -1.421  -3.374  0.00  0.00    -0.126 OA
ENDBRANCH   6  10
BRANCH   4  13
ATOM     13  C   UNL     1      -5.589  -1.113  -0.296  0.00  0.00    +0.119 C 
ATOM     14  N   UNL     1      -6.320  -1.157   0.781  0.00  0.00    -0.251 NA
BRANCH  14  15
ATOM     15  C   UNL     1      -7.657  -1.431   0.690  0.00  0.00    +0.105 A 
ATOM     16  C   UNL     1      -8.100  -2.520  -0.063  0.00  0.00    +0.031 A 
ATOM     17  C   UNL     1      -9.450  -2.791  -0.150  0.00  0.00    +0.002 A 
ATOM     18  C   UNL     1     -10.367  -1.988   0.506  0.00  0.00    +0.004 A 
ATOM     19  C   UNL     1      -9.941  -0.907   1.254  0.00  0.00    +0.047 A 
ATOM     20  C   UNL     1      -8.589  -0.624   1.357  0.00  0.00    +0.142 A 
BRANCH  20  21
ATOM     21  O   UNL     1      -8.168   0.435   2.097  0.00  0.00    -0.505 OA
ATOM     22  H   UNL     1      -8.105   1.262   1.600  0.00  0.00    +0.292 HD
ENDBRANCH  20  21
ENDBRANCH  14  15
ENDBRANCH   4  13
TORSDOF 5
