REMARK  Name = ZINC04186744
REMARK  5 active torsions:
REMARK  status: ('A' for Active; 'I' for Inactive)
REMARK    1  A    between atoms: C_4  and  C_7
REMARK    2  A    between atoms: C_10  and  C_12
REMARK    3  A    between atoms: N_14  and  N_15
REMARK    4  A    between atoms: C_16  and  C_17
REMARK    5  A    between atoms: C_22  and  N_23
REMARK                            x       y       z     vdW  Elec       q    Type
REMARK                         _______ _______ _______ _____ _____    ______ ____
ROOT
ATOM      1  C   UNL     1      -0.139   3.174  -1.539  0.00  0.00    +0.236 C 
ATOM      2  O   UNL     1      -1.026   3.610  -0.836  0.00  0.00    -0.274 OA
ATOM      3  N   UNL     1       0.211   3.826  -2.664  0.00  0.00    -0.207 N 
ATOM      4  H   UNL     1       0.921   3.477  -3.227  0.00  0.00    +0.177 HD
ENDROOT
BRANCH   1   7
ATOM      5  C   UNL     1       0.126   1.207   0.136  0.00  0.00    +0.032 C 
ATOM      6  C   UNL     1       1.468   1.940   0.085  0.00  0.00    +0.022 C 
ATOM      7  C   UNL     1       0.570   1.901  -1.153  0.00  0.00    +0.085 C 
BRANCH   5  11
ATOM      8  C   UNL     1      -3.030   3.023   2.369  0.00  0.00    +0.000 A 
ATOM      9  C   UNL     1      -3.180   1.739   1.879  0.00  0.00    +0.000 A 
ATOM     10  C   UNL     1      -2.159   1.152   1.156  0.00  0.00    +0.004 A 
ATOM     11  C   UNL     1      -0.987   1.848   0.923  0.00  0.00    -0.044 A 
ATOM     12  C   UNL     1      -0.835   3.130   1.418  0.00  0.00    +0.004 A 
ATOM     13  C   UNL     1      -1.858   3.719   2.137  0.00  0.00    +0.000 A 
ENDBRANCH   5  11
ENDBRANCH   1   7
BRANCH   3  14
ATOM     14  N   UNL     1      -0.448   5.009  -3.023  0.00  0.00    -0.188 NA
ATOM     15  C   UNL     1      -0.111   5.638  -4.106  0.00  0.00    +0.140 C 
BRANCH  15  16
ATOM     16  C   UNL     1      -0.805   6.883  -4.484  0.00  0.00    +0.025 A 
ATOM     17  C   UNL     1      -1.907   7.324  -3.745  0.00  0.00    +0.012 A 
ATOM     18  C   UNL     1      -2.551   8.489  -4.103  0.00  0.00    +0.001 A 
ATOM     19  C   UNL     1      -2.109   9.222  -5.191  0.00  0.00    +0.002 A 
ATOM     20  C   UNL     1      -1.019   8.792  -5.926  0.00  0.00    +0.033 A 
ATOM     21  C   UNL     1      -0.362   7.630  -5.577  0.00  0.00    +0.135 A 
BRANCH  21  22
ATOM     22  N   UNL     1       0.808   7.175  -6.361  0.00  0.00    +0.057 N 
ATOM     23  O   UNL     1       1.262   7.881  -7.243  0.00  0.00    -0.126 OA
ATOM     24  O   UNL     1       1.316   6.093  -6.125  0.00  0.00    -0.126 OA
ENDBRANCH  21  22
ENDBRANCH  15  16
ENDBRANCH   3  14
TORSDOF 5
