REMARK  Name = ZINC09812259
REMARK  12 active torsions:
REMARK  status: ('A' for Active; 'I' for Inactive)
REMARK    1  A    between atoms: C_1  and  C_2
REMARK    2  A    between atoms: C_2  and  O_3
REMARK    3  A    between atoms: O_3  and  C_4
REMARK    4  A    between atoms: C_4  and  C_6
REMARK    5  A    between atoms: C_7  and  C_14
REMARK    6  A    between atoms: C_8  and  C_12
REMARK    7  A    between atoms: C_9  and  N_11
REMARK    8  A    between atoms: C_14  and  O_15
REMARK    9  A    between atoms: O_15  and  C_16
REMARK   10  A    between atoms: C_16  and  C_18
REMARK   11  A    between atoms: C_19  and  C_31
REMARK   12  A    between atoms: N_21  and  C_24
REMARK                            x       y       z     vdW  Elec       q    Type
REMARK                         _______ _______ _______ _____ _____    ______ ____
ROOT
ATOM      1  O   UNL     1       2.923   1.267  -1.387  0.00  0.00    -0.456 OA
ENDROOT
BRANCH   1   2
ATOM      2  C   UNL     1       4.113   0.665  -1.578  0.00  0.00    +0.344 C 
ATOM      3  O   UNL     1       4.782   0.325  -0.622  0.00  0.00    -0.245 OA
BRANCH   2   4
ATOM      4  C   UNL     1       4.602   0.418  -2.944  0.00  0.00    +0.118 A 
ATOM      5  C   UNL     1       4.368  -0.738  -3.724  0.00  0.00    +0.076 A 
ATOM      6  N   UNL     1       4.965  -0.579  -4.873  0.00  0.00    -0.169 NA
ATOM      7  N   UNL     1       5.602   0.667  -4.886  0.00  0.00    -0.220 N 
ATOM      8  C   UNL     1       5.373   1.276  -3.708  0.00  0.00    +0.147 A 
ATOM      9 CL   UNL     1       5.944   2.845  -3.233  0.00  0.00    -0.061 Cl
ATOM     10  C   UNL     1       3.568  -1.943  -3.302  0.00  0.00    +0.068 C 
BRANCH   7  11
ATOM     11  C   UNL     1       6.348   1.195  -5.950  0.00  0.00    +0.067 A 
ATOM     12  C   UNL     1       6.317   2.558  -6.212  0.00  0.00    +0.030 A 
ATOM     13  C   UNL     1       7.055   3.076  -7.257  0.00  0.00    +0.040 A 
ATOM     14  C   UNL     1       7.818   2.236  -8.051  0.00  0.00    +0.124 A 
ATOM     15  C   UNL     1       7.846   0.875  -7.795  0.00  0.00    +0.040 A 
ATOM     16  C   UNL     1       7.113   0.354  -6.747  0.00  0.00    +0.030 A 
ATOM     17  F   UNL     1       8.535   2.744  -9.077  0.00  0.00    -0.205 F 
ENDBRANCH   7  11
ENDBRANCH   2   4
ENDBRANCH   1   2
BRANCH   1  18
ATOM     18  C   UNL     1       2.503   1.478  -0.013  0.00  0.00    +0.270 C 
BRANCH  18  20
ATOM     19  C   UNL     1       1.052   3.535   0.011  0.00  0.00    +0.106 A 
ATOM     20  C   UNL     1       1.159   2.159   0.003  0.00  0.00    +0.030 A 
ATOM     21  C   UNL     1      -0.017   1.428   0.010  0.00  0.00    +0.087 A 
ATOM     22  C   UNL     1      -1.226   2.134   0.019  0.00  0.00    +0.082 A 
ATOM     23  S   UNL     1      -0.713   3.789   0.029  0.00  0.00    -0.066 S 
BRANCH  22  24
ATOM     24  N   UNL     1      -2.509   1.635   0.022  0.00  0.00    -0.352 N 
ATOM     25  H   UNL     1      -2.656   0.676   0.017  0.00  0.00    +0.143 HD
ATOM     26  H   UNL     1      -3.265   2.242   0.029  0.00  0.00    +0.143 HD
ENDBRANCH  22  24
BRANCH  19  27
ATOM     27  C   UNL     1       2.087   4.504   0.006  0.00  0.00    +0.346 C 
ATOM     28  O   UNL     1       3.251   4.151  -0.007  0.00  0.00    -0.244 OA
BRANCH  27  29
ATOM     29  O   UNL     1       1.780   5.819   0.016  0.00  0.00    -0.461 OA
BRANCH  29  31
ATOM     30  C   UNL     1       2.333   8.171   0.023  0.00  0.00    +0.048 C 
ATOM     31  C   UNL     1       2.873   6.739   0.010  0.00  0.00    +0.229 C 
ENDBRANCH  29  31
ENDBRANCH  27  29
ENDBRANCH  19  27
BRANCH  21  32
ATOM     32  C   UNL     1       0.002  -0.004   0.002  0.00  0.00    +0.102 C 
ATOM     33  N   UNL     1       0.018  -1.140  -0.004  0.00  0.00    -0.191 NA
ENDBRANCH  21  32
ENDBRANCH  18  20
ENDBRANCH   1  18
TORSDOF 10
