REMARK  Name = ZINC13348642
REMARK  9 active torsions:
REMARK  status: ('A' for Active; 'I' for Inactive)
REMARK    1  A    between atoms: C_1  and  C_2
REMARK    2  A    between atoms: C_3  and  C_7
REMARK    3  A    between atoms: C_10  and  S_15
REMARK    4  A    between atoms: N_11  and  C_12
REMARK    5  A    between atoms: C_12  and  C_13
REMARK    6  A    between atoms: S_15  and  C_16
REMARK    7  A    between atoms: C_16  and  C_17
REMARK    8  A    between atoms: N_19  and  C_20
REMARK    9  A    between atoms: C_25  and  C_26
REMARK                            x       y       z     vdW  Elec       q    Type
REMARK                         _______ _______ _______ _____ _____    ______ ____
ROOT
ATOM      1  S   UNL     1      -1.065   3.055   3.075  0.00  0.00    -0.077 S 
ENDROOT
BRANCH   1   5
ATOM      2  C   UNL     1      -3.378   0.228   1.688  0.00  0.00    +0.168 A 
ATOM      3  N   UNL     1      -3.757   0.323   2.941  0.00  0.00    -0.128 NA
ATOM      4  N   UNL     1      -3.074   1.233   3.539  0.00  0.00    -0.122 NA
ATOM      5  C   UNL     1      -2.213   1.770   2.707  0.00  0.00    +0.193 A 
ATOM      6  N   UNL     1      -2.373   1.148   1.500  0.00  0.00    -0.298 N 
BRANCH   2   9
ATOM      7  C   UNL     1      -4.120  -2.786   2.125  0.00  0.00    +0.087 C 
ATOM      8  C   UNL     1      -4.253  -2.005   0.843  0.00  0.00    +0.112 A 
ATOM      9  C   UNL     1      -3.926  -0.696   0.671  0.00  0.00    +0.060 A 
ATOM     10  C   UNL     1      -4.223  -0.393  -0.734  0.00  0.00    +0.053 A 
ATOM     11  C   UNL     1      -4.699  -1.530  -1.267  0.00  0.00    +0.196 A 
ATOM     12  O   UNL     1      -4.716  -2.482  -0.322  0.00  0.00    -0.467 OA
ENDBRANCH   2   9
BRANCH   6  13
ATOM     13  C   UNL     1      -1.633   1.410   0.263  0.00  0.00    +0.152 C 
BRANCH  13  14
ATOM     14  C   UNL     1      -0.351   0.617   0.267  0.00  0.00    -0.013 C 
ATOM     15  C   UNL     1       0.802   1.235   0.191  0.00  0.00    +0.005 C 
ENDBRANCH  13  14
ENDBRANCH   6  13
ENDBRANCH   1   5
BRANCH   1  16
ATOM     16  C   UNL     1      -1.457   3.335   4.820  0.00  0.00    +0.173 C 
BRANCH  16  17
ATOM     17  C   UNL     1      -0.572   4.426   5.365  0.00  0.00    +0.228 C 
ATOM     18  O   UNL     1       0.244   4.962   4.645  0.00  0.00    -0.275 OA
ATOM     19  N   UNL     1      -0.686   4.807   6.653  0.00  0.00    -0.284 N 
ATOM     20  H   UNL     1      -1.278   4.324   7.251  0.00  0.00    +0.155 HD
BRANCH  19  21
ATOM     21  C   UNL     1       0.045   5.893   7.126  0.00  0.00    +0.049 A 
ATOM     22  C   UNL     1       0.292   6.980   6.299  0.00  0.00    +0.044 A 
ATOM     23  C   UNL     1       1.015   8.059   6.771  0.00  0.00    +0.043 A 
ATOM     24  C   UNL     1       1.506   8.061   8.069  0.00  0.00    +0.021 A 
ATOM     25  C   UNL     1       1.274   6.989   8.902  0.00  0.00    +0.018 A 
ATOM     26  C   UNL     1       0.541   5.892   8.439  0.00  0.00    +0.084 A 
ATOM     27 CL   UNL     1       1.314   9.418   5.733  0.00  0.00    -0.083 Cl
BRANCH  26  28
ATOM     28  C   UNL     1       0.289   4.742   9.325  0.00  0.00    +0.388 C 
ATOM     29  O   UNL     1      -0.422   3.831   8.951  0.00  0.00    -0.241 OA
ATOM     30  O   UNL     1       0.849   4.701  10.550  0.00  0.00    -0.241 OA
ENDBRANCH  26  28
ENDBRANCH  19  21
ENDBRANCH  16  17
ENDBRANCH   1  16
TORSDOF 8
