REMARK  Name = ZINC39722437
REMARK  7 active torsions:
REMARK  status: ('A' for Active; 'I' for Inactive)
REMARK    1  A    between atoms: C_2  and  C_3
REMARK    2  A    between atoms: C_3  and  N_4
REMARK    3  A    between atoms: C_5  and  S_19
REMARK    4  A    between atoms: C_13  and  C_16
REMARK    5  A    between atoms: S_19  and  C_20
REMARK    6  A    between atoms: C_20  and  C_21
REMARK    7  A    between atoms: C_29  and  C_33
REMARK                            x       y       z     vdW  Elec       q    Type
REMARK                         _______ _______ _______ _____ _____    ______ ____
ROOT
ATOM      1  S   UNL     1      -0.550  -0.386  -3.307  0.00  0.00    -0.107 S 
ENDROOT
BRANCH   1   3
ATOM      2  N   UNL     1      -1.318  -1.700  -1.126  0.00  0.00    -0.263 N 
ATOM      3  C   UNL     1      -1.870  -1.214  -2.377  0.00  0.00    +0.256 C 
ATOM      4  N   UNL     1      -2.448  -2.260  -3.226  0.00  0.00    -0.243 NA
ATOM      5  C   UNL     1      -2.034  -3.469  -3.108  0.00  0.00    +0.107 C 
ATOM      6  C   UNL     1      -1.068  -3.914  -2.050  0.00  0.00    +0.069 C 
ATOM      7  C   UNL     1      -0.820  -2.941  -0.935  0.00  0.00    +0.252 C 
ATOM      8  O   UNL     1      -0.216  -3.250   0.074  0.00  0.00    -0.270 OA
ATOM      9  C   UNL     1      -0.523  -5.109  -2.188  0.00  0.00    -0.042 C 
ATOM     10  C   UNL     1      -0.945  -5.937  -3.390  0.00  0.00    +0.107 C 
ATOM     11  S   UNL     1      -2.370  -4.949  -4.019  0.00  0.00    -0.101 S 
BRANCH   9  12
ATOM     12  C   UNL     1       0.480  -5.631  -1.192  0.00  0.00    +0.017 C 
ATOM     13  C   UNL     1       1.207  -6.933  -1.538  0.00  0.00    +0.008 C 
ATOM     14  C   UNL     1       0.132  -6.922  -0.449  0.00  0.00    +0.008 C 
ENDBRANCH   9  12
BRANCH   2  15
ATOM     15  C   UNL     1      -1.293  -0.775   0.010  0.00  0.00    +0.137 C 
BRANCH  15  17
ATOM     16  C   UNL     1      -0.016   1.306   0.009  0.00  0.00    +0.005 C 
ATOM     17  C   UNL     1       0.002  -0.004   0.002  0.00  0.00    -0.016 C 
ENDBRANCH  15  17
ENDBRANCH   2  15
ENDBRANCH   1   3
BRANCH   1  18
ATOM     18  C   UNL     1       0.694  -1.683  -3.553  0.00  0.00    +0.147 C 
BRANCH  18  19
ATOM     19  C   UNL     1       1.860  -1.120  -4.323  0.00  0.00    +0.120 A 
ATOM     20  N   UNL     1       2.899  -1.946  -4.614  0.00  0.00    -0.310 N 
ATOM     21  H   UNL     1       2.873  -2.871  -4.324  0.00  0.00    +0.170 HD
ATOM     22  C   UNL     1       3.970  -1.489  -5.303  0.00  0.00    +0.259 A 
ATOM     23  O   UNL     1       4.908  -2.218  -5.571  0.00  0.00    -0.267 OA
ATOM     24  C   UNL     1       3.957  -0.076  -5.719  0.00  0.00    +0.065 A 
ATOM     25  C   UNL     1       5.012   0.489  -6.433  0.00  0.00    +0.016 A 
ATOM     26  C   UNL     1       4.959   1.804  -6.799  0.00  0.00    +0.016 A 
ATOM     27  C   UNL     1       3.851   2.593  -6.462  0.00  0.00    +0.065 A 
ATOM     28  C   UNL     1       2.789   2.048  -5.749  0.00  0.00    +0.043 A 
ATOM     29  C   UNL     1       2.833   0.705  -5.371  0.00  0.00    +0.079 A 
ATOM     30  N   UNL     1       1.819   0.128  -4.680  0.00  0.00    -0.233 NA
BRANCH  27  31
ATOM     31  C   UNL     1       3.812   4.014  -6.867  0.00  0.00    +0.387 C 
ATOM     32  O   UNL     1       4.744   4.497  -7.493  0.00  0.00    -0.241 OA
ATOM     33  O   UNL     1       2.848   4.706  -6.575  0.00  0.00    -0.241 OA
ENDBRANCH  27  31
ENDBRANCH  18  19
ENDBRANCH   1  18
TORSDOF 7
