REMARK  Name = ZINC22472463
REMARK  6 active torsions:
REMARK  status: ('A' for Active; 'I' for Inactive)
REMARK    1  A    between atoms: C_9  and  O_10
REMARK    2  A    between atoms: N_12  and  C_13
REMARK    3  A    between atoms: C_13  and  C_14
REMARK    4  A    between atoms: C_14  and  N_15
REMARK    5  A    between atoms: C_21  and  C_23
REMARK    6  A    between atoms: C_26  and  N_29
REMARK                            x       y       z     vdW  Elec       q    Type
REMARK                         _______ _______ _______ _____ _____    ______ ____
ROOT
ATOM      1  N   UNL     1       4.746  -4.150   0.626  0.00  0.00    +0.383 N 
ATOM      2  C   UNL     1       3.450  -4.823   0.783  0.00  0.00    -0.059 C 
ATOM      3  C   UNL     1       2.465  -4.277  -0.257  0.00  0.00    +0.089 C 
ATOM      4  N   UNL     1       2.424  -2.812  -0.138  0.00  0.00    -0.301 N 
ATOM      5  C   UNL     1       3.697  -2.076  -0.154  0.00  0.00    +0.089 C 
ATOM      6  C   UNL     1       4.633  -2.709   0.887  0.00  0.00    -0.059 C 
ATOM      7  C   UNL     1       1.250  -2.160  -0.021  0.00  0.00    +0.246 C 
ATOM      8  O   UNL     1       0.215  -2.788   0.092  0.00  0.00    -0.270 OA
ATOM      9  H   UNL     1       5.064  -4.276  -0.420  0.00  0.00    -0.082 HD
ENDROOT
BRANCH   7  10
ATOM     10  C   UNL     1       1.220  -0.682  -0.031  0.00  0.00    +0.037 A 
ATOM     11  C   UNL     1       0.363   0.007   0.828  0.00  0.00    +0.015 A 
ATOM     12  C   UNL     1       0.340   1.387   0.814  0.00  0.00    +0.033 A 
ATOM     13  C   UNL     1       1.166   2.086  -0.049  0.00  0.00    +0.126 A 
ATOM     14  C   UNL     1       2.018   1.409  -0.902  0.00  0.00    +0.033 A 
ATOM     15  C   UNL     1       2.050   0.029  -0.898  0.00  0.00    +0.015 A 
BRANCH  13  16
ATOM     16  N   UNL     1       1.137   3.566  -0.059  0.00  0.00    +0.056 N 
ATOM     17  O   UNL     1       0.387   4.165   0.691  0.00  0.00    -0.126 OA
ATOM     18  O   UNL     1       1.862   4.185  -0.817  0.00  0.00    -0.126 OA
ENDBRANCH  13  16
ENDBRANCH   7  10
BRANCH   1  19
ATOM     19  C   UNL     1       5.766  -4.763   1.487  0.00  0.00    -0.057 C 
BRANCH  19  20
ATOM     20  C   UNL     1       7.024  -3.892   1.488  0.00  0.00    +0.094 C 
BRANCH  20  31
ATOM     21  C   UNL     1      11.064  -6.209   4.850  0.00  0.00    +0.001 A 
ATOM     22  C   UNL     1      12.282  -5.558   4.977  0.00  0.00    +0.004 A 
ATOM     23  C   UNL     1      12.525  -4.383   4.297  0.00  0.00    +0.047 A 
ATOM     24  C   UNL     1      11.537  -3.832   3.490  0.00  0.00    +0.141 A 
ATOM     25  C   UNL     1      10.302  -4.487   3.367  0.00  0.00    +0.041 A 
ATOM     26  C   UNL     1      10.074  -5.682   4.051  0.00  0.00    +0.013 A 
ATOM     27  C   UNL     1       9.266  -3.895   2.504  0.00  0.00    +0.053 A 
ATOM     28  C   UNL     1       9.557  -2.717   1.866  0.00  0.00    +0.113 A 
ATOM     29  C   UNL     1      10.812  -2.122   2.046  0.00  0.00    +0.286 A 
ATOM     30  O   UNL     1      11.752  -2.673   2.831  0.00  0.00    -0.425 OA
ATOM     31  N   UNL     1       8.040  -4.504   2.347  0.00  0.00    -0.385 N 
ATOM     32  H   UNL     1       7.825  -5.449   2.866  0.00  0.00    +0.160 HD
BRANCH  29  33
ATOM     33  O   UNL     1      11.058  -1.074   1.473  0.00  0.00    -0.480 OA
ATOM     34  H   UNL     1      12.039  -0.594   1.604  0.00  0.00    +0.295 HD
ENDBRANCH  29  33
ENDBRANCH  20  31
ENDBRANCH  19  20
ENDBRANCH   1  19
TORSDOF 6
