REMARK  Name = ZINC12927616
REMARK  7 active torsions:
REMARK  status: ('A' for Active; 'I' for Inactive)
REMARK    1  A    between atoms: C_3  and  C_6
REMARK    2  A    between atoms: N_8  and  N_9
REMARK    3  A    between atoms: C_10  and  C_12
REMARK    4  A    between atoms: C_12  and  O_13
REMARK    5  A    between atoms: O_13  and  C_14
REMARK    6  A    between atoms: C_14  and  C_16
REMARK    7  A    between atoms: C_21  and  O_22
REMARK                            x       y       z     vdW  Elec       q    Type
REMARK                         _______ _______ _______ _____ _____    ______ ____
ROOT
ATOM      1  N   UNL     1       6.046   1.141  -0.050  0.00  0.00    -0.231 N 
ATOM      2  C   UNL     1       7.024   0.214  -0.065  0.00  0.00    +0.267 C 
ATOM      3  O   UNL     1       6.741  -0.965  -0.068  0.00  0.00    -0.271 OA
ATOM      4  H   UNL     1       6.272   2.085  -0.048  0.00  0.00    +0.173 HD
ENDROOT
BRANCH   1   7
ATOM      5  C   UNL     1       3.725   1.670  -0.025  0.00  0.00    +0.267 C 
ATOM      6  O   UNL     1       4.008   2.853  -0.022  0.00  0.00    -0.268 OA
ATOM      7  N   UNL     1       4.703   0.743  -0.039  0.00  0.00    -0.230 N 
ATOM      8  H   UNL     1       4.477  -0.201  -0.042  0.00  0.00    +0.173 HD
BRANCH   5  11
ATOM      9  C   UNL     1      -0.016   1.352   0.009  0.00  0.00    +0.008 A 
ATOM     10  C   UNL     1       1.175   2.036   0.002  0.00  0.00    +0.021 A 
ATOM     11  C   UNL     1       2.320   1.253  -0.013  0.00  0.00    +0.075 A 
ATOM     12  S   UNL     1       1.636  -0.394  -0.016  0.00  0.00    -0.092 S 
ATOM     13  C   UNL     1       0.002  -0.004   0.002  0.00  0.00    +0.046 A 
ENDBRANCH   5  11
ENDBRANCH   1   7
BRANCH   2  14
ATOM     14  C   UNL     1       8.469   0.643  -0.076  0.00  0.00    +0.329 C 
BRANCH  14  15
ATOM     15  O   UNL     1       9.309  -0.513  -0.090  0.00  0.00    -0.452 OA
BRANCH  15  16
ATOM     16  C   UNL     1      10.639  -0.302  -0.102  0.00  0.00    +0.343 C 
ATOM     17  O   UNL     1      11.075   0.833  -0.101  0.00  0.00    -0.245 OA
BRANCH  16  18
ATOM     18  C   UNL     1      11.567  -1.447  -0.117  0.00  0.00    +0.101 A 
ATOM     19  C   UNL     1      11.070  -2.754  -0.125  0.00  0.00    +0.034 A 
ATOM     20  C   UNL     1      11.944  -3.820  -0.139  0.00  0.00    +0.019 A 
ATOM     21  C   UNL     1      13.313  -3.603  -0.146  0.00  0.00    +0.019 A 
ATOM     22  C   UNL     1      13.816  -2.318  -0.139  0.00  0.00    +0.047 A 
ATOM     23  C   UNL     1      12.952  -1.232  -0.130  0.00  0.00    +0.131 A 
ATOM     24 BR   UNL     1      11.271  -5.588  -0.149  0.00  0.00    -0.050 Br
BRANCH  23  25
ATOM     25  O   UNL     1      13.446   0.031  -0.128  0.00  0.00    -0.506 OA
ATOM     26  H   UNL     1      13.598   0.393   0.756  0.00  0.00    +0.292 HD
ENDBRANCH  23  25
ENDBRANCH  16  18
ENDBRANCH  15  16
ENDBRANCH  14  15
ENDBRANCH   2  14
TORSDOF 7
