REMARK  Name = ZINC66701915
REMARK  7 active torsions:
REMARK  status: ('A' for Active; 'I' for Inactive)
REMARK    1  A    between atoms: C_1  and  C_2
REMARK    2  A    between atoms: N_11  and  C_12
REMARK    3  A    between atoms: C_12  and  C_13
REMARK    4  A    between atoms: C_13  and  N_14
REMARK    5  A    between atoms: N_17  and  C_18
REMARK    6  A    between atoms: C_18  and  C_19
REMARK    7  A    between atoms: C_23  and  C_25
REMARK                            x       y       z     vdW  Elec       q    Type
REMARK                         _______ _______ _______ _____ _____    ______ ____
ROOT
ATOM      1  N   UNL     1       3.545   1.300   2.756  0.00  0.00    -0.298 N 
ATOM      2  C   UNL     1       3.854   2.375   3.508  0.00  0.00    +0.300 C 
ATOM      3  O   UNL     1       2.974   3.120   3.894  0.00  0.00    -0.253 OA
ATOM      4  N   UNL     1       5.139   2.624   3.832  0.00  0.00    -0.292 N 
ATOM      5  H   UNL     1       4.247   0.706   2.448  0.00  0.00    +0.150 HD
ATOM      6  H   UNL     1       5.840   2.029   3.524  0.00  0.00    +0.151 HD
ENDROOT
BRANCH   1   7
ATOM      7  C   UNL     1       2.149   1.029   2.403  0.00  0.00    +0.124 C 
BRANCH   7   8
ATOM      8  C   UNL     1       2.075  -0.239   1.552  0.00  0.00    +0.124 C 
BRANCH   8  18
ATOM      9  C   UNL     1      -0.019   1.526   0.010  0.00  0.00    +0.028 C 
ATOM     10  C   UNL     1       0.002  -0.004   0.002  0.00  0.00    +0.075 C 
ATOM     11  C   UNL     1      -1.430  -0.557   0.082  0.00  0.00    +0.059 C 
ATOM     12  C   UNL     1      -1.455  -1.361   1.363  0.00  0.00    -0.025 A 
ATOM     13  C   UNL     1      -2.470  -2.086   1.958  0.00  0.00    +0.005 A 
ATOM     14  C   UNL     1      -2.244  -2.746   3.152  0.00  0.00    +0.000 A 
ATOM     15  C   UNL     1      -0.999  -2.679   3.750  0.00  0.00    +0.002 A 
ATOM     16  C   UNL     1       0.017  -1.957   3.160  0.00  0.00    +0.023 A 
ATOM     17  C   UNL     1      -0.204  -1.287   1.954  0.00  0.00    +0.033 A 
ATOM     18  N   UNL     1       0.679  -0.510   1.199  0.00  0.00    -0.325 N 
ENDBRANCH   8  18
ENDBRANCH   7   8
ENDBRANCH   1   7
BRANCH   4  19
ATOM     19  C   UNL     1       5.474   3.792   4.649  0.00  0.00    +0.181 C 
BRANCH  19  20
ATOM     20  C   UNL     1       6.965   3.841   4.867  0.00  0.00    +0.143 A 
ATOM     21  N   UNL     1       7.844   4.549   4.135  0.00  0.00    -0.261 N 
ATOM     22  H   UNL     1       7.642   5.117   3.375  0.00  0.00    +0.190 HD
ATOM     23  N   UNL     1       9.113   4.303   4.685  0.00  0.00    -0.152 NA
ATOM     24  C   UNL     1       8.932   3.479   5.697  0.00  0.00    +0.188 A 
ATOM     25  N   UNL     1       7.623   3.209   5.802  0.00  0.00    -0.209 NA
BRANCH  24  26
ATOM     26  C   UNL     1       9.996   2.946   6.574  0.00  0.00    +0.058 A 
ATOM     27  C   UNL     1      11.344   3.182   6.538  0.00  0.00    +0.019 A 
ATOM     28  C   UNL     1      12.150   2.566   7.470  0.00  0.00    +0.008 A 
ATOM     29  C   UNL     1      11.587   1.746   8.393  0.00  0.00    +0.046 A 
ATOM     30  S   UNL     1       9.856   1.832   7.962  0.00  0.00    -0.093 S 
ENDBRANCH  24  26
ENDBRANCH  19  20
ENDBRANCH   4  19
TORSDOF 6
