REMARK  Name = ZINC40993113
REMARK  8 active torsions:
REMARK  status: ('A' for Active; 'I' for Inactive)
REMARK    1  A    between atoms: C_1  and  C_2
REMARK    2  A    between atoms: C_2  and  C_3
REMARK    3  A    between atoms: C_2  and  C_4
REMARK    4  A    between atoms: C_2  and  C_5
REMARK    5  A    between atoms: C_8  and  C_11
REMARK    6  A    between atoms: C_12  and  C_13
REMARK    7  A    between atoms: C_18  and  C_21
REMARK    8  A    between atoms: C_25  and  N_27
REMARK                            x       y       z     vdW  Elec       q    Type
REMARK                         _______ _______ _______ _____ _____    ______ ____
ROOT
ATOM      1  C   UNL     1       4.664  -1.990  -6.153  0.00  0.00    +0.243 C 
ATOM      2  O   UNL     1       4.073  -2.690  -6.955  0.00  0.00    -0.270 OA
ATOM      3  N   UNL     1       5.949  -1.650  -6.374  0.00  0.00    -0.261 N 
ATOM      4  C   UNL     1       6.599  -2.098  -7.516  0.00  0.00    +0.165 A 
ATOM      5  N   UNL     1       7.841  -1.884  -7.909  0.00  0.00    -0.225 NA
ATOM      6  C   UNL     1       8.302  -2.394  -9.041  0.00  0.00    +0.080 A 
ATOM      7  C   UNL     1       7.476  -3.158  -9.818  0.00  0.00    +0.076 A 
ATOM      8  S   UNL     1       5.979  -3.125  -8.841  0.00  0.00    -0.060 S 
ATOM      9  H   UNL     1       6.420  -1.092  -5.736  0.00  0.00    +0.157 HD
ENDROOT
BRANCH   6  10
ATOM     10  C   UNL     1       9.701  -2.139  -9.462  0.00  0.00    +0.003 A 
ATOM     11  C   UNL     1      10.180  -2.674 -10.657  0.00  0.00    +0.010 A 
ATOM     12  C   UNL     1      11.483  -2.436 -11.047  0.00  0.00    +0.003 A 
ATOM     13  C   UNL     1      12.316  -1.668 -10.255  0.00  0.00    +0.028 A 
ATOM     14  C   UNL     1      11.848  -1.132  -9.063  0.00  0.00    +0.069 A 
ATOM     15  C   UNL     1      10.539  -1.361  -8.667  0.00  0.00    +0.038 A 
BRANCH  14  16
ATOM     16  N   UNL     1      12.697  -0.353  -8.262  0.00  0.00    -0.200 N 
ATOM     17  C   UNL     1      13.954   0.049  -8.549  0.00  0.00    +0.250 A 
ATOM     18  N   UNL     1      14.378   0.752  -7.532  0.00  0.00    -0.116 NA
ATOM     19  N   UNL     1      13.475   0.822  -6.622  0.00  0.00    -0.023 NA
ATOM     20  N   UNL     1      12.419   0.180  -6.991  0.00  0.00    -0.039 NA
ENDBRANCH  14  16
ENDBRANCH   6  10
BRANCH   1  22
ATOM     21  C   UNL     1       2.693  -1.858  -4.728  0.00  0.00    +0.013 C 
ATOM     22  C   UNL     1       3.979  -1.518  -4.949  0.00  0.00    +0.068 C 
BRANCH  21  26
ATOM     23  C   UNL     1       0.707  -0.490  -1.238  0.00  0.00    -0.042 A 
ATOM     24  C   UNL     1       0.032  -1.285  -2.147  0.00  0.00    +0.005 A 
ATOM     25  C   UNL     1       0.670  -1.734  -3.284  0.00  0.00    +0.008 A 
ATOM     26  C   UNL     1       2.004  -1.383  -3.517  0.00  0.00    -0.025 A 
ATOM     27  C   UNL     1       2.679  -0.579  -2.594  0.00  0.00    +0.008 A 
ATOM     28  C   UNL     1       2.026  -0.134  -1.464  0.00  0.00    +0.005 A 
BRANCH  23  30
ATOM     29  C   UNL     1      -0.019   1.526   0.010  0.00  0.00    +0.015 C 
ATOM     30  C   UNL     1       0.002  -0.004   0.002  0.00  0.00    -0.013 C 
ATOM     31  C   UNL     1       0.742  -0.511   1.242  0.00  0.00    +0.015 C 
ATOM     32  C   UNL     1      -1.433  -0.534   0.013  0.00  0.00    +0.015 C 
ENDBRANCH  23  30
ENDBRANCH  21  26
ENDBRANCH   1  22
TORSDOF 5
