REMARK  Name = ZINC06227913
REMARK  11 active torsions:
REMARK  status: ('A' for Active; 'I' for Inactive)
REMARK    1  A    between atoms: C_1  and  C_2
REMARK    2  A    between atoms: C_2  and  O_3
REMARK    3  A    between atoms: O_3  and  C_4
REMARK    4  A    between atoms: C_4  and  C_6
REMARK    5  A    between atoms: C_7  and  N_23
REMARK    6  A    between atoms: C_10  and  C_11
REMARK    7  A    between atoms: C_14  and  O_17
REMARK    8  A    between atoms: O_17  and  C_18
REMARK    9  A    between atoms: C_18  and  C_19
REMARK   10  A    between atoms: C_24  and  C_26
REMARK   11  A    between atoms: C_29  and  C_32
REMARK                            x       y       z     vdW  Elec       q    Type
REMARK                         _______ _______ _______ _____ _____    ______ ____
ROOT
ATOM      1  C   UNL     1      -6.123   3.577   6.106  0.00  0.00    +0.134 C 
ATOM      2  C   UNL     1      -4.770   3.278   5.954  0.00  0.00    +0.090 C 
ATOM      3  S   UNL     1      -4.032   3.732   7.450  0.00  0.00    -0.069 S 
ATOM      4  C   UNL     1      -5.454   4.340   8.334  0.00  0.00    +0.062 C 
ATOM      5  C   UNL     1      -5.517   4.849   9.591  0.00  0.00    +0.027 C 
ATOM      6  C   UNL     1      -6.545   4.148   7.362  0.00  0.00    +0.209 C 
ATOM      7  O   UNL     1      -7.704   4.446   7.599  0.00  0.00    -0.286 OA
ENDROOT
BRANCH   5   8
ATOM      8  C   UNL     1      -4.336   4.805  10.461  0.00  0.00    -0.024 A 
ATOM      9  C   UNL     1      -3.297   3.905  10.191  0.00  0.00    +0.011 A 
ATOM     10  C   UNL     1      -2.189   3.872  11.007  0.00  0.00    +0.046 A 
ATOM     11  C   UNL     1      -2.106   4.720  12.105  0.00  0.00    +0.121 A 
ATOM     12  C   UNL     1      -3.137   5.611  12.382  0.00  0.00    +0.046 A 
ATOM     13  C   UNL     1      -4.247   5.657  11.569  0.00  0.00    +0.011 A 
BRANCH  11  14
ATOM     14  O   UNL     1      -1.014   4.679  12.910  0.00  0.00    -0.481 OA
BRANCH  14  15
ATOM     15  C   UNL     1       0.008   3.740  12.569  0.00  0.00    +0.353 C 
BRANCH  15  16
ATOM     16  C   UNL     1       1.133   3.837  13.568  0.00  0.00    +0.393 C 
ATOM     17  O   UNL     1       1.065   4.629  14.479  0.00  0.00    -0.243 OA
ATOM     18  O   UNL     1       2.209   3.044  13.446  0.00  0.00    -0.243 OA
ENDBRANCH  15  16
ENDBRANCH  14  15
ENDBRANCH  11  14
ENDBRANCH   5   8
BRANCH   2  19
ATOM     19  N   UNL     1      -4.155   2.735   4.852  0.00  0.00    -0.275 N 
ATOM     20  C   UNL     1      -2.826   2.506   4.866  0.00  0.00    +0.249 C 
ATOM     21  O   UNL     1      -2.173   2.781   5.853  0.00  0.00    -0.270 OA
ATOM     22  H   UNL     1      -4.676   2.515   4.064  0.00  0.00    +0.156 HD
BRANCH  20  23
ATOM     23  C   UNL     1      -2.165   1.921   3.681  0.00  0.00    +0.037 A 
ATOM     24  C   UNL     1      -0.789   1.683   3.692  0.00  0.00    +0.013 A 
ATOM     25  C   UNL     1      -0.178   1.137   2.583  0.00  0.00    +0.004 A 
ATOM     26  C   UNL     1      -0.925   0.824   1.461  0.00  0.00    -0.050 A 
ATOM     27  C   UNL     1      -2.288   1.062   1.442  0.00  0.00    +0.004 A 
ATOM     28  C   UNL     1      -2.913   1.603   2.546  0.00  0.00    +0.013 A 
ATOM     29  C   UNL     1      -0.251   0.227   0.253  0.00  0.00    +0.044 C 
ENDBRANCH  20  23
ENDBRANCH   2  19
BRANCH   1  30
ATOM     30  C   UNL     1      -7.080   3.321   5.031  0.00  0.00    +0.345 C 
ATOM     31  O   UNL     1      -6.701   2.839   3.980  0.00  0.00    -0.245 OA
BRANCH  30  32
ATOM     32  O   UNL     1      -8.384   3.619   5.204  0.00  0.00    -0.461 OA
BRANCH  32  34
ATOM     33  C   UNL     1     -10.705   3.739   4.475  0.00  0.00    +0.048 C 
ATOM     34  C   UNL     1      -9.278   3.338   4.095  0.00  0.00    +0.229 C 
ENDBRANCH  32  34
ENDBRANCH  30  32
ENDBRANCH   1  30
TORSDOF 9
