REMARK  Name = ZINC39895435
REMARK  2 active torsions:
REMARK  status: ('A' for Active; 'I' for Inactive)
REMARK    1  A    between atoms: C_4  and  C_7
REMARK    2  A    between atoms: N_15  and  C_16
REMARK                            x       y       z     vdW  Elec       q    Type
REMARK                         _______ _______ _______ _____ _____    ______ ____
ROOT
ATOM      1  C   UNL     1       3.775  -0.616   0.342  0.00  0.00    +0.186 A 
ATOM      2  N   UNL     1       4.926  -0.114  -0.046  0.00  0.00    -0.126 NA
ATOM      3  N   UNL     1       5.793  -1.056  -0.176  0.00  0.00    -0.120 NA
ATOM      4  C   UNL     1       5.243  -2.198   0.120  0.00  0.00    +0.220 A 
ATOM      5  N   UNL     1       3.935  -1.988   0.471  0.00  0.00    -0.184 N 
ATOM      6  N   UNL     1       3.198  -3.111   0.825  0.00  0.00    -0.140 NA
ATOM      7  C   UNL     1       3.736  -4.302   0.822  0.00  0.00    +0.186 A 
ATOM      8  S   UNL     1       5.406  -3.958   0.289  0.00  0.00    -0.011 S 
ATOM      9  N   UNL     1       3.158  -5.520   1.143  0.00  0.00    -0.292 N 
ATOM     10  H   UNL     1       2.209  -5.570   1.336  0.00  0.00    +0.154 HD
ENDROOT
BRANCH   9  11
ATOM     11  C   UNL     1       3.943  -6.676   1.187  0.00  0.00    +0.033 A 
ATOM     12  C   UNL     1       5.266  -6.604   1.603  0.00  0.00    +0.025 A 
ATOM     13  C   UNL     1       6.039  -7.747   1.646  0.00  0.00    +0.022 A 
ATOM     14  C   UNL     1       5.496  -8.965   1.276  0.00  0.00    +0.041 A 
ATOM     15  C   UNL     1       4.178  -9.041   0.862  0.00  0.00    +0.022 A 
ATOM     16  C   UNL     1       3.399  -7.901   0.822  0.00  0.00    +0.025 A 
ATOM     17 CL   UNL     1       6.471 -10.401   1.332  0.00  0.00    -0.084 Cl
ENDBRANCH   9  11
BRANCH   1  21
ATOM     18  C   UNL     1       0.211   1.570   1.084  0.00  0.00    +0.000 A 
ATOM     19  C   UNL     1       1.419   2.237   0.978  0.00  0.00    +0.001 A 
ATOM     20  C   UNL     1       2.580   1.533   0.738  0.00  0.00    +0.011 A 
ATOM     21  C   UNL     1       2.535   0.144   0.600  0.00  0.00    +0.021 A 
ATOM     22  C   UNL     1       1.313  -0.522   0.708  0.00  0.00    +0.011 A 
ATOM     23  C   UNL     1       0.159   0.194   0.949  0.00  0.00    +0.001 A 
ENDBRANCH   1  21
TORSDOF 2
