REMARK  Name = ZINC01154861
REMARK  10 active torsions:
REMARK  status: ('A' for Active; 'I' for Inactive)
REMARK    1  A    between atoms: C_1  and  C_2
REMARK    2  A    between atoms: C_5  and  N_9
REMARK    3  A    between atoms: C_7  and  C_8
REMARK    4  A    between atoms: N_9  and  S_10
REMARK    5  A    between atoms: S_10  and  C_13
REMARK    6  A    between atoms: C_16  and  N_19
REMARK    7  A    between atoms: N_19  and  S_20
REMARK    8  A    between atoms: S_20  and  C_23
REMARK    9  A    between atoms: C_26  and  N_29
REMARK   10  A    between atoms: C_30  and  C_32
REMARK                            x       y       z     vdW  Elec       q    Type
REMARK                         _______ _______ _______ _____ _____    ______ ____
ROOT
ATOM      1  C   UNL     1       2.259   2.373   0.500  0.00  0.00    +0.109 A 
ATOM      2  C   UNL     1       2.961   2.513   1.683  0.00  0.00    +0.030 A 
ATOM      3  C   UNL     1       4.218   3.085   1.678  0.00  0.00    +0.026 A 
ATOM      4  C   UNL     1       4.773   3.530   0.484  0.00  0.00    +0.048 A 
ATOM      5  C   UNL     1       4.062   3.392  -0.702  0.00  0.00    +0.026 A 
ATOM      6  C   UNL     1       2.808   2.814  -0.690  0.00  0.00    +0.030 A 
ENDROOT
BRANCH   1   7
ATOM      7  S   UNL     1       0.658   1.636   0.510  0.00  0.00    +0.072 S 
ATOM      8  O   UNL     1       0.022   2.032  -0.697  0.00  0.00    -0.150 OA
ATOM      9  O   UNL     1       0.098   1.900   1.789  0.00  0.00    -0.150 OA
BRANCH   7  10
ATOM     10  N   UNL     1       0.873  -0.003   0.416  0.00  0.00    -0.216 N 
ATOM     11  H   UNL     1       0.540  -0.493  -0.351  0.00  0.00    +0.174 HD
BRANCH  10  16
ATOM     12  C   UNL     1       3.560  -2.753   4.585  0.00  0.00    +0.044 C 
ATOM     13  C   UNL     1       2.846  -2.022   3.477  0.00  0.00    -0.047 A 
ATOM     14  C   UNL     1       3.479  -1.819   2.265  0.00  0.00    +0.005 A 
ATOM     15  C   UNL     1       2.826  -1.154   1.246  0.00  0.00    +0.025 A 
ATOM     16  C   UNL     1       1.535  -0.680   1.443  0.00  0.00    +0.048 A 
ATOM     17  C   UNL     1       0.902  -0.886   2.662  0.00  0.00    +0.028 A 
ATOM     18  C   UNL     1       1.559  -1.557   3.675  0.00  0.00    -0.046 A 
ATOM     19  C   UNL     1       0.873  -1.781   4.998  0.00  0.00    +0.044 C 
ENDBRANCH  10  16
ENDBRANCH   7  10
ENDBRANCH   1   7
BRANCH   4  20
ATOM     20  N   UNL     1       6.041   4.114   0.476  0.00  0.00    -0.216 N 
ATOM     21  H   UNL     1       6.694   3.846  -0.189  0.00  0.00    +0.174 HD
BRANCH  20  22
ATOM     22  S   UNL     1       6.430   5.263   1.603  0.00  0.00    +0.072 S 
ATOM     23  O   UNL     1       6.113   4.711   2.873  0.00  0.00    -0.150 OA
ATOM     24  O   UNL     1       7.734   5.726   1.278  0.00  0.00    -0.150 OA
BRANCH  22  25
ATOM     25  C   UNL     1       5.338   6.624   1.358  0.00  0.00    +0.109 A 
ATOM     26  C   UNL     1       5.642   7.593   0.419  0.00  0.00    +0.030 A 
ATOM     27  C   UNL     1       4.785   8.658   0.222  0.00  0.00    +0.025 A 
ATOM     28  C   UNL     1       3.622   8.760   0.974  0.00  0.00    +0.033 A 
ATOM     29  C   UNL     1       3.322   7.789   1.919  0.00  0.00    +0.025 A 
ATOM     30  C   UNL     1       4.181   6.724   2.109  0.00  0.00    +0.030 A 
BRANCH  28  31
ATOM     31  N   UNL     1       2.754   9.841   0.779  0.00  0.00    -0.286 N 
ATOM     32  C   UNL     1       2.065  10.347   1.820  0.00  0.00    +0.214 C 
ATOM     33  O   UNL     1       2.269   9.934   2.942  0.00  0.00    -0.276 OA
ATOM     34  C   UNL     1       1.040  11.428   1.591  0.00  0.00    +0.109 C 
ATOM     35  H   UNL     1       2.649  10.225  -0.106  0.00  0.00    +0.155 HD
ENDBRANCH  28  31
ENDBRANCH  22  25
ENDBRANCH  20  22
ENDBRANCH   4  20
TORSDOF 7
