REMARK  Name = ZINC09891846
REMARK  6 active torsions:
REMARK  status: ('A' for Active; 'I' for Inactive)
REMARK    1  A    between atoms: C_3  and  C_10
REMARK    2  A    between atoms: C_5  and  N_7
REMARK    3  A    between atoms: N_11  and  N_12
REMARK    4  A    between atoms: C_13  and  C_15
REMARK    5  A    between atoms: C_15  and  O_16
REMARK    6  A    between atoms: O_16  and  C_17
REMARK                            x       y       z     vdW  Elec       q    Type
REMARK                         _______ _______ _______ _____ _____    ______ ____
ROOT
ATOM      1  N   UNL     1       3.269   6.434   0.004  0.00  0.00    -0.204 N 
ATOM      2  C   UNL     1       2.210   5.600   0.010  0.00  0.00    +0.270 C 
ATOM      3  O   UNL     1       1.084   6.051   0.023  0.00  0.00    -0.270 OA
ATOM      4  H   UNL     1       4.170   6.074  -0.006  0.00  0.00    +0.177 HD
ENDROOT
BRANCH   1   6
ATOM      5  C   UNL     1       4.089   8.623   0.008  0.00  0.00    +0.142 C 
ATOM      6  N   UNL     1       3.069   7.821   0.013  0.00  0.00    -0.188 NA
BRANCH   5   9
ATOM      7  C   UNL     1       4.769  12.314   0.019  0.00  0.00    +0.003 A 
ATOM      8  C   UNL     1       4.973  10.950   0.011  0.00  0.00    +0.013 A 
ATOM      9  C   UNL     1       3.878  10.082   0.017  0.00  0.00    +0.043 A 
ATOM     10  C   UNL     1       2.579  10.607   0.026  0.00  0.00    +0.218 A 
ATOM     11  C   UNL     1       2.392  11.979   0.040  0.00  0.00    +0.173 A 
ATOM     12  C   UNL     1       3.484  12.827   0.034  0.00  0.00    +0.037 A 
ATOM     13  O   UNL     1       1.507   9.773   0.026  0.00  0.00    -0.285 OA
BRANCH  11  14
ATOM     14  N   UNL     1       1.022  12.539   0.054  0.00  0.00    +0.060 N 
ATOM     15  O   UNL     1       0.857  13.745   0.061  0.00  0.00    -0.126 OA
ATOM     16  O   UNL     1       0.059  11.792   0.059  0.00  0.00    -0.126 OA
ENDBRANCH  11  14
ENDBRANCH   5   9
ENDBRANCH   1   6
BRANCH   2  17
ATOM     17  C   UNL     1       2.425   4.109   0.001  0.00  0.00    +0.326 C 
BRANCH  17  18
ATOM     18  O   UNL     1       1.160   3.445   0.009  0.00  0.00    -0.483 OA
BRANCH  18  19
ATOM     19  C   UNL     1       1.176   2.086   0.002  0.00  0.00    +0.121 A 
ATOM     20  C   UNL     1      -0.017   1.377   0.010  0.00  0.00    +0.046 A 
ATOM     21  C   UNL     1       0.002  -0.004   0.002  0.00  0.00    +0.018 A 
ATOM     22  C   UNL     1       1.209  -0.680  -0.013  0.00  0.00    +0.014 A 
ATOM     23  C   UNL     1       2.399   0.024  -0.020  0.00  0.00    +0.018 A 
ATOM     24  C   UNL     1       2.385   1.406  -0.012  0.00  0.00    +0.046 A 
ATOM     25  I   UNL     1       1.233  -2.775  -0.025  0.00  0.00    -0.044 I 
ENDBRANCH  18  19
ENDBRANCH  17  18
ENDBRANCH   2  17
TORSDOF 6
