REMARK  Name = ZINC47354299
REMARK  7 active torsions:
REMARK  status: ('A' for Active; 'I' for Inactive)
REMARK    1  A    between atoms: C_1  and  C_2
REMARK    2  A    between atoms: C_2  and  C_21
REMARK    3  A    between atoms: N_5  and  C_9
REMARK    4  A    between atoms: C_9  and  C_10
REMARK    5  A    between atoms: C_10  and  O_11
REMARK    6  A    between atoms: O_11  and  C_12
REMARK    7  A    between atoms: C_17  and  N_18
REMARK                            x       y       z     vdW  Elec       q    Type
REMARK                         _______ _______ _______ _____ _____    ______ ____
ROOT
ATOM      1  C   UNL     1      -0.019   1.526   0.010  0.00  0.00    +0.050 C 
ATOM      2  C   UNL     1       0.002  -0.004   0.002  0.00  0.00    +0.168 C 
ATOM      3  C   UNL     1      -1.403  -0.557   0.139  0.00  0.00    +0.254 C 
ATOM      4  O   UNL     1      -2.332  -0.392  -0.621  0.00  0.00    -0.272 OA
ATOM      5  N   UNL     1      -1.403  -1.272   1.282  0.00  0.00    -0.221 N 
ATOM      6  C   UNL     1      -0.206  -1.247   1.879  0.00  0.00    +0.310 C 
ATOM      7  O   UNL     1       0.040  -1.819   2.924  0.00  0.00    -0.252 OA
ATOM      8  N   UNL     1       0.695  -0.520   1.195  0.00  0.00    -0.279 N 
ATOM      9  H   UNL     1       1.621  -0.365   1.440  0.00  0.00    +0.152 HD
ENDROOT
BRANCH   2  10
ATOM     10  C   UNL     1       0.657  -0.517  -1.255  0.00  0.00    +0.138 A 
ATOM     11  C   UNL     1       1.968  -0.760  -1.392  0.00  0.00    +0.056 A 
ATOM     12  C   UNL     1       2.152  -1.241  -2.767  0.00  0.00    +0.020 A 
ATOM     13  C   UNL     1       3.253  -1.654  -3.515  0.00  0.00    +0.011 A 
ATOM     14  C   UNL     1       3.080  -2.055  -4.811  0.00  0.00    +0.001 A 
ATOM     15  C   UNL     1       1.817  -2.053  -5.384  0.00  0.00    +0.004 A 
ATOM     16  C   UNL     1       0.716  -1.648  -4.659  0.00  0.00    +0.047 A 
ATOM     17  C   UNL     1       0.870  -1.238  -3.341  0.00  0.00    +0.135 A 
ATOM     18  O   UNL     1       0.010  -0.802  -2.398  0.00  0.00    -0.457 OA
ENDBRANCH   2  10
BRANCH   5  19
ATOM     19  C   UNL     1      -2.569  -1.986   1.805  0.00  0.00    +0.159 C 
BRANCH  19  20
ATOM     20  C   UNL     1      -2.585  -3.413   1.252  0.00  0.00    +0.248 C 
BRANCH  20  21
ATOM     21  O   UNL     1      -1.450  -4.128   1.745  0.00  0.00    -0.488 OA
BRANCH  21  22
ATOM     22  C   UNL     1      -1.313  -5.419   1.346  0.00  0.00    +0.151 A 
ATOM     23  C   UNL     1      -2.248  -5.985   0.491  0.00  0.00    +0.048 A 
ATOM     24  C   UNL     1      -2.107  -7.298   0.086  0.00  0.00    +0.004 A 
ATOM     25  C   UNL     1      -1.034  -8.048   0.531  0.00  0.00    +0.002 A 
ATOM     26  C   UNL     1      -0.101  -7.487   1.383  0.00  0.00    +0.036 A 
ATOM     27  C   UNL     1      -0.235  -6.173   1.787  0.00  0.00    +0.168 A 
BRANCH  27  28
ATOM     28  N   UNL     1       0.767  -5.570   2.694  0.00  0.00    +0.060 N 
ATOM     29  O   UNL     1       1.706  -6.227   3.079  0.00  0.00    -0.126 OA
ATOM     30  O   UNL     1       0.646  -4.422   3.051  0.00  0.00    -0.126 OA
ENDBRANCH  27  28
ENDBRANCH  21  22
ENDBRANCH  20  21
ENDBRANCH  19  20
ENDBRANCH   5  19
TORSDOF 6
