REMARK  Name = ZINC64870993
REMARK  9 active torsions:
REMARK  status: ('A' for Active; 'I' for Inactive)
REMARK    1  A    between atoms: C_1  and  C_2
REMARK    2  A    between atoms: C_5  and  C_8
REMARK    3  A    between atoms: C_8  and  N_9
REMARK    4  A    between atoms: C_15  and  C_22
REMARK    5  A    between atoms: C_25  and  C_29
REMARK    6  A    between atoms: C_32  and  O_37
REMARK    7  A    between atoms: C_34  and  O_35
REMARK    8  A    between atoms: O_35  and  C_36
REMARK    9  A    between atoms: O_37  and  C_38
REMARK                            x       y       z     vdW  Elec       q    Type
REMARK                         _______ _______ _______ _____ _____    ______ ____
ROOT
ATOM      1  N   UNL     1       1.668  -4.571   0.416  0.00  0.00    -0.256 N 
ATOM      2  C   UNL     1       2.198  -4.837  -0.797  0.00  0.00    +0.265 A 
ATOM      3  O   UNL     1       1.544  -4.685  -1.811  0.00  0.00    -0.267 OA
ATOM      4  C   UNL     1       3.590  -5.317  -0.861  0.00  0.00    +0.063 A 
ATOM      5  C   UNL     1       4.208  -5.613  -2.073  0.00  0.00    +0.016 A 
ATOM      6  C   UNL     1       5.514  -6.058  -2.079  0.00  0.00    +0.008 A 
ATOM      7  C   UNL     1       6.208  -6.212  -0.889  0.00  0.00    -0.000 A 
ATOM      8  C   UNL     1       5.607  -5.922   0.319  0.00  0.00    +0.034 A 
ATOM      9  C   UNL     1       4.296  -5.472   0.345  0.00  0.00    +0.056 A 
ATOM     10  N   UNL     1       3.655  -5.170   1.538  0.00  0.00    -0.307 N 
ATOM     11  H   UNL     1       4.129  -5.272   2.378  0.00  0.00    +0.170 HD
ATOM     12  C   UNL     1       2.384  -4.730   1.540  0.00  0.00    +0.330 A 
ATOM     13  O   UNL     1       1.860  -4.472   2.606  0.00  0.00    -0.246 OA
ENDROOT
BRANCH   7  14
ATOM     14  C   UNL     1       7.634  -6.700  -0.915  0.00  0.00    +0.242 C 
ATOM     15  N   UNL     1       7.862  -7.561  -2.098  0.00  0.00    -0.265 NA
ATOM     16  C   UNL     1       9.230  -7.258  -2.572  0.00  0.00    +0.184 C 
ATOM     17  N   UNL     1       9.756  -6.223  -1.651  0.00  0.00    -0.177 NA
ATOM     18  O   UNL     1       8.544  -5.590  -1.084  0.00  0.00    -0.274 OA
ATOM     19  H   UNL     1       7.771  -8.537  -1.858  0.00  0.00    +0.127 HD
ATOM     20  H   UNL     1      10.319  -5.549  -2.148  0.00  0.00    +0.156 HD
BRANCH  16  21
ATOM     21  C   UNL     1      10.087  -8.496  -2.511  0.00  0.00    +0.028 A 
ATOM     22  C   UNL     1      10.880  -8.733  -1.404  0.00  0.00    +0.014 A 
ATOM     23  C   UNL     1      11.668  -9.866  -1.345  0.00  0.00    +0.046 A 
ATOM     24  C   UNL     1      11.664 -10.771  -2.398  0.00  0.00    +0.124 A 
ATOM     25  C   UNL     1      10.870 -10.535  -3.510  0.00  0.00    +0.091 A 
ATOM     26  C   UNL     1      10.076  -9.399  -3.564  0.00  0.00    +0.130 A 
BRANCH  26  27
ATOM     27  O   UNL     1       9.291  -9.169  -4.649  0.00  0.00    -0.495 OA
ATOM     28  C   UNL     1       9.330 -10.142  -5.695  0.00  0.00    +0.277 C 
ENDBRANCH  26  27
BRANCH  24  29
ATOM     29  O   UNL     1      12.439 -11.885  -2.340  0.00  0.00    -0.495 OA
ATOM     30  C   UNL     1      13.232 -12.063  -1.165  0.00  0.00    +0.277 C 
ENDBRANCH  24  29
ENDBRANCH  16  21
ENDBRANCH   7  14
BRANCH   1  31
ATOM     31  C   UNL     1       0.286  -4.092   0.507  0.00  0.00    +0.165 C 
BRANCH  31  36
ATOM     32  C   UNL     1       0.221   1.680   0.239  0.00  0.00    +0.044 C 
ATOM     33  C   UNL     1       0.238   0.174   0.309  0.00  0.00    -0.050 A 
ATOM     34  C   UNL     1       0.149  -0.573  -0.851  0.00  0.00    +0.004 A 
ATOM     35  C   UNL     1       0.164  -1.953  -0.787  0.00  0.00    +0.005 A 
ATOM     36  C   UNL     1       0.270  -2.587   0.437  0.00  0.00    -0.027 A 
ATOM     37  C   UNL     1       0.360  -1.840   1.597  0.00  0.00    +0.005 A 
ATOM     38  C   UNL     1       0.348  -0.460   1.532  0.00  0.00    +0.004 A 
ENDBRANCH  31  36
ENDBRANCH   1  31
TORSDOF 6
