REMARK  Name = ZINC26117543
REMARK  7 active torsions:
REMARK  status: ('A' for Active; 'I' for Inactive)
REMARK    1  A    between atoms: C_4  and  C_7
REMARK    2  A    between atoms: C_7  and  C_9
REMARK    3  A    between atoms: C_7  and  O_28
REMARK    4  A    between atoms: N_12  and  C_15
REMARK    5  A    between atoms: C_15  and  C_16
REMARK    6  A    between atoms: N_21  and  C_22
REMARK    7  A    between atoms: C_22  and  C_23
REMARK                            x       y       z     vdW  Elec       q    Type
REMARK                         _______ _______ _______ _____ _____    ______ ____
ROOT
ATOM      1  C   UNL     1       4.080  -1.059  -1.480  0.00  0.00    +0.019 C 
ATOM      2  C   UNL     1       2.995  -1.957  -2.082  0.00  0.00    -0.012 C 
ATOM      3  C   UNL     1       3.408  -2.369  -3.496  0.00  0.00    -0.078 C 
ATOM      4  N   UNL     1       4.679  -3.102  -3.445  0.00  0.00    +0.385 N 
ATOM      5  C   UNL     1       5.740  -2.224  -2.936  0.00  0.00    -0.078 C 
ATOM      6  C   UNL     1       5.416  -1.806  -1.500  0.00  0.00    -0.012 C 
ATOM      7  H   UNL     1       4.582  -3.899  -2.834  0.00  0.00    -0.081 HD
ENDROOT
BRANCH   1   8
ATOM      8  C   UNL     1       3.711  -0.707  -0.038  0.00  0.00    +0.147 C 
BRANCH   8  12
ATOM      9  C   UNL     1      -0.017   1.378   0.010  0.00  0.00    +0.000 A 
ATOM     10  C   UNL     1       1.171   2.086   0.002  0.00  0.00    +0.000 A 
ATOM     11  C   UNL     1       2.377   1.411  -0.013  0.00  0.00    +0.006 A 
ATOM     12  C   UNL     1       2.396   0.029  -0.020  0.00  0.00    -0.019 A 
ATOM     13  C   UNL     1       1.208  -0.679  -0.012  0.00  0.00    +0.006 A 
ATOM     14  C   UNL     1       0.002  -0.004   0.002  0.00  0.00    +0.000 A 
ENDBRANCH   8  12
BRANCH   8  15
ATOM     15  O   UNL     1       3.596  -1.907   0.731  0.00  0.00    -0.387 OA
ATOM     16  H   UNL     1       2.922  -2.519   0.405  0.00  0.00    +0.210 HD
ENDBRANCH   8  15
ENDBRANCH   1   8
BRANCH   4  17
ATOM     17  C   UNL     1       5.032  -3.563  -4.794  0.00  0.00    +0.019 C 
BRANCH  17  18
ATOM     18  C   UNL     1       6.270  -4.419  -4.724  0.00  0.00    +0.204 C 
ATOM     19  O   UNL     1       6.806  -4.625  -3.656  0.00  0.00    -0.277 OA
ATOM     20  N   UNL     1       6.782  -4.956  -5.850  0.00  0.00    -0.242 N 
ATOM     21  C   UNL     1       7.890  -5.721  -5.788  0.00  0.00    +0.306 C 
ATOM     22  O   UNL     1       8.427  -5.927  -4.717  0.00  0.00    -0.252 OA
ATOM     23  N   UNL     1       8.402  -6.258  -6.913  0.00  0.00    -0.292 N 
ATOM     24  H   UNL     1       6.354  -4.791  -6.704  0.00  0.00    +0.159 HD
ATOM     25  H   UNL     1       7.973  -6.093  -7.767  0.00  0.00    +0.151 HD
BRANCH  23  26
ATOM     26  C   UNL     1       9.606  -7.090  -6.845  0.00  0.00    +0.180 C 
BRANCH  26  27
ATOM     27  C   UNL     1       9.968  -7.563  -8.230  0.00  0.00    +0.122 A 
ATOM     28  C   UNL     1      10.782  -6.926  -9.091  0.00  0.00    +0.046 A 
ATOM     29  C   UNL     1      10.840  -7.717 -10.261  0.00  0.00    +0.041 A 
ATOM     30  C   UNL     1      10.059  -8.790 -10.045  0.00  0.00    +0.195 A 
ATOM     31  O   UNL     1       9.537  -8.694  -8.811  0.00  0.00    -0.466 OA
ENDBRANCH  26  27
ENDBRANCH  23  26
ENDBRANCH  17  18
ENDBRANCH   4  17
TORSDOF 7
