REMARK  Name = ZINC14476368
REMARK  6 active torsions:
REMARK  status: ('A' for Active; 'I' for Inactive)
REMARK    1  A    between atoms: C_4  and  C_7
REMARK    2  A    between atoms: C_7  and  O_8
REMARK    3  A    between atoms: O_8  and  C_9
REMARK    4  A    between atoms: C_14  and  C_15
REMARK    5  A    between atoms: C_26  and  S_31
REMARK    6  A    between atoms: S_31  and  N_34
REMARK                            x       y       z     vdW  Elec       q    Type
REMARK                         _______ _______ _______ _____ _____    ______ ____
ROOT
ATOM      1  C   UNL     1      -0.208   8.134   2.202  0.00  0.00    +0.108 C 
ATOM      2  C   UNL     1      -0.825   8.060   0.817  0.00  0.00    +0.029 C 
ATOM      3  C   UNL     1      -0.396   9.128  -0.198  0.00  0.00    +0.033 C 
ATOM      4  C   UNL     1      -0.549   8.375  -1.521  0.00  0.00    -0.030 C 
ATOM      5  C   UNL     1      -0.424   7.069  -1.316  0.00  0.00    -0.023 C 
ATOM      6  C   UNL     1      -0.149   6.839   0.125  0.00  0.00    +0.049 C 
ATOM      7  C   UNL     1      -0.600   5.615   0.823  0.00  0.00    -0.018 A 
ATOM      8  C   UNL     1      -0.805   4.422   0.165  0.00  0.00    +0.034 A 
ATOM      9  C   UNL     1      -1.195   3.296   0.867  0.00  0.00    +0.105 A 
ATOM     10  C   UNL     1      -1.386   3.367   2.235  0.00  0.00    +0.030 A 
ATOM     11  C   UNL     1      -1.185   4.558   2.902  0.00  0.00    +0.025 A 
ATOM     12  C   UNL     1      -0.799   5.696   2.205  0.00  0.00    +0.031 A 
ATOM     13  N   UNL     1      -0.639   6.902   2.898  0.00  0.00    -0.336 N 
ATOM     14  H   UNL     1      -0.815   6.931   3.851  0.00  0.00    +0.147 HD
ENDROOT
BRANCH   1  20
ATOM     15  C   UNL     1      -0.108  10.583   2.735  0.00  0.00    +0.126 A 
ATOM     16  C   UNL     1      -0.579  11.701   3.408  0.00  0.00    +0.046 A 
ATOM     17  C   UNL     1      -1.640  11.583   4.284  0.00  0.00    +0.004 A 
ATOM     18  C   UNL     1      -2.238  10.352   4.486  0.00  0.00    +0.001 A 
ATOM     19  C   UNL     1      -1.775   9.238   3.812  0.00  0.00    +0.009 A 
ATOM     20  C   UNL     1      -0.713   9.350   2.935  0.00  0.00    +0.015 A 
BRANCH  15  21
ATOM     21  O   UNL     1       0.940  10.695   1.877  0.00  0.00    -0.487 OA
BRANCH  21  22
ATOM     22  C   UNL     1       1.513  11.995   1.721  0.00  0.00    +0.264 C 
BRANCH  22  26
ATOM     23  C   UNL     1       4.748  11.798  -1.063  0.00  0.00    +0.000 A 
ATOM     24  C   UNL     1       3.465  12.056  -1.510  0.00  0.00    +0.000 A 
ATOM     25  C   UNL     1       2.419  12.120  -0.610  0.00  0.00    +0.007 A 
ATOM     26  C   UNL     1       2.654  11.925   0.739  0.00  0.00    -0.010 A 
ATOM     27  C   UNL     1       3.937  11.672   1.187  0.00  0.00    +0.007 A 
ATOM     28  C   UNL     1       4.983  11.604   0.285  0.00  0.00    +0.000 A 
ENDBRANCH  22  26
ENDBRANCH  21  22
ENDBRANCH  15  21
ENDBRANCH   1  20
BRANCH   9  29
ATOM     29  S   UNL     1      -1.456   1.774   0.019  0.00  0.00    +0.056 S 
ATOM     30  O   UNL     1      -1.746   2.107  -1.332  0.00  0.00    -0.153 OA
ATOM     31  O   UNL     1      -2.344   1.008   0.822  0.00  0.00    -0.153 OA
BRANCH  29  32
ATOM     32  N   UNL     1      -0.011   0.966   0.007  0.00  0.00    -0.204 NA
ATOM     33  H   UNL     1       0.002  -0.004   0.002  0.00  0.00    +0.144 HD
ATOM     34  H   UNL     1       0.822   1.462   0.002  0.00  0.00    +0.144 HD
ENDBRANCH  29  32
ENDBRANCH   9  29
TORSDOF 6
