REMARK  Name = ZINC14324563
REMARK  10 active torsions:
REMARK  status: ('A' for Active; 'I' for Inactive)
REMARK    1  A    between atoms: C_1  and  C_2
REMARK    2  A    between atoms: C_7  and  O_8
REMARK    3  A    between atoms: O_8  and  C_9
REMARK    4  A    between atoms: C_9  and  C_10
REMARK    5  A    between atoms: C_10  and  C_11
REMARK    6  A    between atoms: C_11  and  C_12
REMARK    7  A    between atoms: N_14  and  N_15
REMARK    8  A    between atoms: C_16  and  C_18
REMARK    9  A    between atoms: C_21  and  C_24
REMARK   10  A    between atoms: C_27  and  C_29
REMARK                            x       y       z     vdW  Elec       q    Type
REMARK                         _______ _______ _______ _____ _____    ______ ____
ROOT
ATOM      1  N   UNL     1       0.225   0.929   4.853  0.00  0.00    -0.230 N 
ATOM      2  C   UNL     1      -0.229   1.241   6.083  0.00  0.00    +0.260 C 
ATOM      3  O   UNL     1      -1.225   1.926   6.208  0.00  0.00    -0.269 OA
ATOM      4  H   UNL     1       1.020   0.382   4.753  0.00  0.00    +0.173 HD
ENDROOT
BRANCH   2   5
ATOM      5  C   UNL     1       0.486   0.752   7.280  0.00  0.00    +0.038 A 
ATOM      6  C   UNL     1       1.628  -0.040   7.136  0.00  0.00    +0.014 A 
ATOM      7  C   UNL     1       2.297  -0.492   8.251  0.00  0.00    +0.014 A 
ATOM      8  C   UNL     1       1.827  -0.167   9.527  0.00  0.00    +0.039 A 
ATOM      9  C   UNL     1       0.681   0.621   9.670  0.00  0.00    +0.014 A 
ATOM     10  C   UNL     1       0.016   1.076   8.555  0.00  0.00    +0.014 A 
BRANCH   8  11
ATOM     11  C   UNL     1       2.541  -0.656  10.723  0.00  0.00    +0.249 A 
ATOM     12  N   UNL     1       2.214  -0.421  11.974  0.00  0.00    -0.107 NA
ATOM     13  N   UNL     1       3.056  -1.006  12.752  0.00  0.00    -0.107 NA
ATOM     14  C   UNL     1       3.960  -1.628  12.028  0.00  0.00    +0.249 A 
ATOM     15  O   UNL     1       3.653  -1.420  10.732  0.00  0.00    -0.416 OA
BRANCH  14  16
ATOM     16  C   UNL     1       5.102  -2.413  12.540  0.00  0.00    +0.038 A 
ATOM     17  C   UNL     1       5.985  -3.029  11.652  0.00  0.00    +0.013 A 
ATOM     18  C   UNL     1       7.052  -3.756  12.137  0.00  0.00    +0.001 A 
ATOM     19  C   UNL     1       7.242  -3.884  13.502  0.00  0.00    +0.000 A 
ATOM     20  C   UNL     1       6.368  -3.280  14.388  0.00  0.00    +0.001 A 
ATOM     21  C   UNL     1       5.300  -2.546  13.916  0.00  0.00    +0.013 A 
ENDBRANCH  14  16
ENDBRANCH   8  11
ENDBRANCH   2   5
BRANCH   1  24
ATOM     22  C   UNL     1       0.000   1.080   2.488  0.00  0.00    +0.229 C 
ATOM     23  O   UNL     1       0.994   0.397   2.363  0.00  0.00    -0.274 OA
ATOM     24  N   UNL     1      -0.453   1.393   3.718  0.00  0.00    -0.234 N 
ATOM     25  H   UNL     1      -1.248   1.939   3.817  0.00  0.00    +0.173 HD
BRANCH  22  26
ATOM     26  C   UNL     1      -0.729   1.579   1.267  0.00  0.00    +0.100 C 
BRANCH  26  27
ATOM     27  C   UNL     1      -0.013   1.086   0.008  0.00  0.00    +0.050 C 
BRANCH  27  28
ATOM     28  C   UNL     1      -0.753   1.593  -1.232  0.00  0.00    +0.229 C 
BRANCH  28  29
ATOM     29  O   UNL     1      -0.084   1.132  -2.407  0.00  0.00    -0.492 OA
BRANCH  29  36
ATOM     30  C   UNL     1       1.230   0.241  -4.743  0.00  0.00    +0.047 C 
ATOM     31  C   UNL     1      -0.015   1.089  -4.785  0.00  0.00    -0.007 A 
ATOM     32  C   UNL     1      -0.561   1.456  -6.000  0.00  0.00    +0.027 A 
ATOM     33  C   UNL     1      -1.701   2.239  -6.038  0.00  0.00    +0.041 A 
ATOM     34  C   UNL     1      -2.300   2.651  -4.860  0.00  0.00    +0.023 A 
ATOM     35  C   UNL     1      -1.760   2.282  -3.644  0.00  0.00    +0.047 A 
ATOM     36  C   UNL     1      -0.617   1.496  -3.603  0.00  0.00    +0.123 A 
ATOM     37 CL   UNL     1      -2.381   2.706  -7.566  0.00  0.00    -0.084 Cl
ENDBRANCH  29  36
ENDBRANCH  28  29
ENDBRANCH  27  28
ENDBRANCH  26  27
ENDBRANCH  22  26
ENDBRANCH   1  24
TORSDOF 9
