REMARK  Name = ZINC08686457
REMARK  10 active torsions:
REMARK  status: ('A' for Active; 'I' for Inactive)
REMARK    1  A    between atoms: C_1  and  C_2
REMARK    2  A    between atoms: C_2  and  N_3
REMARK    3  A    between atoms: C_4  and  C_26
REMARK    4  A    between atoms: C_7  and  S_8
REMARK    5  A    between atoms: S_8  and  C_9
REMARK    6  A    between atoms: C_9  and  C_10
REMARK    7  A    between atoms: N_12  and  N_13
REMARK    8  A    between atoms: C_14  and  C_15
REMARK    9  A    between atoms: C_16  and  C_17
REMARK   10  A    between atoms: C_22  and  N_23
REMARK                            x       y       z     vdW  Elec       q    Type
REMARK                         _______ _______ _______ _____ _____    ______ ____
ROOT
ATOM      1  C   UNL     1       6.090  -1.773   0.391  0.00  0.00    +0.242 C 
ATOM      2  O   UNL     1       5.882  -1.217   1.449  0.00  0.00    -0.273 OA
ATOM      3  N   UNL     1       7.339  -1.818  -0.112  0.00  0.00    -0.206 N 
ATOM      4  H   UNL     1       7.505  -2.263  -0.958  0.00  0.00    +0.177 HD
ENDROOT
BRANCH   3   5
ATOM      5  N   UNL     1       8.398  -1.223   0.586  0.00  0.00    -0.188 NA
ATOM      6  C   UNL     1       9.605  -1.266   0.100  0.00  0.00    +0.130 C 
BRANCH   6   7
ATOM      7  C   UNL     1      10.676  -0.664   0.807  0.00  0.00    +0.022 C 
ATOM      8  C   UNL     1      11.926  -0.706   0.301  0.00  0.00    +0.012 C 
BRANCH   8   9
ATOM      9  C   UNL     1      12.154  -1.231  -1.055  0.00  0.00    +0.005 A 
ATOM     10  C   UNL     1      11.285  -0.890  -2.096  0.00  0.00    +0.010 A 
ATOM     11  C   UNL     1      11.505  -1.386  -3.363  0.00  0.00    +0.001 A 
ATOM     12  C   UNL     1      12.583  -2.220  -3.606  0.00  0.00    +0.002 A 
ATOM     13  C   UNL     1      13.447  -2.563  -2.581  0.00  0.00    +0.033 A 
ATOM     14  C   UNL     1      13.243  -2.070  -1.309  0.00  0.00    +0.133 A 
BRANCH  14  15
ATOM     15  N   UNL     1      14.173  -2.432  -0.215  0.00  0.00    +0.057 N 
ATOM     16  O   UNL     1      15.169  -3.073  -0.456  0.00  0.00    -0.126 OA
ATOM     17  O   UNL     1      13.935  -2.087   0.919  0.00  0.00    -0.126 OA
ENDBRANCH  14  15
ENDBRANCH   8   9
ENDBRANCH   6   7
ENDBRANCH   3   5
BRANCH   1  18
ATOM     18  C   UNL     1       4.951  -2.413  -0.360  0.00  0.00    +0.174 C 
BRANCH  18  19
ATOM     19  S   UNL     1       3.409  -2.185   0.568  0.00  0.00    -0.077 S 
BRANCH  19  24
ATOM     20  N   UNL     1       0.857  -3.076  -0.150  0.00  0.00    -0.302 N 
ATOM     21  C   UNL     1       0.309  -3.768  -1.205  0.00  0.00    +0.165 A 
ATOM     22  N   UNL     1       1.288  -4.050  -2.032  0.00  0.00    -0.128 NA
ATOM     23  N   UNL     1       2.396  -3.587  -1.573  0.00  0.00    -0.122 NA
ATOM     24  C   UNL     1       2.191  -2.978  -0.427  0.00  0.00    +0.192 A 
BRANCH  21  25
ATOM     25  C   UNL     1      -1.115  -4.128  -1.374  0.00  0.00    +0.019 A 
ATOM     26  C   UNL     1      -2.101  -3.445  -0.659  0.00  0.00    +0.011 A 
ATOM     27  C   UNL     1      -3.428  -3.786  -0.822  0.00  0.00    +0.001 A 
ATOM     28  C   UNL     1      -3.783  -4.801  -1.692  0.00  0.00    +0.000 A 
ATOM     29  C   UNL     1      -2.811  -5.482  -2.404  0.00  0.00    +0.001 A 
ATOM     30  C   UNL     1      -1.481  -5.147  -2.255  0.00  0.00    +0.011 A 
ENDBRANCH  21  25
BRANCH  20  32
ATOM     31  C   UNL     1      -0.243  -1.094   0.768  0.00  0.00    +0.027 C 
ATOM     32  C   UNL     1       0.155  -2.549   1.023  0.00  0.00    +0.122 C 
ENDBRANCH  20  32
ENDBRANCH  19  24
ENDBRANCH  18  19
ENDBRANCH   1  18
TORSDOF 9
