REMARK  Name = ZINC05436871
REMARK  9 active torsions:
REMARK  status: ('A' for Active; 'I' for Inactive)
REMARK    1  A    between atoms: C_1  and  N_2
REMARK    2  A    between atoms: N_2  and  C_3
REMARK    3  A    between atoms: N_2  and  C_4
REMARK    4  A    between atoms: C_7  and  N_25
REMARK    5  A    between atoms: C_9  and  C_10
REMARK    6  A    between atoms: C_10  and  O_12
REMARK    7  A    between atoms: O_12  and  C_13
REMARK    8  A    between atoms: C_13  and  C_14
REMARK    9  A    between atoms: N_16  and  C_17
REMARK                            x       y       z     vdW  Elec       q    Type
REMARK                         _______ _______ _______ _____ _____    ______ ____
ROOT
ATOM      1  C   UNL     1       2.412   3.956   0.034  0.00  0.00    +0.342 C 
ATOM      2  O   UNL     1       3.477   3.373   0.025  0.00  0.00    -0.245 OA
ENDROOT
BRANCH   1   8
ATOM      3  C   UNL     1       1.180   1.787   0.051  0.00  0.00    +0.043 A 
ATOM      4  C   UNL     1      -0.015   1.077   0.064  0.00  0.00    +0.026 A 
ATOM      5  C   UNL     1      -1.219   1.751   0.068  0.00  0.00    +0.034 A 
ATOM      6  C   UNL     1      -1.249   3.137   0.070  0.00  0.00    +0.127 A 
ATOM      7  C   UNL     1      -0.076   3.858   0.058  0.00  0.00    +0.049 A 
ATOM      8  C   UNL     1       1.153   3.191   0.048  0.00  0.00    +0.082 A 
BRANCH   3  10
ATOM      9  C   UNL     1       2.530   0.260   1.229  0.00  0.00    +0.129 C 
ATOM     10  N   UNL     1       2.393   1.112   0.041  0.00  0.00    -0.335 N 
ATOM     11  C   UNL     1       2.548   0.327  -1.191  0.00  0.00    +0.129 C 
ENDBRANCH   3  10
BRANCH   6  12
ATOM     12  N   UNL     1      -2.548   3.845   0.080  0.00  0.00    +0.056 N 
ATOM     13  O   UNL     1      -2.578   5.063   0.077  0.00  0.00    -0.126 OA
ATOM     14  O   UNL     1      -3.588   3.210   0.091  0.00  0.00    -0.126 OA
ENDBRANCH   6  12
ENDBRANCH   1   8
BRANCH   1  15
ATOM     15  O   UNL     1       2.381   5.304   0.031  0.00  0.00    -0.452 OA
BRANCH  15  16
ATOM     16  C   UNL     1       3.659   5.992   0.017  0.00  0.00    +0.328 C 
BRANCH  16  17
ATOM     17  C   UNL     1       3.428   7.481   0.015  0.00  0.00    +0.255 C 
ATOM     18  O   UNL     1       2.297   7.919   0.025  0.00  0.00    -0.272 OA
ATOM     19  N   UNL     1       4.478   8.326   0.003  0.00  0.00    -0.281 N 
ATOM     20  H   UNL     1       5.382   7.978   0.060  0.00  0.00    +0.155 HD
BRANCH  19  21
ATOM     21  C   UNL     1       4.265   9.706  -0.093  0.00  0.00    +0.053 A 
ATOM     22  C   UNL     1       3.156  10.282   0.512  0.00  0.00    +0.044 A 
ATOM     23  C   UNL     1       2.951  11.646   0.420  0.00  0.00    +0.043 A 
ATOM     24  C   UNL     1       3.844  12.436  -0.285  0.00  0.00    +0.021 A 
ATOM     25  C   UNL     1       4.946  11.864  -0.893  0.00  0.00    +0.023 A 
ATOM     26  C   UNL     1       5.159  10.501  -0.800  0.00  0.00    +0.062 A 
ATOM     27 CL   UNL     1       6.543   9.784  -1.564  0.00  0.00    -0.082 Cl
ATOM     28 CL   UNL     1       1.569  12.369   1.182  0.00  0.00    -0.083 Cl
ENDBRANCH  19  21
ENDBRANCH  16  17
ENDBRANCH  15  16
ENDBRANCH   1  15
TORSDOF 7
