REMARK  Name = ZINC09962455
REMARK  13 active torsions:
REMARK  status: ('A' for Active; 'I' for Inactive)
REMARK    1  A    between atoms: C_1  and  C_2
REMARK    2  A    between atoms: C_2  and  C_4
REMARK    3  A    between atoms: C_2  and  O_17
REMARK    4  A    between atoms: N_6  and  C_7
REMARK    5  A    between atoms: C_10  and  N_14
REMARK    6  A    between atoms: O_17  and  C_18
REMARK    7  A    between atoms: C_18  and  C_20
REMARK    8  A    between atoms: C_20  and  C_22
REMARK    9  A    between atoms: C_20  and  N_25
REMARK   10  A    between atoms: C_22  and  C_23
REMARK   11  A    between atoms: C_22  and  C_24
REMARK   12  A    between atoms: N_25  and  S_26
REMARK   13  A    between atoms: S_26  and  C_29
REMARK                            x       y       z     vdW  Elec       q    Type
REMARK                         _______ _______ _______ _____ _____    ______ ____
ROOT
ATOM      1  O   UNL     1      -0.512   0.176  -0.598  0.00  0.00    -0.451 OA
ENDROOT
BRANCH   1   3
ATOM      2  C   UNL     1       0.596   2.242  -1.185  0.00  0.00    +0.062 C 
ATOM      3  C   UNL     1       0.749   0.735  -0.969  0.00  0.00    +0.259 C 
BRANCH   3   4
ATOM      4  C   UNL     1       1.752   0.485   0.129  0.00  0.00    +0.258 C 
ATOM      5  O   UNL     1       1.398  -0.033   1.167  0.00  0.00    -0.271 OA
ATOM      6  N   UNL     1       3.042   0.836  -0.044  0.00  0.00    -0.281 N 
ATOM      7  H   UNL     1       3.341   1.177  -0.901  0.00  0.00    +0.155 HD
BRANCH   6   8
ATOM      8  C   UNL     1       3.949   0.708   1.014  0.00  0.00    +0.052 A 
ATOM      9  C   UNL     1       3.491   0.685   2.324  0.00  0.00    +0.027 A 
ATOM     10  C   UNL     1       4.390   0.558   3.366  0.00  0.00    +0.034 A 
ATOM     11  C   UNL     1       5.744   0.455   3.106  0.00  0.00    +0.128 A 
ATOM     12  C   UNL     1       6.204   0.478   1.802  0.00  0.00    +0.054 A 
ATOM     13  C   UNL     1       5.310   0.599   0.754  0.00  0.00    +0.064 A 
ATOM     14 CL   UNL     1       5.887   0.620  -0.883  0.00  0.00    -0.082 Cl
BRANCH  11  15
ATOM     15  N   UNL     1       6.703   0.320   4.225  0.00  0.00    +0.056 N 
ATOM     16  O   UNL     1       6.302   0.300   5.365  0.00  0.00    -0.126 OA
ATOM     17  O   UNL     1       7.887   0.230   3.998  0.00  0.00    -0.126 OA
ENDBRANCH  11  15
ENDBRANCH   6   8
ENDBRANCH   3   4
ENDBRANCH   1   3
BRANCH   1  18
ATOM     18  C   UNL     1      -1.304  -0.254  -1.592  0.00  0.00    +0.327 C 
ATOM     19  O   UNL     1      -0.939  -0.159  -2.740  0.00  0.00    -0.249 OA
BRANCH  18  20
ATOM     20  C   UNL     1      -2.650  -0.856  -1.278  0.00  0.00    +0.187 C 
BRANCH  20  21
ATOM     21  C   UNL     1      -2.462  -2.091  -0.395  0.00  0.00    +0.012 C 
ATOM     22  C   UNL     1      -1.882  -1.668   0.957  0.00  0.00    +0.009 C 
ATOM     23  C   UNL     1      -3.815  -2.772  -0.177  0.00  0.00    +0.009 C 
ENDBRANCH  20  21
BRANCH  20  24
ATOM     24  N   UNL     1      -3.315  -1.243  -2.524  0.00  0.00    -0.176 NA
ATOM     25  H   UNL     1      -2.880  -1.858  -3.135  0.00  0.00    +0.149 HD
BRANCH  24  26
ATOM     26  S   UNL     1      -4.810  -0.631  -2.890  0.00  0.00    +0.059 S 
ATOM     27  O   UNL     1      -5.172  -1.171  -4.154  0.00  0.00    -0.153 OA
ATOM     28  O   UNL     1      -5.613  -0.802  -1.730  0.00  0.00    -0.153 OA
BRANCH  26  29
ATOM     29  C   UNL     1      -4.620   1.105  -3.119  0.00  0.00    +0.105 A 
ATOM     30  C   UNL     1      -4.753   1.963  -2.044  0.00  0.00    +0.028 A 
ATOM     31  C   UNL     1      -4.604   3.326  -2.224  0.00  0.00    +0.002 A 
ATOM     32  C   UNL     1      -4.322   3.830  -3.480  0.00  0.00    +0.000 A 
ATOM     33  C   UNL     1      -4.189   2.972  -4.555  0.00  0.00    +0.002 A 
ATOM     34  C   UNL     1      -4.334   1.609  -4.374  0.00  0.00    +0.028 A 
ENDBRANCH  26  29
ENDBRANCH  24  26
ENDBRANCH  20  24
ENDBRANCH  18  20
ENDBRANCH   1  18
TORSDOF 10
