REMARK  Name = ZINC67612954
REMARK  11 active torsions:
REMARK  status: ('A' for Active; 'I' for Inactive)
REMARK    1  A    between atoms: C_1  and  C_2
REMARK    2  A    between atoms: N_7  and  C_9
REMARK    3  A    between atoms: C_9  and  C_10
REMARK    4  A    between atoms: C_9  and  C_11
REMARK    5  A    between atoms: C_9  and  C_12
REMARK    6  A    between atoms: C_12  and  N_13
REMARK    7  A    between atoms: C_14  and  C_16
REMARK    8  A    between atoms: C_16  and  C_17
REMARK    9  A    between atoms: C_17  and  C_18
REMARK   10  A    between atoms: C_18  and  C_19
REMARK   11  A    between atoms: C_19  and  C_20
REMARK                            x       y       z     vdW  Elec       q    Type
REMARK                         _______ _______ _______ _____ _____    ______ ____
ROOT
ATOM      1  N   UNL     1       2.234  -4.377   1.177  0.00  0.00    -0.317 N 
ATOM      2  C   UNL     1       2.304  -5.671   0.808  0.00  0.00    +0.213 C 
ATOM      3  O   UNL     1       1.697  -6.514   1.434  0.00  0.00    -0.276 OA
ATOM      4  H   UNL     1       2.720  -3.702   0.677  0.00  0.00    +0.149 HD
ENDROOT
BRANCH   1   5
ATOM      5  C   UNL     1       1.423  -3.988   2.334  0.00  0.00    +0.092 C 
BRANCH   5   6
ATOM      6  C   UNL     1       1.615  -2.496   2.613  0.00  0.00    -0.055 C 
ATOM      7  C   UNL     1       0.834  -2.107   3.870  0.00  0.00    -0.008 C 
ATOM      8  C   UNL     1       1.102  -1.684   1.423  0.00  0.00    -0.008 C 
BRANCH   6  14
ATOM      9  C   UNL     1       4.901   1.012   3.548  0.00  0.00    +0.005 C 
ATOM     10  C   UNL     1       4.715  -0.476   3.242  0.00  0.00    -0.031 C 
ATOM     11  C   UNL     1       5.305  -1.310   4.384  0.00  0.00    -0.001 C 
ATOM     12  C   UNL     1       5.046  -2.793   4.107  0.00  0.00    -0.018 C 
ATOM     13  C   UNL     1       3.541  -3.020   3.941  0.00  0.00    -0.078 C 
ATOM     14  N   UNL     1       3.043  -2.216   2.818  0.00  0.00    +0.384 N 
ATOM     15  C   UNL     1       3.224  -0.788   3.107  0.00  0.00    -0.075 C 
ATOM     16  H   UNL     1       3.554  -2.455   1.981  0.00  0.00    -0.081 HD
ENDBRANCH   6  14
ENDBRANCH   5   6
ENDBRANCH   1   5
BRANCH   2  17
ATOM     17  C   UNL     1       3.138  -6.071  -0.382  0.00  0.00    +0.096 C 
BRANCH  17  18
ATOM     18  C   UNL     1       3.046  -7.585  -0.583  0.00  0.00    +0.009 C 
BRANCH  18  19
ATOM     19  C   UNL     1       3.893  -7.991  -1.791  0.00  0.00    +0.002 C 
BRANCH  19  20
ATOM     20  C   UNL     1       3.802  -9.505  -1.992  0.00  0.00    +0.016 C 
BRANCH  20  21
ATOM     21  C   UNL     1       4.648  -9.911  -3.200  0.00  0.00    +0.069 C 
ATOM     22  C   UNL     1       4.559 -11.394  -3.454  0.00  0.00    +0.108 C 
ATOM     23  C   UNL     1       5.863 -11.853  -4.178  0.00  0.00    +0.105 C 
ATOM     24  C   UNL     1       7.004 -11.480  -3.233  0.00  0.00    +0.093 C 
ATOM     25  S   UNL     1       6.457  -9.732  -2.841  0.00  0.00    -0.154 S 
ATOM     26  N   UNL     1       5.515 -13.233  -4.432  0.00  0.00    -0.294 N 
ATOM     27  C   UNL     1       4.163 -13.236  -4.633  0.00  0.00    +0.300 C 
ATOM     28  O   UNL     1       3.556 -14.173  -5.115  0.00  0.00    -0.253 OA
ATOM     29  N   UNL     1       3.578 -12.069  -4.250  0.00  0.00    -0.294 N 
ATOM     30  H   UNL     1       6.114 -13.995  -4.455  0.00  0.00    +0.151 HD
ATOM     31  H   UNL     1       2.682 -11.764  -4.467  0.00  0.00    +0.151 HD
ENDBRANCH  20  21
ENDBRANCH  19  20
ENDBRANCH  18  19
ENDBRANCH  17  18
ENDBRANCH   2  17
TORSDOF 8
