REMARK  Name = ZINC44178617
REMARK  9 active torsions:
REMARK  status: ('A' for Active; 'I' for Inactive)
REMARK    1  A    between atoms: C_1  and  C_2
REMARK    2  A    between atoms: C_2  and  C_4
REMARK    3  A    between atoms: C_2  and  N_16
REMARK    4  A    between atoms: C_7  and  N_10
REMARK    5  A    between atoms: C_11  and  C_13
REMARK    6  A    between atoms: N_19  and  C_20
REMARK    7  A    between atoms: C_25  and  C_26
REMARK    8  A    between atoms: C_26  and  C_27
REMARK    9  A    between atoms: N_29  and  C_30
REMARK                            x       y       z     vdW  Elec       q    Type
REMARK                         _______ _______ _______ _____ _____    ______ ____
ROOT
ATOM      1  N   UNL     1       0.219  -0.347  -1.044  0.00  0.00    -0.293 N 
ATOM      2  C   UNL     1       1.556  -0.480  -1.154  0.00  0.00    +0.304 C 
ATOM      3  O   UNL     1       2.274  -0.203  -0.213  0.00  0.00    -0.252 OA
ATOM      4  N   UNL     1       2.097  -0.921  -2.308  0.00  0.00    -0.269 N 
ATOM      5  H   UNL     1      -0.353  -0.568  -1.795  0.00  0.00    +0.151 HD
ATOM      6  H   UNL     1       1.531  -1.077  -3.080  0.00  0.00    +0.156 HD
ENDROOT
BRANCH   4   7
ATOM      7  C   UNL     1       3.474  -1.151  -2.391  0.00  0.00    +0.038 A 
ATOM      8  C   UNL     1       4.360  -0.340  -1.694  0.00  0.00    +0.023 A 
ATOM      9  C   UNL     1       5.719  -0.571  -1.778  0.00  0.00    +0.002 A 
ATOM     10  C   UNL     1       6.198  -1.608  -2.556  0.00  0.00    +0.000 A 
ATOM     11  C   UNL     1       5.320  -2.418  -3.252  0.00  0.00    +0.006 A 
ATOM     12  C   UNL     1       3.959  -2.196  -3.167  0.00  0.00    -0.017 A 
BRANCH  12  13
ATOM     13  C   UNL     1       3.002  -3.083  -3.921  0.00  0.00    +0.132 C 
BRANCH  13  14
ATOM     14  C   UNL     1       2.665  -2.447  -5.245  0.00  0.00    +0.217 C 
ATOM     15  O   UNL     1       3.154  -1.379  -5.547  0.00  0.00    -0.275 OA
ATOM     16  N   UNL     1       1.820  -3.065  -6.094  0.00  0.00    -0.318 N 
ATOM     17  C   UNL     1       1.493  -2.447  -7.381  0.00  0.00    +0.128 C 
ATOM     18  H   UNL     1       1.429  -3.919  -5.853  0.00  0.00    +0.148 HD
ENDBRANCH  13  14
ENDBRANCH  12  13
ENDBRANCH   4   7
BRANCH   1  20
ATOM     19  C   UNL     1      -0.362   1.661   0.225  0.00  0.00    +0.033 C 
ATOM     20  C   UNL     1      -0.368   0.131   0.210  0.00  0.00    +0.102 C 
BRANCH  20  21
ATOM     21  C   UNL     1      -1.786  -0.367   0.322  0.00  0.00    -0.027 A 
ATOM     22  C   UNL     1      -2.599  -0.392  -0.796  0.00  0.00    +0.007 A 
ATOM     23  C   UNL     1      -3.899  -0.847  -0.697  0.00  0.00    +0.023 A 
ATOM     24  C   UNL     1      -4.390  -1.281   0.528  0.00  0.00    +0.033 A 
ATOM     25  C   UNL     1      -3.571  -1.255   1.649  0.00  0.00    +0.023 A 
ATOM     26  C   UNL     1      -2.270  -0.803   1.542  0.00  0.00    +0.007 A 
BRANCH  24  27
ATOM     27  N   UNL     1      -5.706  -1.743   0.632  0.00  0.00    -0.285 N 
ATOM     28  C   UNL     1      -6.326  -2.262  -0.447  0.00  0.00    +0.220 C 
ATOM     29  O   UNL     1      -5.710  -2.427  -1.479  0.00  0.00    -0.275 OA
ATOM     30  H   UNL     1      -6.173  -1.689   1.480  0.00  0.00    +0.155 HD
BRANCH  28  31
ATOM     31  C   UNL     1      -7.783  -2.638  -0.370  0.00  0.00    +0.075 C 
ATOM     32  C   UNL     1      -8.133  -4.126  -0.430  0.00  0.00    +0.013 C 
ATOM     33  C   UNL     1      -8.429  -3.222  -1.628  0.00  0.00    +0.013 C 
ENDBRANCH  28  31
ENDBRANCH  24  27
ENDBRANCH  20  21
ENDBRANCH   1  20
TORSDOF 7
