REMARK  Name = ZINC13976932
REMARK  10 active torsions:
REMARK  status: ('A' for Active; 'I' for Inactive)
REMARK    1  A    between atoms: C_1  and  C_2
REMARK    2  A    between atoms: C_7  and  O_8
REMARK    3  A    between atoms: O_8  and  C_9
REMARK    4  A    between atoms: C_9  and  C_10
REMARK    5  A    between atoms: N_12  and  N_13
REMARK    6  A    between atoms: N_13  and  C_14
REMARK    7  A    between atoms: C_14  and  N_16
REMARK    8  A    between atoms: C_17  and  C_19
REMARK    9  A    between atoms: C_19  and  O_20
REMARK   10  A    between atoms: O_20  and  C_21
REMARK                            x       y       z     vdW  Elec       q    Type
REMARK                         _______ _______ _______ _____ _____    ______ ____
ROOT
ATOM      1  N   UNL     1       1.885   5.734   0.015  0.00  0.00    -0.245 N 
ATOM      2  H   UNL     1       0.984   6.092   0.025  0.00  0.00    +0.172 HD
ENDROOT
BRANCH   1   5
ATOM      3  C   UNL     1       1.030   3.512   0.011  0.00  0.00    +0.267 C 
ATOM      4  O   UNL     1      -0.097   3.960   0.024  0.00  0.00    -0.271 OA
ATOM      5  N   UNL     1       2.088   4.348   0.005  0.00  0.00    -0.232 N 
ATOM      6  H   UNL     1       2.989   3.989  -0.005  0.00  0.00    +0.173 HD
BRANCH   3   7
ATOM      7  C   UNL     1       1.248   2.021   0.001  0.00  0.00    +0.326 C 
BRANCH   7   8
ATOM      8  O   UNL     1      -0.016   1.355   0.009  0.00  0.00    -0.482 OA
BRANCH   8  15
ATOM      9  C   UNL     1      -2.505   0.019   0.039  0.00  0.00    +0.047 C 
ATOM     10  C   UNL     1      -1.189  -0.715   0.015  0.00  0.00    -0.008 A 
ATOM     11  C   UNL     1      -1.168  -2.096   0.002  0.00  0.00    +0.022 A 
ATOM     12  C   UNL     1       0.040  -2.771  -0.013  0.00  0.00    +0.018 A 
ATOM     13  C   UNL     1       1.229  -2.063  -0.021  0.00  0.00    +0.019 A 
ATOM     14  C   UNL     1       1.212  -0.682  -0.013  0.00  0.00    +0.047 A 
ATOM     15  C   UNL     1       0.002  -0.004   0.002  0.00  0.00    +0.124 A 
ATOM     16 BR   UNL     1       0.065  -4.661  -0.023  0.00  0.00    -0.050 Br
ENDBRANCH   8  15
ENDBRANCH   7   8
ENDBRANCH   3   7
ENDBRANCH   1   5
BRANCH   1  17
ATOM     17  C   UNL     1       2.943   6.569   0.009  0.00  0.00    +0.153 C 
ATOM     18  S   UNL     1       2.696   8.263   0.021  0.00  0.00    -0.017 S 
BRANCH  17  19
ATOM     19  N   UNL     1       4.195   6.071  -0.005  0.00  0.00    -0.264 N 
ATOM     20  C   UNL     1       5.253   6.907  -0.011  0.00  0.00    +0.256 C 
ATOM     21  O   UNL     1       5.078   8.106  -0.003  0.00  0.00    -0.272 OA
ATOM     22  H   UNL     1       4.335   5.111  -0.012  0.00  0.00    +0.157 HD
BRANCH  20  23
ATOM     23  C   UNL     1       6.653   6.350  -0.027  0.00  0.00    +0.325 C 
BRANCH  23  24
ATOM     24  O   UNL     1       7.594   7.426  -0.031  0.00  0.00    -0.481 OA
BRANCH  24  25
ATOM     25  C   UNL     1       8.911   7.093  -0.045  0.00  0.00    +0.139 A 
ATOM     26  C   UNL     1       9.291   5.759  -0.050  0.00  0.00    +0.047 A 
ATOM     27  C   UNL     1      10.631   5.423  -0.070  0.00  0.00    +0.004 A 
ATOM     28  C   UNL     1      11.594   6.416  -0.074  0.00  0.00    +0.002 A 
ATOM     29  C   UNL     1      11.219   7.746  -0.064  0.00  0.00    +0.023 A 
ATOM     30  C   UNL     1       9.880   8.088  -0.049  0.00  0.00    +0.083 A 
ATOM     31 CL   UNL     1       9.409   9.759  -0.035  0.00  0.00    -0.080 Cl
ENDBRANCH  24  25
ENDBRANCH  23  24
ENDBRANCH  20  23
ENDBRANCH  17  19
ENDBRANCH   1  17
TORSDOF 9
