REMARK  Name = ZINC64084014
REMARK  9 active torsions:
REMARK  status: ('A' for Active; 'I' for Inactive)
REMARK    1  A    between atoms: C_1  and  C_2
REMARK    2  A    between atoms: C_2  and  C_3
REMARK    3  A    between atoms: C_5  and  C_19
REMARK    4  A    between atoms: C_10  and  C_18
REMARK    5  A    between atoms: N_11  and  C_12
REMARK    6  A    between atoms: C_12  and  C_13
REMARK    7  A    between atoms: N_21  and  C_22
REMARK    8  A    between atoms: C_22  and  C_23
REMARK    9  A    between atoms: C_23  and  C_24
REMARK                            x       y       z     vdW  Elec       q    Type
REMARK                         _______ _______ _______ _____ _____    ______ ____
ROOT
ATOM      1  C   UNL     1       1.136  -2.495  -2.673  0.00  0.00    +0.225 C 
ATOM      2  O   UNL     1       1.505  -1.686  -3.498  0.00  0.00    -0.275 OA
ATOM      3  N   UNL     1       1.163  -3.811  -2.962  0.00  0.00    -0.315 N 
ATOM      4  H   UNL     1       0.868  -4.458  -2.302  0.00  0.00    +0.149 HD
ENDROOT
BRANCH   1   6
ATOM      5  C   UNL     1       0.718  -0.497  -1.257  0.00  0.00    +0.093 C 
ATOM      6  C   UNL     1       0.647  -2.028  -1.327  0.00  0.00    +0.165 C 
ATOM      7  C   UNL     1       1.519  -2.609  -0.242  0.00  0.00    +0.171 C 
ATOM      8  O   UNL     1       1.257  -3.701   0.223  0.00  0.00    -0.292 OA
ATOM      9  C   UNL     1       2.629  -1.900   0.233  0.00  0.00    +0.065 C 
ATOM     10  C   UNL     1       2.932  -0.672  -0.252  0.00  0.00    +0.007 C 
ATOM     11  N   UNL     1       2.135  -0.106  -1.208  0.00  0.00    -0.324 N 
ATOM     12  C   UNL     1       4.141   0.067   0.259  0.00  0.00    +0.060 C 
BRANCH   5  14
ATOM     13  C   UNL     1      -0.019   1.526   0.010  0.00  0.00    +0.006 C 
ATOM     14  C   UNL     1       0.002  -0.004   0.002  0.00  0.00    +0.020 C 
ENDBRANCH   5  14
BRANCH  11  15
ATOM     15  C   UNL     1       2.678   0.867  -2.160  0.00  0.00    +0.147 C 
BRANCH  15  16
ATOM     16  C   UNL     1       2.542   2.256  -1.592  0.00  0.00    +0.007 A 
ATOM     17  C   UNL     1       3.415   2.955  -0.826  0.00  0.00    +0.013 A 
ATOM     18  C   UNL     1       3.074   4.230  -0.416  0.00  0.00    +0.008 A 
ATOM     19  C   UNL     1       1.878   4.744  -0.791  0.00  0.00    +0.045 A 
ATOM     20  S   UNL     1       1.191   3.411  -1.760  0.00  0.00    -0.100 S 
ENDBRANCH  15  16
ENDBRANCH  11  15
ENDBRANCH   1   6
BRANCH   3  21
ATOM     21  C   UNL     1       1.638  -4.265  -4.271  0.00  0.00    +0.108 C 
BRANCH  21  22
ATOM     22  C   UNL     1       1.567  -5.792  -4.338  0.00  0.00    +0.065 C 
BRANCH  22  23
ATOM     23  C   UNL     1       2.063  -6.266  -5.706  0.00  0.00    +0.175 C 
ATOM     24  N   UNL     1       1.184  -5.755  -6.765  0.00  0.00    -0.363 N 
ATOM     25  C   UNL     1       0.676  -6.784  -7.380  0.00  0.00    +0.060 A 
ATOM     26  C   UNL     1      -0.258  -6.914  -8.507  0.00  0.00    +0.027 A 
ATOM     27  C   UNL     1      -0.614  -8.140  -8.939  0.00  0.00    +0.002 A 
ATOM     28  C   UNL     1      -0.126  -9.321  -8.352  0.00  0.00    +0.002 A 
ATOM     29  C   UNL     1       0.734  -9.316  -7.314  0.00  0.00    +0.027 A 
ATOM     30  C   UNL     1       1.193  -8.035  -6.760  0.00  0.00    +0.060 A 
ATOM     31  N   UNL     1       2.000  -7.730  -5.785  0.00  0.00    -0.363 N 
ATOM     32  H   UNL     1       1.012  -4.823  -6.970  0.00  0.00    +0.162 HD
ATOM     33  H   UNL     1       2.474  -8.357  -5.215  0.00  0.00    +0.162 HD
ENDBRANCH  22  23
ENDBRANCH  21  22
ENDBRANCH   3  21
TORSDOF 7
