REMARK  Name = ZINC08157399
REMARK  6 active torsions:
REMARK  status: ('A' for Active; 'I' for Inactive)
REMARK    1  A    between atoms: C_1  and  C_2
REMARK    2  A    between atoms: C_2  and  C_4
REMARK    3  A    between atoms: C_2  and  S_18
REMARK    4  A    between atoms: C_7  and  C_9
REMARK    5  A    between atoms: C_12  and  N_15
REMARK    6  A    between atoms: S_18  and  C_19
REMARK                            x       y       z     vdW  Elec       q    Type
REMARK                         _______ _______ _______ _____ _____    ______ ____
ROOT
ATOM      1  C   UNL     1      -0.019   1.526   0.010  0.00  0.00    +0.029 C 
ATOM      2  C   UNL     1       0.002  -0.004   0.002  0.00  0.00    +0.139 C 
ENDROOT
BRANCH   2   3
ATOM      3  C   UNL     1       0.731  -0.503   1.223  0.00  0.00    +0.231 A 
ATOM      4  N   UNL     1       0.269  -0.521   2.442  0.00  0.00    -0.111 NA
ATOM      5  N   UNL     1       1.157  -1.013   3.232  0.00  0.00    -0.107 NA
ATOM      6  C   UNL     1       2.225  -1.329   2.538  0.00  0.00    +0.248 A 
ATOM      7  O   UNL     1       1.973  -1.016   1.251  0.00  0.00    -0.419 OA
BRANCH   6   8
ATOM      8  C   UNL     1       3.472  -1.921   3.068  0.00  0.00    +0.039 A 
ATOM      9  C   UNL     1       4.536  -2.200   2.209  0.00  0.00    +0.015 A 
ATOM     10  C   UNL     1       5.696  -2.754   2.710  0.00  0.00    +0.033 A 
ATOM     11  C   UNL     1       5.806  -3.032   4.061  0.00  0.00    +0.126 A 
ATOM     12  C   UNL     1       4.755  -2.758   4.918  0.00  0.00    +0.033 A 
ATOM     13  C   UNL     1       3.591  -2.199   4.431  0.00  0.00    +0.015 A 
BRANCH  11  14
ATOM     14  N   UNL     1       7.053  -3.627   4.592  0.00  0.00    +0.056 N 
ATOM     15  O   UNL     1       7.973  -3.868   3.845  0.00  0.00    -0.126 OA
ATOM     16  O   UNL     1       7.152  -3.871   5.772  0.00  0.00    -0.126 OA
ENDBRANCH  11  14
ENDBRANCH   6   8
ENDBRANCH   2   3
BRANCH   2  17
ATOM     17  S   UNL     1      -1.700  -0.632   0.015  0.00  0.00    -0.075 S 
BRANCH  17  18
ATOM     18  C   UNL     1      -2.365  -0.093  -1.525  0.00  0.00    +0.168 A 
ATOM     19  N   UNL     1      -3.638  -0.333  -1.958  0.00  0.00    -0.333 N 
ATOM     20  H   UNL     1      -4.326  -0.821  -1.479  0.00  0.00    +0.168 HD
ATOM     21  C   UNL     1      -3.765   0.253  -3.207  0.00  0.00    +0.067 A 
ATOM     22  C   UNL     1      -4.800   0.344  -4.125  0.00  0.00    +0.029 A 
ATOM     23  C   UNL     1      -4.605   1.015  -5.316  0.00  0.00    +0.022 A 
ATOM     24  C   UNL     1      -3.379   1.599  -5.601  0.00  0.00    +0.043 A 
ATOM     25  C   UNL     1      -2.340   1.518  -4.700  0.00  0.00    +0.050 A 
ATOM     26  C   UNL     1      -2.521   0.842  -3.490  0.00  0.00    +0.091 A 
ATOM     27  N   UNL     1      -1.713   0.602  -2.425  0.00  0.00    -0.222 NA
ATOM     28 CL   UNL     1      -3.153   2.438  -7.104  0.00  0.00    -0.083 Cl
ENDBRANCH  17  18
ENDBRANCH   2  17
TORSDOF 5
