REMARK  Name = ZINC22013957
REMARK  9 active torsions:
REMARK  status: ('A' for Active; 'I' for Inactive)
REMARK    1  A    between atoms: C_1  and  C_2
REMARK    2  A    between atoms: C_2  and  N_3
REMARK    3  A    between atoms: N_3  and  C_4
REMARK    4  A    between atoms: N_3  and  C_16
REMARK    5  A    between atoms: C_4  and  C_5
REMARK    6  A    between atoms: N_7  and  C_8
REMARK    7  A    between atoms: C_16  and  C_17
REMARK    8  A    between atoms: N_19  and  N_20
REMARK    9  A    between atoms: C_26  and  C_29
REMARK                            x       y       z     vdW  Elec       q    Type
REMARK                         _______ _______ _______ _____ _____    ______ ____
ROOT
ATOM      1  C   UNL     1       0.253   0.911  -0.069  0.00  0.00    +0.021 C 
ENDROOT
BRANCH   1   2
ATOM      2  C   UNL     1      -0.846   0.172  -0.789  0.00  0.00    +0.213 C 
ATOM      3  O   UNL     1      -0.661  -0.962  -1.177  0.00  0.00    -0.276 OA
ATOM      4  N   UNL     1      -2.032   0.773  -1.006  0.00  0.00    -0.225 N 
ATOM      5  H   UNL     1      -2.200   1.802  -0.654  0.00  0.00    +0.173 HD
BRANCH   4   6
ATOM      6  N   UNL     1      -3.052   0.088  -1.680  0.00  0.00    -0.137 N 
ATOM      7  C   UNL     1      -4.141  -0.433  -1.078  0.00  0.00    +0.263 C 
ATOM      8  O   UNL     1      -4.414  -0.400   0.102  0.00  0.00    -0.271 OA
ATOM      9  C   UNL     1      -4.950  -1.067  -2.187  0.00  0.00    +0.114 C 
ATOM     10  C   UNL     1      -6.318  -0.403  -2.292  0.00  0.00    +0.035 C 
ATOM     11  C   UNL     1      -7.110  -1.039  -3.438  0.00  0.00    +0.006 C 
ATOM     12  C   UNL     1      -7.271  -2.538  -3.174  0.00  0.00    -0.014 C 
ATOM     13  C   UNL     1      -5.890  -3.193  -3.096  0.00  0.00    +0.006 C 
ATOM     14  C   UNL     1      -5.093  -2.566  -1.949  0.00  0.00    +0.035 C 
ATOM     15  C   UNL     1      -8.072  -3.173  -4.312  0.00  0.00    +0.007 C 
ATOM     16  N   UNL     1      -4.158  -0.810  -3.397  0.00  0.00    -0.284 N 
ATOM     17  C   UNL     1      -3.069  -0.124  -3.001  0.00  0.00    +0.326 C 
ATOM     18  O   UNL     1      -2.198   0.256  -3.759  0.00  0.00    -0.251 OA
ATOM     19  H   UNL     1      -4.514  -1.171  -4.373  0.00  0.00    +0.151 HD
ENDBRANCH   4   6
ENDBRANCH   1   2
BRANCH   1  20
ATOM     20  N   UNL     1       1.398   0.013   0.131  0.00  0.00    +0.391 N 
ATOM     21  H   UNL     1       1.007  -0.971   0.430  0.00  0.00    -0.080 HD
BRANCH  20  23
ATOM     22  C   UNL     1       1.615   0.206   2.563  0.00  0.00    -0.017 C 
ATOM     23  C   UNL     1       2.267   0.500   1.210  0.00  0.00    -0.081 C 
ENDBRANCH  20  23
BRANCH  20  24
ATOM     24  C   UNL     1       2.154  -0.163  -1.116  0.00  0.00    +0.020 C 
BRANCH  24  25
ATOM     25  C   UNL     1       3.163  -1.269  -0.941  0.00  0.00    +0.201 C 
ATOM     26  O   UNL     1       3.243  -1.853   0.119  0.00  0.00    -0.278 OA
ATOM     27  N   UNL     1       3.975  -1.608  -1.961  0.00  0.00    -0.285 N 
ATOM     28  H   UNL     1       3.863  -1.117  -2.939  0.00  0.00    +0.155 HD
BRANCH  27  29
ATOM     29  C   UNL     1       4.961  -2.585  -1.776  0.00  0.00    +0.070 A 
ATOM     30  C   UNL     1       5.721  -2.596  -0.613  0.00  0.00    +0.064 A 
ATOM     31  C   UNL     1       6.690  -3.565  -0.432  0.00  0.00    +0.022 A 
ATOM     32  C   UNL     1       6.910  -4.517  -1.411  0.00  0.00    +0.003 A 
ATOM     33  C   UNL     1       6.159  -4.505  -2.572  0.00  0.00    +0.022 A 
ATOM     34  C   UNL     1       5.185  -3.542  -2.758  0.00  0.00    +0.064 A 
ATOM     35 CL   UNL     1       4.243  -3.529  -4.216  0.00  0.00    -0.082 Cl
ATOM     36 CL   UNL     1       5.449  -1.399   0.614  0.00  0.00    -0.082 Cl
ENDBRANCH  27  29
ENDBRANCH  24  25
ENDBRANCH  20  24
ENDBRANCH   1  20
TORSDOF 7
