REMARK  Name = ZINC58216055
REMARK  6 active torsions:
REMARK  status: ('A' for Active; 'I' for Inactive)
REMARK    1  A    between atoms: C_4  and  C_7
REMARK    2  A    between atoms: C_7  and  C_8
REMARK    3  A    between atoms: N_14  and  C_15
REMARK    4  A    between atoms: C_15  and  C_16
REMARK    5  A    between atoms: N_21  and  C_22
REMARK    6  A    between atoms: C_22  and  C_23
REMARK                            x       y       z     vdW  Elec       q    Type
REMARK                         _______ _______ _______ _____ _____    ______ ____
ROOT
ATOM      1  C   UNL     1       2.986   1.140   1.949  0.00  0.00    +0.019 C 
ENDROOT
BRANCH   1   2
ATOM      2  C   UNL     1       3.230   2.549   2.426  0.00  0.00    +0.204 C 
ATOM      3  O   UNL     1       4.318   2.861   2.861  0.00  0.00    -0.277 OA
ATOM      4  N   UNL     1       2.240   3.461   2.370  0.00  0.00    -0.242 N 
ATOM      5  C   UNL     1       2.458   4.720   2.797  0.00  0.00    +0.306 C 
ATOM      6  O   UNL     1       3.549   5.033   3.233  0.00  0.00    -0.252 OA
ATOM      7  N   UNL     1       1.468   5.632   2.741  0.00  0.00    -0.292 N 
ATOM      8  H   UNL     1       1.369   3.211   2.022  0.00  0.00    +0.159 HD
ATOM      9  H   UNL     1       0.597   5.382   2.393  0.00  0.00    +0.151 HD
BRANCH   7  10
ATOM     10  C   UNL     1       1.705   7.001   3.205  0.00  0.00    +0.180 C 
BRANCH  10  11
ATOM     11  C   UNL     1       0.448   7.814   3.036  0.00  0.00    +0.122 A 
ATOM     12  C   UNL     1      -0.525   7.958   3.954  0.00  0.00    +0.046 A 
ATOM     13  C   UNL     1      -1.508   8.798   3.381  0.00  0.00    +0.041 A 
ATOM     14  C   UNL     1      -1.077   9.117   2.147  0.00  0.00    +0.195 A 
ATOM     15  O   UNL     1       0.111   8.523   1.946  0.00  0.00    -0.466 OA
ENDBRANCH  10  11
ENDBRANCH   7  10
ENDBRANCH   1   2
BRANCH   1  21
ATOM     16  C   UNL     1       4.026  -0.972   1.499  0.00  0.00    -0.064 C 
ATOM     17  C   UNL     1       5.327  -1.772   1.596  0.00  0.00    -0.015 C 
ATOM     18  C   UNL     1       5.705  -1.942   3.070  0.00  0.00    -0.003 C 
ATOM     19  C   UNL     1       5.823  -0.561   3.720  0.00  0.00    -0.019 C 
ATOM     20  C   UNL     1       4.504   0.194   3.544  0.00  0.00    -0.078 C 
ATOM     21  N   UNL     1       4.212   0.348   2.114  0.00  0.00    +0.388 N 
ATOM     22  H   UNL     1       4.980   0.822   1.663  0.00  0.00    -0.081 HD
BRANCH  16  23
ATOM     23  C   UNL     1       3.643  -0.799   0.028  0.00  0.00    +0.020 C 
BRANCH  23  27
ATOM     24  C   UNL     1       2.799  -4.621  -1.685  0.00  0.00    +0.000 A 
ATOM     25  C   UNL     1       1.813  -3.939  -0.997  0.00  0.00    +0.000 A 
ATOM     26  C   UNL     1       2.086  -2.702  -0.443  0.00  0.00    +0.003 A 
ATOM     27  C   UNL     1       3.345  -2.148  -0.576  0.00  0.00    -0.049 A 
ATOM     28  C   UNL     1       4.332  -2.830  -1.263  0.00  0.00    +0.003 A 
ATOM     29  C   UNL     1       4.059  -4.066  -1.818  0.00  0.00    +0.000 A 
ENDBRANCH  23  27
ENDBRANCH  16  23
ENDBRANCH   1  21
TORSDOF 6
