REMARK  Name = ZINC03152654
REMARK  4 active torsions:
REMARK  status: ('A' for Active; 'I' for Inactive)
REMARK    1  A    between atoms: C_4  and  N_8
REMARK    2  A    between atoms: C_9  and  C_11
REMARK    3  A    between atoms: C_12  and  C_13
REMARK    4  A    between atoms: C_16  and  N_19
REMARK                            x       y       z     vdW  Elec       q    Type
REMARK                         _______ _______ _______ _____ _____    ______ ____
ROOT
ATOM      1  N   UNL     1       3.623  -0.651  -0.037  0.00  0.00    -0.280 N 
ATOM      2  C   UNL     1       3.682  -1.939   0.354  0.00  0.00    +0.241 C 
ATOM      3  O   UNL     1       2.660  -2.537   0.635  0.00  0.00    -0.270 OA
ATOM      4  H   UNL     1       4.428  -0.196  -0.331  0.00  0.00    +0.155 HD
ENDROOT
BRANCH   1   8
ATOM      5  C   UNL     1      -0.016   1.379   0.010  0.00  0.00    +0.003 A 
ATOM      6  C   UNL     1       0.787   1.377   1.136  0.00  0.00    +0.022 A 
ATOM      7  C   UNL     1       1.994   0.704   1.124  0.00  0.00    +0.064 A 
ATOM      8  C   UNL     1       2.401   0.030  -0.021  0.00  0.00    +0.071 A 
ATOM      9  C   UNL     1       1.592   0.035  -1.151  0.00  0.00    +0.064 A 
ATOM     10  C   UNL     1       0.385   0.710  -1.132  0.00  0.00    +0.022 A 
ATOM     11 CL   UNL     1       2.095  -0.804  -2.584  0.00  0.00    -0.082 Cl
ATOM     12 CL   UNL     1       3.002   0.702   2.537  0.00  0.00    -0.082 Cl
ENDBRANCH   1   8
BRANCH   2  13
ATOM     13  C   UNL     1       4.975  -2.619   0.442  0.00  0.00    +0.068 C 
ATOM     14  C   UNL     1       5.034  -3.908   0.834  0.00  0.00    +0.013 C 
BRANCH  14  15
ATOM     15  C   UNL     1       6.334  -4.592   0.922  0.00  0.00    -0.025 A 
ATOM     16  C   UNL     1       7.511  -3.907   0.606  0.00  0.00    +0.010 A 
ATOM     17  C   UNL     1       8.726  -4.555   0.691  0.00  0.00    +0.033 A 
ATOM     18  C   UNL     1       8.781  -5.879   1.088  0.00  0.00    +0.126 A 
ATOM     19  C   UNL     1       7.621  -6.564   1.402  0.00  0.00    +0.033 A 
ATOM     20  C   UNL     1       6.399  -5.929   1.328  0.00  0.00    +0.010 A 
BRANCH  18  21
ATOM     21  N   UNL     1      10.089  -6.567   1.176  0.00  0.00    +0.056 N 
ATOM     22  O   UNL     1      11.105  -5.972   0.902  0.00  0.00    -0.126 OA
ATOM     23  O   UNL     1      10.141  -7.724   1.523  0.00  0.00    -0.126 OA
ENDBRANCH  18  21
ENDBRANCH  14  15
ENDBRANCH   2  13
TORSDOF 4
