REMARK  Name = ZINC42854365
REMARK  8 active torsions:
REMARK  status: ('A' for Active; 'I' for Inactive)
REMARK    1  A    between atoms: C_1  and  C_2
REMARK    2  A    between atoms: C_4  and  C_28
REMARK    3  A    between atoms: C_6  and  N_8
REMARK    4  A    between atoms: C_9  and  C_11
REMARK    5  A    between atoms: C_11  and  C_13
REMARK    6  A    between atoms: C_11  and  N_14
REMARK    7  A    between atoms: N_14  and  C_15
REMARK    8  A    between atoms: C_18  and  N_21
REMARK                            x       y       z     vdW  Elec       q    Type
REMARK                         _______ _______ _______ _____ _____    ______ ____
ROOT
ATOM      1  N   UNL     1       0.370  -1.959   5.973  0.00  0.00    -0.333 N 
ATOM      2  H   UNL     1      -0.007  -1.069   5.889  0.00  0.00    +0.147 HD
ENDROOT
BRANCH   1   3
ATOM      3  C   UNL     1       0.999  -2.343   7.162  0.00  0.00    +0.028 A 
ATOM      4  C   UNL     1       1.544  -3.615   7.280  0.00  0.00    +0.025 A 
ATOM      5  C   UNL     1       2.165  -3.995   8.454  0.00  0.00    +0.026 A 
ATOM      6  C   UNL     1       2.244  -3.104   9.516  0.00  0.00    +0.051 A 
ATOM      7  C   UNL     1       1.700  -1.832   9.399  0.00  0.00    +0.026 A 
ATOM      8  C   UNL     1       1.084  -1.451   8.223  0.00  0.00    +0.025 A 
BRANCH   6   9
ATOM      9  N   UNL     1       2.873  -3.489  10.706  0.00  0.00    -0.207 N 
ATOM     10  C   UNL     1       3.050  -4.862  11.214  0.00  0.00    +0.133 C 
ATOM     11  C   UNL     1       4.322  -4.968  12.075  0.00  0.00    +0.045 C 
ATOM     12  C   UNL     1       4.282  -3.723  13.011  0.00  0.00    +0.190 C 
ATOM     13  S   UNL     1       3.586  -2.485  11.843  0.00  0.00    +0.046 S 
ATOM     14  O   UNL     1       4.624  -1.805  11.150  0.00  0.00    -0.155 OA
ATOM     15  O   UNL     1       2.514  -1.773  12.446  0.00  0.00    -0.155 OA
ENDBRANCH   6   9
ENDBRANCH   1   3
BRANCH   1  16
ATOM     16  C   UNL     1       0.280  -2.900   4.854  0.00  0.00    +0.154 C 
ATOM     17  C   UNL     1      -0.945  -3.798   5.040  0.00  0.00    +0.038 C 
BRANCH  16  19
ATOM     18  N   UNL     1       0.052  -2.797   2.393  0.00  0.00    -0.284 N 
ATOM     19  C   UNL     1       0.150  -2.134   3.562  0.00  0.00    +0.237 C 
ATOM     20  O   UNL     1       0.134  -0.922   3.575  0.00  0.00    -0.273 OA
ATOM     21  H   UNL     1      -0.012  -3.765   2.388  0.00  0.00    +0.155 HD
BRANCH  18  27
ATOM     22  C   UNL     1      -1.512  -2.365  -2.248  0.00  0.00    +0.044 C 
ATOM     23  C   UNL     1      -0.707  -1.857  -1.080  0.00  0.00    -0.048 A 
ATOM     24  C   UNL     1       0.025  -0.690  -1.201  0.00  0.00    +0.006 A 
ATOM     25  C   UNL     1       0.765  -0.220  -0.131  0.00  0.00    -0.048 A 
ATOM     26  C   UNL     1       0.776  -0.917   1.061  0.00  0.00    +0.026 A 
ATOM     27  C   UNL     1       0.043  -2.089   1.186  0.00  0.00    +0.034 A 
ATOM     28  C   UNL     1      -0.704  -2.555   0.112  0.00  0.00    +0.026 A 
ATOM     29  C   UNL     1       1.561   1.052  -0.268  0.00  0.00    +0.044 C 
ENDBRANCH  18  27
ENDBRANCH  16  19
ENDBRANCH   1  16
TORSDOF 5
