REMARK  Name = ZINC07425923
REMARK  11 active torsions:
REMARK  status: ('A' for Active; 'I' for Inactive)
REMARK    1  A    between atoms: C_1  and  C_2
REMARK    2  A    between atoms: C_2  and  C_3
REMARK    3  A    between atoms: C_3  and  N_4
REMARK    4  A    between atoms: N_9  and  C_10
REMARK    5  A    between atoms: C_10  and  C_11
REMARK    6  A    between atoms: C_11  and  C_13
REMARK    7  A    between atoms: C_11  and  O_22
REMARK    8  A    between atoms: C_13  and  O_14
REMARK    9  A    between atoms: O_14  and  C_15
REMARK   10  A    between atoms: N_25  and  C_30
REMARK   11  A    between atoms: N_28  and  C_29
REMARK                            x       y       z     vdW  Elec       q    Type
REMARK                         _______ _______ _______ _____ _____    ______ ____
ROOT
ATOM      1  N   UNL     1      -4.682   2.731   0.037  0.00  0.00    -0.315 N 
ATOM      2  C   UNL     1      -3.307   2.669   0.031  0.00  0.00    +0.198 A 
ATOM      3  N   UNL     1      -2.498   3.709   0.042  0.00  0.00    -0.196 NA
ATOM      4  C   UNL     1      -1.229   3.299   0.030  0.00  0.00    +0.170 A 
ATOM      5  C   UNL     1      -1.237   1.908   0.018  0.00  0.00    +0.153 A 
ATOM      6  N   UNL     1      -2.572   1.526   0.022  0.00  0.00    -0.304 N 
ATOM      7  C   UNL     1      -0.015   1.214   0.009  0.00  0.00    +0.282 A 
ATOM      8  O   UNL     1       0.002  -0.004   0.002  0.00  0.00    -0.265 OA
ATOM      9  N   UNL     1       1.140   1.912   0.001  0.00  0.00    -0.262 N 
ATOM     10  C   UNL     1       1.137   3.256   0.008  0.00  0.00    +0.333 A 
ATOM     11  O   UNL     1       2.198   3.852   0.001  0.00  0.00    -0.246 OA
ATOM     12  N   UNL     1      -0.011   3.959   0.022  0.00  0.00    -0.280 N 
ATOM     13  C   UNL     1       0.028   5.424   0.028  0.00  0.00    +0.155 C 
ATOM     14  C   UNL     1       2.417   1.193  -0.014  0.00  0.00    +0.157 C 
ATOM     15  H   UNL     1      -5.204   1.913   0.036  0.00  0.00    +0.149 HD
ENDROOT
BRANCH   1  16
ATOM     16  C   UNL     1      -5.357   4.031   0.047  0.00  0.00    +0.104 C 
BRANCH  16  18
ATOM     17  C   UNL     1      -7.577   5.177   0.063  0.00  0.00    +0.005 C 
ATOM     18  C   UNL     1      -6.872   3.819   0.053  0.00  0.00    +0.015 C 
ENDBRANCH  16  18
ENDBRANCH   1  16
BRANCH   6  19
ATOM     19  C   UNL     1      -3.088   0.155   0.018  0.00  0.00    +0.160 C 
BRANCH  19  20
ATOM     20  C   UNL     1      -3.262  -0.330   1.459  0.00  0.00    +0.172 C 
BRANCH  20  21
ATOM     21  O   UNL     1      -4.269   0.451   2.106  0.00  0.00    -0.387 OA
ATOM     22  H   UNL     1      -5.136   0.403   1.682  0.00  0.00    +0.210 HD
ENDBRANCH  20  21
BRANCH  20  23
ATOM     23  C   UNL     1      -3.681  -1.801   1.456  0.00  0.00    +0.262 C 
BRANCH  23  24
ATOM     24  O   UNL     1      -3.730  -2.285   2.799  0.00  0.00    -0.489 OA
BRANCH  24  25
ATOM     25  C   UNL     1      -4.089  -3.585   2.974  0.00  0.00    +0.121 A 
ATOM     26  C   UNL     1      -4.393  -4.375   1.875  0.00  0.00    +0.047 A 
ATOM     27  C   UNL     1      -4.753  -5.697   2.054  0.00  0.00    +0.023 A 
ATOM     28  C   UNL     1      -4.820  -6.229   3.330  0.00  0.00    +0.041 A 
ATOM     29  C   UNL     1      -4.522  -5.441   4.427  0.00  0.00    +0.023 A 
ATOM     30  C   UNL     1      -4.157  -4.120   4.252  0.00  0.00    +0.047 A 
ATOM     31 CL   UNL     1      -5.279  -7.889   3.553  0.00  0.00    -0.084 Cl
ENDBRANCH  24  25
ENDBRANCH  23  24
ENDBRANCH  20  23
ENDBRANCH  19  20
ENDBRANCH   6  19
TORSDOF 8
