REMARK  Name = ZINC06828939
REMARK  5 active torsions:
REMARK  status: ('A' for Active; 'I' for Inactive)
REMARK    1  A    between atoms: C_3  and  C_10
REMARK    2  A    between atoms: C_5  and  N_7
REMARK    3  A    between atoms: C_13  and  C_15
REMARK    4  A    between atoms: N_19  and  C_23
REMARK    5  A    between atoms: C_23  and  C_24
REMARK                            x       y       z     vdW  Elec       q    Type
REMARK                         _______ _______ _______ _____ _____    ______ ____
ROOT
ATOM      1  C   UNL     1       1.979  -1.682  -0.027  0.00  0.00    +0.077 C 
ATOM      2  C   UNL     1       1.444  -0.385  -0.014  0.00  0.00    +0.108 C 
ATOM      3  C   UNL     1       0.002  -0.004   0.002  0.00  0.00    +0.269 C 
ATOM      4  O   UNL     1      -0.955  -0.751   0.007  0.00  0.00    -0.268 OA
ATOM      5  N   UNL     1      -0.016   1.346   0.009  0.00  0.00    -0.244 N 
ATOM      6  C   UNL     1       1.249   1.798  -0.000  0.00  0.00    +0.153 C 
ATOM      7  S   UNL     1       1.685   3.453   0.004  0.00  0.00    -0.015 SA
ATOM      8  N   UNL     1       2.127   0.782  -0.014  0.00  0.00    -0.333 N 
ATOM      9  H   UNL     1       3.207   0.989  -0.023  0.00  0.00    +0.168 HD
ENDROOT
BRANCH   1  13
ATOM     10  C   UNL     1      -0.690  -4.010  -0.016  0.00  0.00    +0.136 A 
ATOM     11  C   UNL     1       0.392  -4.920  -0.031  0.00  0.00    +0.050 A 
ATOM     12  C   UNL     1       1.540  -4.192  -0.043  0.00  0.00    +0.050 A 
ATOM     13  C   UNL     1       1.133  -2.781  -0.025  0.00  0.00    +0.131 A 
ATOM     14  O   UNL     1      -0.218  -2.752  -0.013  0.00  0.00    -0.455 OA
BRANCH  10  17
ATOM     15  C   UNL     1      -3.817  -6.070   0.003  0.00  0.00    +0.003 A 
ATOM     16  C   UNL     1      -2.482  -5.736  -0.008  0.00  0.00    +0.012 A 
ATOM     17  C   UNL     1      -2.104  -4.380  -0.004  0.00  0.00    +0.019 A 
ATOM     18  C   UNL     1      -3.097  -3.383   0.017  0.00  0.00    +0.044 A 
ATOM     19  C   UNL     1      -4.416  -3.738   0.021  0.00  0.00    +0.127 A 
ATOM     20  C   UNL     1      -4.783  -5.075   0.017  0.00  0.00    +0.033 A 
BRANCH  19  21
ATOM     21  N   UNL     1      -5.460  -2.688   0.035  0.00  0.00    +0.056 N 
ATOM     22  O   UNL     1      -6.733  -3.026   0.045  0.00  0.00    -0.126 OA
ATOM     23  O   UNL     1      -5.116  -1.417   0.039  0.00  0.00    -0.126 OA
ENDBRANCH  19  21
ENDBRANCH  10  17
ENDBRANCH   1  13
BRANCH   5  24
ATOM     24  C   UNL     1      -1.219   2.182   0.020  0.00  0.00    +0.147 C 
BRANCH  24  25
ATOM     25  C   UNL     1      -1.631   2.465   1.466  0.00  0.00    +0.136 C 
ATOM     26  C   UNL     1      -2.943   3.289   1.500  0.00  0.00    +0.035 C 
ATOM     27  C   UNL     1      -3.494   2.908   2.901  0.00  0.00    +0.031 C 
ATOM     28  C   UNL     1      -3.037   1.440   3.045  0.00  0.00    +0.160 C 
ATOM     29  O   UNL     1      -1.941   1.238   2.146  0.00  0.00    -0.375 OA
ENDBRANCH  24  25
ENDBRANCH   5  24
TORSDOF 5
