REMARK  Name = ZINC39949516
REMARK  4 active torsions:
REMARK  status: ('A' for Active; 'I' for Inactive)
REMARK    1  A    between atoms: C_10  and  C_11
REMARK    2  A    between atoms: C_11  and  C_12
REMARK    3  A    between atoms: C_13  and  C_19
REMARK    4  A    between atoms: C_20  and  C_21
REMARK                            x       y       z     vdW  Elec       q    Type
REMARK                         _______ _______ _______ _____ _____    ______ ____
ROOT
ATOM      1  C   UNL     1       5.278   0.624   1.352  0.00  0.00    +0.047 A 
ATOM      2  C   UNL     1       6.201  -0.055   2.134  0.00  0.00    +0.074 A 
ATOM      3  N   UNL     1       6.464   0.382   3.379  0.00  0.00    -0.237 NA
ATOM      4  C   UNL     1       5.868   1.434   3.867  0.00  0.00    +0.199 A 
ATOM      5  N   UNL     1       4.963   2.133   3.154  0.00  0.00    -0.313 N 
ATOM      6  C   UNL     1       4.651   1.759   1.895  0.00  0.00    +0.255 A 
ATOM      7  O   UNL     1       3.836   2.391   1.243  0.00  0.00    -0.267 OA
ATOM      8  H   UNL     1       4.536   2.911   3.546  0.00  0.00    +0.170 HD
ENDROOT
BRANCH   2   9
ATOM      9  C   UNL     1       6.888  -1.248   1.604  0.00  0.00    +0.025 C 
ATOM     10  C   UNL     1       7.771  -1.895   2.357  0.00  0.00    -0.007 C 
BRANCH  10  11
ATOM     11  C   UNL     1       8.473  -3.113   1.816  0.00  0.00    +0.137 C 
ATOM     12  C   UNL     1       9.957  -2.810   1.744  0.00  0.00    +0.092 C 
ATOM     13  N   UNL     1      10.768  -3.578   2.404  0.00  0.00    -0.174 NA
ATOM     14  C   UNL     1      10.349  -4.615   3.136  0.00  0.00    +0.329 C 
ATOM     15  O   UNL     1      11.192  -5.272   3.715  0.00  0.00    -0.250 OA
ATOM     16  N   UNL     1       9.070  -4.984   3.278  0.00  0.00    -0.238 N 
ATOM     17  C   UNL     1       8.077  -4.305   2.668  0.00  0.00    +0.232 C 
ATOM     18  O   UNL     1       6.917  -4.635   2.796  0.00  0.00    -0.274 OA
ATOM     19  H   UNL     1       8.854  -5.752   3.829  0.00  0.00    +0.159 HD
ENDBRANCH  10  11
ENDBRANCH   2   9
BRANCH   1  20
ATOM     20  C   UNL     1       4.960   0.161  -0.046  0.00  0.00    +0.078 C 
BRANCH  20  30
ATOM     21  C   UNL     1       2.037  -2.153  -3.553  0.00  0.00    +0.001 A 
ATOM     22  C   UNL     1       3.154  -1.321  -3.602  0.00  0.00    +0.001 A 
ATOM     23  C   UNL     1       3.728  -0.850  -2.462  0.00  0.00    +0.009 A 
ATOM     24  C   UNL     1       3.188  -1.206  -1.214  0.00  0.00    -0.014 A 
ATOM     25  C   UNL     1       2.051  -2.052  -1.164  0.00  0.00    -0.018 A 
ATOM     26  C   UNL     1       1.487  -2.518  -2.364  0.00  0.00    +0.008 A 
ATOM     27  C   UNL     1       1.511  -2.407   0.084  0.00  0.00    +0.008 A 
ATOM     28  C   UNL     1       2.084  -1.935   1.225  0.00  0.00    +0.001 A 
ATOM     29  C   UNL     1       3.201  -1.104   1.176  0.00  0.00    +0.004 A 
ATOM     30  C   UNL     1       3.752  -0.739  -0.015  0.00  0.00    -0.035 A 
ENDBRANCH  20  30
ENDBRANCH   1  20
TORSDOF 4
