REMARK  Name = ZINC65184235
REMARK  6 active torsions:
REMARK  status: ('A' for Active; 'I' for Inactive)
REMARK    1  A    between atoms: C_3  and  C_6
REMARK    2  A    between atoms: C_6  and  N_7
REMARK    3  A    between atoms: C_8  and  C_10
REMARK    4  A    between atoms: C_10  and  N_11
REMARK    5  A    between atoms: C_14  and  C_17
REMARK    6  A    between atoms: C_19  and  C_22
REMARK                            x       y       z     vdW  Elec       q    Type
REMARK                         _______ _______ _______ _____ _____    ______ ____
ROOT
ATOM      1  N   UNL     1       7.412   0.521   2.981  0.00  0.00    +0.385 N 
ATOM      2  C   UNL     1       7.923   1.764   2.389  0.00  0.00    -0.077 C 
ATOM      3  C   UNL     1       9.449   1.700   2.297  0.00  0.00    -0.006 C 
ATOM      4  C   UNL     1      10.033   1.524   3.702  0.00  0.00    +0.074 C 
ATOM      5  C   UNL     1       9.436   0.265   4.338  0.00  0.00    -0.006 C 
ATOM      6  C   UNL     1       7.911   0.382   4.355  0.00  0.00    -0.077 C 
ATOM      7  H   UNL     1       7.724  -0.264   2.430  0.00  0.00    -0.081 HD
ENDROOT
BRANCH   4   8
ATOM      8  C   UNL     1      11.530   1.381   3.611  0.00  0.00    +0.231 A 
ATOM      9  N   UNL     1      12.405   2.167   4.171  0.00  0.00    -0.191 NA
ATOM     10  C   UNL     1      13.651   1.749   3.884  0.00  0.00    +0.202 A 
ATOM     11  N   UNL     1      13.570   0.680   3.130  0.00  0.00    -0.056 NA
ATOM     12  O   UNL     1      12.187   0.422   2.946  0.00  0.00    -0.337 OA
BRANCH  10  13
ATOM     13  C   UNL     1      14.907   2.391   4.345  0.00  0.00    +0.023 A 
ATOM     14  C   UNL     1      14.857   3.526   5.152  0.00  0.00    +0.014 A 
ATOM     15  C   UNL     1      16.027   4.119   5.578  0.00  0.00    +0.039 A 
ATOM     16  C   UNL     1      17.251   3.587   5.205  0.00  0.00    +0.123 A 
ATOM     17  C   UNL     1      17.306   2.459   4.402  0.00  0.00    +0.039 A 
ATOM     18  C   UNL     1      16.140   1.857   3.976  0.00  0.00    +0.014 A 
ATOM     19  F   UNL     1      18.395   4.171   5.625  0.00  0.00    -0.205 F 
ENDBRANCH  10  13
ENDBRANCH   4   8
BRANCH   1  20
ATOM     20  C   UNL     1       5.944   0.555   2.996  0.00  0.00    +0.019 C 
BRANCH  20  22
ATOM     21  N   UNL     1       4.101   0.607   1.347  0.00  0.00    -0.310 N 
ATOM     22  C   UNL     1       5.428   0.575   1.580  0.00  0.00    +0.197 C 
ATOM     23  O   UNL     1       6.207   0.561   0.650  0.00  0.00    -0.278 OA
ATOM     24  H   UNL     1       3.478   0.617   2.090  0.00  0.00    +0.149 HD
BRANCH  21  25
ATOM     25  C   UNL     1       3.599   0.625  -0.029  0.00  0.00    +0.178 C 
BRANCH  25  28
ATOM     26  C   UNL     1      -0.016   1.341   0.009  0.00  0.00    +0.041 A 
ATOM     27  C   UNL     1       1.331   1.769  -0.001  0.00  0.00    +0.046 A 
ATOM     28  C   UNL     1       2.092   0.660  -0.014  0.00  0.00    +0.122 A 
ATOM     29  O   UNL     1       1.282  -0.411  -0.012  0.00  0.00    -0.466 OA
ATOM     30  C   UNL     1       0.002  -0.004   0.002  0.00  0.00    +0.195 A 
ENDBRANCH  25  28
ENDBRANCH  21  25
ENDBRANCH  20  22
ENDBRANCH   1  20
TORSDOF 6
