REMARK  Name = ZINC12371057
REMARK  8 active torsions:
REMARK  status: ('A' for Active; 'I' for Inactive)
REMARK    1  A    between atoms: C_1  and  O_2
REMARK    2  A    between atoms: O_2  and  C_3
REMARK    3  A    between atoms: C_6  and  N_9
REMARK    4  A    between atoms: C_18  and  C_22
REMARK    5  A    between atoms: C_18  and  N_26
REMARK    6  A    between atoms: C_27  and  C_29
REMARK    7  A    between atoms: C_29  and  C_30
REMARK    8  A    between atoms: C_30  and  C_31
REMARK                            x       y       z     vdW  Elec       q    Type
REMARK                         _______ _______ _______ _____ _____    ______ ____
ROOT
ATOM      1  N   UNL     1      -1.520   2.157  -0.008  0.00  0.00    -0.249 N 
ATOM      2  C   UNL     1      -1.517   3.496   0.325  0.00  0.00    +0.125 A 
ATOM      3  C   UNL     1      -0.330   4.167   0.299  0.00  0.00    +0.097 A 
ATOM      4  C   UNL     1       0.849   3.499  -0.053  0.00  0.00    +0.262 A 
ATOM      5  O   UNL     1       1.912   4.096  -0.077  0.00  0.00    -0.267 OA
ATOM      6  N   UNL     1       0.797   2.187  -0.365  0.00  0.00    -0.274 N 
ATOM      7  H   UNL     1       1.717   1.651  -0.643  0.00  0.00    +0.173 HD
ATOM      8  C   UNL     1      -0.377   1.532  -0.338  0.00  0.00    +0.335 A 
ATOM      9  O   UNL     1      -0.406   0.350  -0.623  0.00  0.00    -0.246 OA
ATOM     10  C   UNL     1      -0.631   5.593   0.695  0.00  0.00    +0.240 C 
ATOM     11  C   UNL     1      -2.128   5.586   0.933  0.00  0.00    +0.256 C 
ATOM     12  O   UNL     1      -2.813   6.527   1.273  0.00  0.00    -0.272 OA
ATOM     13  N   UNL     1      -2.545   4.331   0.693  0.00  0.00    -0.269 N 
ATOM     14  H   UNL     1      -3.571   3.942   0.762  0.00  0.00    +0.156 HD
ENDROOT
BRANCH   1  18
ATOM     15  C   UNL     1      -5.106   0.026   0.028  0.00  0.00    +0.120 A 
ATOM     16  C   UNL     1      -4.126  -0.251   0.969  0.00  0.00    +0.047 A 
ATOM     17  C   UNL     1      -2.939   0.454   0.958  0.00  0.00    +0.030 A 
ATOM     18  C   UNL     1      -2.726   1.440   0.004  0.00  0.00    +0.053 A 
ATOM     19  C   UNL     1      -3.710   1.721  -0.935  0.00  0.00    +0.030 A 
ATOM     20  C   UNL     1      -4.894   1.011  -0.926  0.00  0.00    +0.047 A 
BRANCH  15  22
ATOM     21  C   UNL     1      -7.240  -0.331  -0.960  0.00  0.00    +0.277 C 
ATOM     22  O   UNL     1      -6.275  -0.668   0.039  0.00  0.00    -0.495 OA
ENDBRANCH  15  22
ENDBRANCH   1  18
BRANCH  10  23
ATOM     23  C   UNL     1       0.117   5.965   1.978  0.00  0.00    +0.424 C 
ATOM     24  F   UNL     1       1.494   5.952   1.734  0.00  0.00    -0.167 F 
ATOM     25  F   UNL     1      -0.272   7.243   2.390  0.00  0.00    -0.167 F 
ATOM     26  F   UNL     1      -0.188   5.038   2.980  0.00  0.00    -0.167 F 
ENDBRANCH  10  23
BRANCH  10  27
ATOM     27  N   UNL     1      -0.285   6.514  -0.390  0.00  0.00    -0.291 N 
ATOM     28  C   UNL     1      -0.899   6.408  -1.585  0.00  0.00    +0.214 C 
ATOM     29  O   UNL     1      -1.673   5.497  -1.791  0.00  0.00    -0.276 OA
ATOM     30  H   UNL     1       0.475   7.293  -0.230  0.00  0.00    +0.150 HD
BRANCH  28  31
ATOM     31  C   UNL     1      -0.623   7.421  -2.667  0.00  0.00    +0.096 C 
BRANCH  31  32
ATOM     32  C   UNL     1      -1.440   7.072  -3.912  0.00  0.00    +0.013 C 
BRANCH  32  33
ATOM     33  C   UNL     1      -1.161   8.100  -5.010  0.00  0.00    -0.011 C 
ATOM     34  C   UNL     1      -1.668   9.473  -4.564  0.00  0.00    +0.003 C 
ATOM     35  C   UNL     1      -1.388  10.502  -5.662  0.00  0.00    +0.000 C 
ATOM     36  C   UNL     1      -2.107  10.085  -6.947  0.00  0.00    +0.000 C 
ATOM     37  C   UNL     1      -1.600   8.712  -7.392  0.00  0.00    +0.000 C 
ATOM     38  C   UNL     1      -1.880   7.684  -6.295  0.00  0.00    +0.003 C 
ENDBRANCH  32  33
ENDBRANCH  31  32
ENDBRANCH  28  31
ENDBRANCH  10  27
TORSDOF 7
