REMARK  Name = ZINC00668867
REMARK  8 active torsions:
REMARK  status: ('A' for Active; 'I' for Inactive)
REMARK    1  A    between atoms: C_1  and  C_2
REMARK    2  A    between atoms: C_3  and  C_23
REMARK    3  A    between atoms: C_4  and  C_19
REMARK    4  A    between atoms: C_5  and  N_7
REMARK    5  A    between atoms: C_8  and  C_10
REMARK    6  A    between atoms: C_13  and  N_16
REMARK    7  A    between atoms: C_19  and  O_21
REMARK    8  A    between atoms: O_21  and  C_22
REMARK                            x       y       z     vdW  Elec       q    Type
REMARK                         _______ _______ _______ _____ _____    ______ ____
ROOT
ATOM      1  C   UNL     1       4.070   4.680  -0.010  0.00  0.00    +0.052 C 
ATOM      2  C   UNL     1       3.183   3.462  -0.008  0.00  0.00    -0.003 A 
ATOM      3  C   UNL     1       3.548   2.155  -0.019  0.00  0.00    +0.008 A 
ATOM      4  C   UNL     1       2.476   1.178  -0.010  0.00  0.00    +0.095 A 
ATOM      5  C   UNL     1       1.178   1.674  -0.000  0.00  0.00    +0.087 A 
ATOM      6  S   UNL     1       1.404   3.391   0.007  0.00  0.00    -0.077 S 
ENDROOT
BRANCH   3   7
ATOM      7  C   UNL     1       4.973   1.745  -0.034  0.00  0.00    -0.016 A 
ATOM      8  C   UNL     1       5.493   1.063  -1.133  0.00  0.00    +0.011 A 
ATOM      9  C   UNL     1       6.821   0.688  -1.144  0.00  0.00    +0.039 A 
ATOM     10  C   UNL     1       7.634   0.979  -0.061  0.00  0.00    +0.123 A 
ATOM     11  C   UNL     1       7.120   1.652   1.035  0.00  0.00    +0.039 A 
ATOM     12  C   UNL     1       5.795   2.036   1.054  0.00  0.00    +0.011 A 
ATOM     13  F   UNL     1       8.932   0.605  -0.074  0.00  0.00    -0.205 F 
ENDBRANCH   3   7
BRANCH   5  14
ATOM     14  N   UNL     1      -0.011   0.966   0.007  0.00  0.00    -0.275 N 
ATOM     15  C   UNL     1      -1.187   1.624   0.017  0.00  0.00    +0.249 C 
ATOM     16  O   UNL     1      -1.204   2.839   0.023  0.00  0.00    -0.270 OA
ATOM     17  H   UNL     1       0.002  -0.004   0.002  0.00  0.00    +0.156 HD
BRANCH  15  18
ATOM     18  C   UNL     1      -2.457   0.868   0.018  0.00  0.00    +0.037 A 
ATOM     19  C   UNL     1      -2.442  -0.528   0.005  0.00  0.00    +0.015 A 
ATOM     20  C   UNL     1      -3.631  -1.228   0.012  0.00  0.00    +0.033 A 
ATOM     21  C   UNL     1      -4.836  -0.550   0.021  0.00  0.00    +0.126 A 
ATOM     22  C   UNL     1      -4.859   0.834   0.029  0.00  0.00    +0.033 A 
ATOM     23  C   UNL     1      -3.677   1.546   0.028  0.00  0.00    +0.015 A 
BRANCH  21  24
ATOM     24  N   UNL     1      -6.108  -1.307   0.021  0.00  0.00    +0.056 N 
ATOM     25  O   UNL     1      -7.171  -0.712   0.030  0.00  0.00    -0.126 OA
ATOM     26  O   UNL     1      -6.091  -2.525   0.014  0.00  0.00    -0.126 OA
ENDBRANCH  21  24
ENDBRANCH  15  18
ENDBRANCH   5  14
BRANCH   4  27
ATOM     27  C   UNL     1       2.747  -0.260  -0.013  0.00  0.00    +0.342 C 
ATOM     28  O   UNL     1       2.853  -0.856  -1.069  0.00  0.00    -0.245 OA
BRANCH  27  29
ATOM     29  O   UNL     1       2.879  -0.924   1.153  0.00  0.00    -0.464 OA
ATOM     30  C   UNL     1       3.148  -2.349   1.073  0.00  0.00    +0.280 C 
ENDBRANCH  27  29
ENDBRANCH   4  27
TORSDOF 6
