REMARK  Name = ZINC03337482
REMARK  7 active torsions:
REMARK  status: ('A' for Active; 'I' for Inactive)
REMARK    1  A    between atoms: C_1  and  C_2
REMARK    2  A    between atoms: C_5  and  N_8
REMARK    3  A    between atoms: C_12  and  S_14
REMARK    4  A    between atoms: S_14  and  C_15
REMARK    5  A    between atoms: C_15  and  C_16
REMARK    6  A    between atoms: N_26  and  C_27
REMARK    7  A    between atoms: C_27  and  C_28
REMARK                            x       y       z     vdW  Elec       q    Type
REMARK                         _______ _______ _______ _____ _____    ______ ____
ROOT
ATOM      1  S   UNL     1      -1.285  -1.105  -0.871  0.00  0.00    -0.089 S 
ENDROOT
BRANCH   1   6
ATOM      2  N   UNL     1       2.460   3.236  -0.004  0.00  0.00    -0.292 N 
ATOM      3  C   UNL     1       1.757   2.050  -0.190  0.00  0.00    +0.187 A 
ATOM      4  N   UNL     1       2.201   0.808  -0.196  0.00  0.00    -0.125 NA
ATOM      5  N   UNL     1       1.324  -0.232  -0.400  0.00  0.00    -0.133 NA
ATOM      6  C   UNL     1       0.042   0.019  -0.590  0.00  0.00    +0.160 A 
ATOM      7  S   UNL     1       0.013   1.802  -0.484  0.00  0.00    -0.024 S 
ATOM      8  H   UNL     1       1.982   4.077   0.061  0.00  0.00    +0.154 HD
BRANCH   2  13
ATOM      9  C   UNL     1       8.118   3.151   0.370  0.00  0.00    +0.044 C 
ATOM     10  C   UNL     1       6.614   3.174   0.270  0.00  0.00    -0.050 A 
ATOM     11  C   UNL     1       5.954   2.176  -0.423  0.00  0.00    +0.005 A 
ATOM     12  C   UNL     1       4.576   2.193  -0.516  0.00  0.00    +0.023 A 
ATOM     13  C   UNL     1       3.853   3.215   0.088  0.00  0.00    +0.033 A 
ATOM     14  C   UNL     1       4.521   4.219   0.778  0.00  0.00    +0.023 A 
ATOM     15  C   UNL     1       5.898   4.192   0.873  0.00  0.00    +0.005 A 
ENDBRANCH   2  13
ENDBRANCH   1   6
BRANCH   1  16
ATOM     16  C   UNL     1      -0.492  -2.736  -0.846  0.00  0.00    +0.151 C 
BRANCH  16  17
ATOM     17  C   UNL     1      -1.531  -3.804  -1.078  0.00  0.00    +0.124 A 
ATOM     18  N   UNL     1      -2.764  -3.436  -1.246  0.00  0.00    -0.233 NA
ATOM     19  C   UNL     1      -3.752  -4.340  -1.465  0.00  0.00    +0.078 A 
ATOM     20  C   UNL     1      -5.079  -3.945  -1.651  0.00  0.00    +0.028 A 
ATOM     21  C   UNL     1      -6.050  -4.897  -1.864  0.00  0.00    +0.002 A 
ATOM     22  C   UNL     1      -5.728  -6.247  -1.897  0.00  0.00    +0.001 A 
ATOM     23  C   UNL     1      -4.426  -6.662  -1.716  0.00  0.00    +0.015 A 
ATOM     24  C   UNL     1      -3.428  -5.714  -1.499  0.00  0.00    +0.065 A 
ATOM     25  C   UNL     1      -2.023  -6.097  -1.298  0.00  0.00    +0.263 A 
ATOM     26  O   UNL     1      -1.676  -7.264  -1.316  0.00  0.00    -0.267 OA
ATOM     27  N   UNL     1      -1.129  -5.101  -1.094  0.00  0.00    -0.282 N 
BRANCH  27  28
ATOM     28  C   UNL     1       0.285  -5.426  -0.889  0.00  0.00    +0.245 C 
BRANCH  28  29
ATOM     29  C   UNL     1       0.541  -5.619   0.548  0.00  0.00    +0.084 C 
ATOM     30  N   UNL     1       0.738  -5.769   1.656  0.00  0.00    -0.195 NA
ENDBRANCH  28  29
ENDBRANCH  27  28
ENDBRANCH  16  17
ENDBRANCH   1  16
TORSDOF 6
