REMARK  Name = ZINC18038561
REMARK  6 active torsions:
REMARK  status: ('A' for Active; 'I' for Inactive)
REMARK    1  A    between atoms: C_1  and  C_2
REMARK    2  A    between atoms: C_5  and  C_8
REMARK    3  A    between atoms: N_10  and  C_11
REMARK    4  A    between atoms: C_11  and  C_12
REMARK    5  A    between atoms: N_14  and  N_15
REMARK    6  A    between atoms: C_21  and  C_24
REMARK                            x       y       z     vdW  Elec       q    Type
REMARK                         _______ _______ _______ _____ _____    ______ ____
ROOT
ATOM      1  C   UNL     1       3.886  -4.753  -0.060  0.00  0.00    +0.247 C 
ATOM      2  O   UNL     1       4.793  -3.948  -0.064  0.00  0.00    -0.273 OA
ATOM      3  N   UNL     1       4.157  -6.073  -0.069  0.00  0.00    -0.222 N 
ATOM      4  H   UNL     1       3.432  -6.717  -0.065  0.00  0.00    +0.174 HD
ENDROOT
BRANCH   3   5
ATOM      5  N   UNL     1       5.486  -6.515  -0.084  0.00  0.00    -0.137 N 
ATOM      6  C   UNL     1       6.125  -7.034   0.985  0.00  0.00    +0.263 C 
ATOM      7  O   UNL     1       5.676  -7.199   2.099  0.00  0.00    -0.271 OA
ATOM      8  C   UNL     1       7.519  -7.365   0.501  0.00  0.00    +0.114 C 
ATOM      9  C   UNL     1       7.783  -8.861   0.628  0.00  0.00    +0.035 C 
ATOM     10  C   UNL     1       9.187  -9.180   0.108  0.00  0.00    +0.006 C 
ATOM     11  C   UNL     1      10.220  -8.392   0.916  0.00  0.00    -0.014 C 
ATOM     12  C   UNL     1       9.956  -6.893   0.758  0.00  0.00    +0.006 C 
ATOM     13  C   UNL     1       8.556  -6.565   1.282  0.00  0.00    +0.035 C 
ATOM     14  C   UNL     1      11.625  -8.718   0.404  0.00  0.00    +0.007 C 
ATOM     15  N   UNL     1       7.511  -6.961  -0.910  0.00  0.00    -0.284 N 
ATOM     16  C   UNL     1       6.279  -6.481  -1.163  0.00  0.00    +0.326 C 
ATOM     17  O   UNL     1       5.926  -6.060  -2.247  0.00  0.00    -0.251 OA
ATOM     18  H   UNL     1       8.247  -7.031  -1.538  0.00  0.00    +0.151 HD
ENDBRANCH   3   5
BRANCH   1  19
ATOM     19  C   UNL     1       2.456  -4.277  -0.043  0.00  0.00    +0.202 C 
BRANCH  19  22
ATOM     20  C   UNL     1       1.250  -2.160  -0.021  0.00  0.00    +0.244 C 
ATOM     21  O   UNL     1       0.208  -2.788  -0.014  0.00  0.00    -0.270 OA
ATOM     22  N   UNL     1       2.429  -2.812  -0.036  0.00  0.00    -0.303 N 
ATOM     23  H   UNL     1       3.260  -2.312  -0.041  0.00  0.00    +0.150 HD
BRANCH  20  28
ATOM     24  C   UNL     1       1.142   3.593   0.010  0.00  0.00    +0.044 C 
ATOM     25  C   UNL     1       1.170   2.086   0.002  0.00  0.00    -0.050 A 
ATOM     26  C   UNL     1      -0.017   1.375   0.010  0.00  0.00    +0.004 A 
ATOM     27  C   UNL     1       0.002  -0.004   0.002  0.00  0.00    +0.013 A 
ATOM     28  C   UNL     1       1.222  -0.682  -0.013  0.00  0.00    +0.037 A 
ATOM     29  C   UNL     1       2.416   0.041  -0.021  0.00  0.00    +0.013 A 
ATOM     30  C   UNL     1       2.383   1.420  -0.013  0.00  0.00    +0.004 A 
ENDBRANCH  20  28
ENDBRANCH  19  22
ENDBRANCH   1  19
TORSDOF 4
