REMARK  Name = ZINC43528061
REMARK  14 active torsions:
REMARK  status: ('A' for Active; 'I' for Inactive)
REMARK    1  A    between atoms: C_1  and  C_2
REMARK    2  A    between atoms: C_4  and  C_31
REMARK    3  A    between atoms: C_6  and  C_8
REMARK    4  A    between atoms: C_17  and  C_19
REMARK    5  A    between atoms: C_19  and  N_20
REMARK    6  A    between atoms: C_21  and  C_23
REMARK    7  A    between atoms: C_23  and  C_24
REMARK    8  A    between atoms: C_24  and  C_25
REMARK    9  A    between atoms: C_24  and  C_26
REMARK   10  A    between atoms: C_24  and  C_27
REMARK   11  A    between atoms: C_27  and  C_28
REMARK   12  A    between atoms: C_34  and  N_37
REMARK   13  A    between atoms: N_37  and  C_38
REMARK   14  A    between atoms: N_37  and  C_39
REMARK                            x       y       z     vdW  Elec       q    Type
REMARK                         _______ _______ _______ _____ _____    ______ ____
ROOT
ATOM      1  C   UNL     1       0.052  -2.698   2.512  0.00  0.00    +0.024 C 
ATOM      2  C   UNL     1      -0.752  -3.995   2.397  0.00  0.00    -0.068 C 
ATOM      3  N   UNL     1       0.108  -5.146   2.683  0.00  0.00    +0.383 N 
ATOM      4  C   UNL     1       1.205  -5.222   1.715  0.00  0.00    -0.078 C 
ATOM      5  C   UNL     1       2.074  -3.966   1.808  0.00  0.00    -0.015 C 
ATOM      6  C   UNL     1       1.498  -3.041   2.892  0.00  0.00    -0.007 C 
ATOM      7  C   UNL     1       1.480  -3.808   4.221  0.00  0.00    -0.010 C 
ATOM      8  C   UNL     1       0.630  -5.072   4.050  0.00  0.00    -0.051 C 
ATOM      9  H   UNL     1      -0.444  -5.986   2.596  0.00  0.00    -0.081 HD
ENDROOT
BRANCH   1  15
ATOM     10  C   UNL     1      -0.018   1.503   0.010  0.00  0.00    +0.088 C 
ATOM     11  C   UNL     1       0.002  -0.004   0.002  0.00  0.00    +0.127 A 
ATOM     12  N   UNL     1       0.005  -0.637  -1.153  0.00  0.00    -0.232 NA
ATOM     13  C   UNL     1       0.024  -1.968  -1.197  0.00  0.00    +0.075 A 
ATOM     14  C   UNL     1       0.039  -2.684   0.004  0.00  0.00    +0.052 A 
ATOM     15  C   UNL     1       0.035  -1.974   1.190  0.00  0.00    +0.047 A 
ATOM     16  N   UNL     1       0.022  -0.650   1.151  0.00  0.00    -0.237 NA
BRANCH  13  17
ATOM     17  C   UNL     1       0.026  -2.678  -2.498  0.00  0.00    +0.001 A 
ATOM     18  C   UNL     1       0.040  -4.073  -2.532  0.00  0.00    +0.012 A 
ATOM     19  C   UNL     1       0.042  -4.731  -3.743  0.00  0.00    +0.024 A 
ATOM     20  C   UNL     1       0.031  -4.006  -4.930  0.00  0.00    +0.029 A 
ATOM     21  C   UNL     1       0.018  -2.615  -4.898  0.00  0.00    +0.024 A 
ATOM     22  C   UNL     1       0.010  -1.953  -3.690  0.00  0.00    +0.012 A 
BRANCH  20  23
ATOM     23  N   UNL     1       0.034  -4.674  -6.153  0.00  0.00    -0.336 N 
ATOM     24  C   UNL     1       0.048  -6.138  -6.188  0.00  0.00    +0.129 C 
ATOM     25  C   UNL     1       0.022  -3.911  -7.404  0.00  0.00    +0.129 C 
ENDBRANCH  20  23
ENDBRANCH  13  17
ENDBRANCH   1  15
BRANCH   8  26
ATOM     26  C   UNL     1       1.489  -6.306   4.332  0.00  0.00    +0.089 C 
BRANCH  26  27
ATOM     27  N   UNL     1       0.708  -7.517   4.068  0.00  0.00    -0.317 N 
ATOM     28  C   UNL     1       1.264  -8.731   4.249  0.00  0.00    +0.213 C 
ATOM     29  O   UNL     1       2.412  -8.821   4.630  0.00  0.00    -0.276 OA
ATOM     30  H   UNL     1      -0.210  -7.444   3.762  0.00  0.00    +0.149 HD
BRANCH  28  31
ATOM     31  C   UNL     1       0.460  -9.976   3.977  0.00  0.00    +0.102 C 
BRANCH  31  32
ATOM     32  C   UNL     1       1.320 -11.210   4.259  0.00  0.00    -0.016 C 
ATOM     33  C   UNL     1       2.552 -11.191   3.353  0.00  0.00    +0.012 C 
ATOM     34  C   UNL     1       1.763 -11.198   5.724  0.00  0.00    +0.012 C 
BRANCH  32  35
ATOM     35  C   UNL     1       0.504 -12.474   3.983  0.00  0.00    +0.132 C 
BRANCH  35  36
ATOM     36  C   UNL     1       1.351 -13.689   4.261  0.00  0.00    +0.357 C 
ATOM     37  O   UNL     1       2.500 -13.556   4.645  0.00  0.00    -0.246 OA
ATOM     38  O   UNL     1       0.886 -14.805   4.103  0.00  0.00    -0.246 OA
ENDBRANCH  35  36
ENDBRANCH  32  35
ENDBRANCH  31  32
ENDBRANCH  28  31
ENDBRANCH  26  27
ENDBRANCH   8  26
TORSDOF 9
