REMARK  Name = ZINC39884533
REMARK  7 active torsions:
REMARK  status: ('A' for Active; 'I' for Inactive)
REMARK    1  A    between atoms: C_1  and  C_2
REMARK    2  A    between atoms: C_5  and  C_11
REMARK    3  A    between atoms: C_6  and  N_8
REMARK    4  A    between atoms: C_14  and  C_16
REMARK    5  A    between atoms: C_17  and  C_18
REMARK    6  A    between atoms: C_17  and  C_20
REMARK    7  A    between atoms: N_22  and  C_23
REMARK                            x       y       z     vdW  Elec       q    Type
REMARK                         _______ _______ _______ _____ _____    ______ ____
ROOT
ATOM      1  C   UNL     1       0.092  -4.250  -0.063  0.00  0.00    +0.138 A 
ATOM      2  C   UNL     1      -0.753  -5.063  -0.789  0.00  0.00    +0.050 A 
ATOM      3  C   UNL     1      -0.400  -6.380  -0.502  0.00  0.00    +0.050 A 
ATOM      4  C   UNL     1       0.657  -6.326   0.395  0.00  0.00    +0.130 A 
ATOM      5  O   UNL     1       0.936  -5.027   0.638  0.00  0.00    -0.455 OA
ENDROOT
BRANCH   1  10
ATOM      6  C   UNL     1       0.033   1.501  -0.057  0.00  0.00    +0.044 C 
ATOM      7  C   UNL     1       0.049  -0.005  -0.059  0.00  0.00    -0.048 A 
ATOM      8  C   UNL     1       0.057  -0.693  -1.260  0.00  0.00    +0.004 A 
ATOM      9  C   UNL     1       0.072  -2.072  -1.269  0.00  0.00    +0.014 A 
ATOM     10  C   UNL     1       0.077  -2.775  -0.062  0.00  0.00    +0.047 A 
ATOM     11  C   UNL     1       0.069  -2.074   1.147  0.00  0.00    +0.137 A 
ATOM     12  C   UNL     1       0.060  -0.695   1.141  0.00  0.00    +0.036 A 
BRANCH  11  13
ATOM     13  N   UNL     1       0.075  -2.811   2.431  0.00  0.00    +0.057 N 
ATOM     14  O   UNL     1       0.067  -2.203   3.477  0.00  0.00    -0.126 OA
ATOM     15  O   UNL     1       0.087  -4.019   2.435  0.00  0.00    -0.126 OA
ENDBRANCH  11  13
ENDBRANCH   1  10
BRANCH   4  16
ATOM     16  C   UNL     1       1.324  -7.430   0.951  0.00  0.00    +0.070 C 
ATOM     17  C   UNL     1       2.370  -7.232   1.841  0.00  0.00    +0.117 C 
BRANCH  17  18
ATOM     18  C   UNL     1       3.068  -8.386   2.421  0.00  0.00    +0.259 C 
ATOM     19  O   UNL     1       2.728  -9.515   2.122  0.00  0.00    -0.269 OA
ATOM     20  N   UNL     1       4.084  -8.194   3.286  0.00  0.00    -0.279 N 
ATOM     21  H   UNL     1       4.397  -7.295   3.474  0.00  0.00    +0.155 HD
BRANCH  20  22
ATOM     22  C   UNL     1       4.687  -9.291   3.911  0.00  0.00    +0.069 A 
ATOM     23  C   UNL     1       4.820 -10.494   3.231  0.00  0.00    +0.026 A 
ATOM     24  C   UNL     1       5.415 -11.575   3.850  0.00  0.00    +0.002 A 
ATOM     25  C   UNL     1       5.880 -11.461   5.148  0.00  0.00    +0.003 A 
ATOM     26  C   UNL     1       5.751 -10.266   5.830  0.00  0.00    +0.040 A 
ATOM     27  C   UNL     1       5.161  -9.177   5.214  0.00  0.00    +0.144 A 
ATOM     28  F   UNL     1       5.040  -8.007   5.878  0.00  0.00    -0.204 F 
ENDBRANCH  20  22
ENDBRANCH  17  18
BRANCH  17  29
ATOM     29  C   UNL     1       2.770  -5.903   2.193  0.00  0.00    +0.104 C 
ATOM     30  N   UNL     1       3.087  -4.848   2.472  0.00  0.00    -0.191 NA
ENDBRANCH  17  29
ENDBRANCH   4  16
TORSDOF 6
