REMARK  Name = ZINC09404775
REMARK  16 active torsions:
REMARK  status: ('A' for Active; 'I' for Inactive)
REMARK    1  A    between atoms: C_1  and  C_2
REMARK    2  A    between atoms: C_2  and  O_3
REMARK    3  A    between atoms: O_3  and  C_4
REMARK    4  A    between atoms: C_4  and  C_6
REMARK    5  A    between atoms: C_7  and  C_34
REMARK    6  A    between atoms: C_8  and  C_29
REMARK    7  A    between atoms: C_10  and  N_11
REMARK    8  A    between atoms: N_11  and  N_12
REMARK    9  A    between atoms: C_13  and  C_14
REMARK   10  A    between atoms: C_13  and  C_17
REMARK   11  A    between atoms: C_14  and  C_16
REMARK   12  A    between atoms: N_19  and  C_20
REMARK   13  A    between atoms: C_23  and  N_26
REMARK   14  A    between atoms: C_29  and  O_31
REMARK   15  A    between atoms: O_31  and  C_32
REMARK   16  A    between atoms: C_32  and  C_33
REMARK                            x       y       z     vdW  Elec       q    Type
REMARK                         _______ _______ _______ _____ _____    ______ ____
ROOT
ATOM      1  N   UNL     1       3.266  -3.132   1.507  0.00  0.00    -0.229 N 
ATOM      2  H   UNL     1       3.039  -2.873   0.600  0.00  0.00    +0.175 HD
ENDROOT
BRANCH   1   7
ATOM      3  C   UNL     1       0.981  -3.998   2.015  0.00  0.00    +0.092 A 
ATOM      4  C   UNL     1       0.226  -4.648   2.979  0.00  0.00    -0.013 A 
ATOM      5  C   UNL     1       0.878  -4.985   4.137  0.00  0.00    +0.102 A 
ATOM      6  S   UNL     1       2.529  -4.384   3.845  0.00  0.00    -0.065 S 
ATOM      7  C   UNL     1       2.326  -3.752   2.303  0.00  0.00    +0.100 A 
ATOM      8  C   UNL     1      -1.232  -4.966   2.766  0.00  0.00    +0.046 C 
BRANCH   3   9
ATOM      9  C   UNL     1       0.391  -3.589   0.734  0.00  0.00    +0.342 C 
ATOM     10  O   UNL     1       0.328  -4.380  -0.187  0.00  0.00    -0.245 OA
BRANCH   9  11
ATOM     11  O   UNL     1      -0.082  -2.336   0.580  0.00  0.00    -0.461 OA
BRANCH  11  13
ATOM     12  C   UNL     1      -1.308  -0.619  -0.599  0.00  0.00    +0.048 C 
ATOM     13  C   UNL     1      -0.738  -2.038  -0.654  0.00  0.00    +0.229 C 
ENDBRANCH  11  13
ENDBRANCH   9  11
ENDBRANCH   3   9
BRANCH   5  14
ATOM     14  C   UNL     1       0.348  -5.668   5.318  0.00  0.00    +0.346 C 
ATOM     15  O   UNL     1      -0.817  -6.013   5.350  0.00  0.00    -0.244 OA
BRANCH  14  16
ATOM     16  O   UNL     1       1.154  -5.915   6.372  0.00  0.00    -0.461 OA
BRANCH  16  17
ATOM     17  C   UNL     1       0.571  -6.585   7.491  0.00  0.00    +0.229 C 
ATOM     18  C   UNL     1       1.629  -6.775   8.580  0.00  0.00    +0.048 C 
ENDBRANCH  16  17
ENDBRANCH  14  16
ENDBRANCH   5  14
ENDBRANCH   1   7
BRANCH   1  19
ATOM     19  N   UNL     1       4.448  -2.897   1.968  0.00  0.00    -0.173 NA
ATOM     20  C   UNL     1       5.315  -2.216   1.244  0.00  0.00    +0.185 C 
BRANCH  20  21
ATOM     21  C   UNL     1       4.900  -1.625  -0.039  0.00  0.00    +0.272 C 
ATOM     22  O   UNL     1       4.509  -0.474  -0.080  0.00  0.00    -0.268 OA
ATOM     23  N   UNL     1       4.952  -2.359  -1.168  0.00  0.00    -0.280 N 
ATOM     24  H   UNL     1       5.166  -3.304  -1.123  0.00  0.00    +0.155 HD
BRANCH  23  25
ATOM     25  C   UNL     1       4.699  -1.758  -2.405  0.00  0.00    +0.034 A 
ATOM     26  C   UNL     1       5.063  -0.436  -2.624  0.00  0.00    +0.025 A 
ATOM     27  C   UNL     1       4.811   0.154  -3.848  0.00  0.00    +0.034 A 
ATOM     28  C   UNL     1       4.198  -0.570  -4.854  0.00  0.00    +0.126 A 
ATOM     29  C   UNL     1       3.835  -1.887  -4.639  0.00  0.00    +0.034 A 
ATOM     30  C   UNL     1       4.088  -2.485  -3.420  0.00  0.00    +0.025 A 
BRANCH  28  31
ATOM     31  N   UNL     1       3.930   0.066  -6.163  0.00  0.00    +0.056 N 
ATOM     32  O   UNL     1       4.247   1.217  -6.352  0.00  0.00    -0.126 OA
ATOM     33  O   UNL     1       3.394  -0.566  -7.043  0.00  0.00    -0.126 OA
ENDBRANCH  28  31
ENDBRANCH  23  25
ENDBRANCH  20  21
BRANCH  20  34
ATOM     34  C   UNL     1       6.690  -2.050   1.715  0.00  0.00    +0.185 C 
ATOM     35  O   UNL     1       7.488  -1.424   1.049  0.00  0.00    -0.291 OA
ATOM     36  C   UNL     1       7.115  -2.655   3.028  0.00  0.00    +0.093 C 
ENDBRANCH  20  34
ENDBRANCH   1  19
TORSDOF 12
