REMARK  Name = ZINC35268976
REMARK  11 active torsions:
REMARK  status: ('A' for Active; 'I' for Inactive)
REMARK    1  A    between atoms: C_1  and  C_2
REMARK    2  A    between atoms: C_6  and  C_30
REMARK    3  A    between atoms: C_7  and  O_8
REMARK    4  A    between atoms: O_8  and  C_9
REMARK    5  A    between atoms: C_9  and  C_10
REMARK    6  A    between atoms: C_10  and  C_12
REMARK    7  A    between atoms: C_10  and  O_29
REMARK    8  A    between atoms: C_12  and  N_13
REMARK    9  A    between atoms: C_18  and  C_25
REMARK   10  A    between atoms: C_21  and  C_23
REMARK   11  A    between atoms: C_21  and  C_24
REMARK                            x       y       z     vdW  Elec       q    Type
REMARK                         _______ _______ _______ _____ _____    ______ ____
ROOT
ATOM      1  N   UNL     1      -1.597   2.079   6.298  0.00  0.00    -0.222 N 
ATOM      2  C   UNL     1      -1.479   1.475   7.498  0.00  0.00    +0.247 C 
ATOM      3  O   UNL     1      -1.353   0.288   7.713  0.00  0.00    -0.273 OA
ATOM      4  C   UNL     1      -1.537   2.589   8.518  0.00  0.00    +0.113 C 
ATOM      5  C   UNL     1      -0.240   2.644   9.319  0.00  0.00    +0.038 C 
ATOM      6  C   UNL     1      -0.308   3.796  10.325  0.00  0.00    -0.011 C 
ATOM      7  C   UNL     1      -1.498   3.584  11.263  0.00  0.00    +0.009 C 
ATOM      8  C   UNL     1      -2.793   3.554  10.448  0.00  0.00    -0.032 C 
ATOM      9  C   UNL     1      -2.735   2.401   9.443  0.00  0.00    +0.041 C 
ATOM     10  C   UNL     1      -2.954   4.878   9.697  0.00  0.00    +0.011 C 
ATOM     11  C   UNL     1      -3.983   3.353  11.388  0.00  0.00    +0.011 C 
ATOM     12  C   UNL     1       0.985   3.837  11.142  0.00  0.00    +0.007 C 
ATOM     13  N   UNL     1      -1.696   3.804   7.710  0.00  0.00    -0.285 N 
ATOM     14  C   UNL     1      -1.715   3.407   6.424  0.00  0.00    +0.309 C 
ATOM     15  O   UNL     1      -1.831   4.168   5.483  0.00  0.00    -0.252 OA
ATOM     16  H   UNL     1      -1.768   4.715   8.039  0.00  0.00    +0.151 HD
ENDROOT
BRANCH   1  17
ATOM     17  C   UNL     1      -1.592   1.371   5.015  0.00  0.00    +0.152 C 
BRANCH  17  18
ATOM     18  C   UNL     1      -0.155   1.259   4.501  0.00  0.00    +0.170 C 
BRANCH  18  19
ATOM     19  O   UNL     1       0.392   2.568   4.325  0.00  0.00    -0.387 OA
ATOM     20  H   UNL     1      -0.095   3.116   3.695  0.00  0.00    +0.210 HD
ENDBRANCH  18  19
BRANCH  18  21
ATOM     21  C   UNL     1      -0.149   0.520   3.162  0.00  0.00    +0.262 C 
BRANCH  21  22
ATOM     22  O   UNL     1       1.200   0.312   2.738  0.00  0.00    -0.489 OA
BRANCH  22  29
ATOM     23  C   UNL     1       1.332   1.886   0.396  0.00  0.00    +0.047 C 
ATOM     24  C   UNL     1       1.457   0.384   0.374  0.00  0.00    -0.009 A 
ATOM     25  C   UNL     1       1.649  -0.277  -0.824  0.00  0.00    +0.007 A 
ATOM     26  C   UNL     1       1.763  -1.655  -0.844  0.00  0.00    +0.001 A 
ATOM     27  C   UNL     1       1.685  -2.375   0.334  0.00  0.00    +0.007 A 
ATOM     28  C   UNL     1       1.492  -1.719   1.534  0.00  0.00    -0.009 A 
ATOM     29  C   UNL     1       1.383  -0.336   1.558  0.00  0.00    +0.126 A 
ATOM     30  C   UNL     1       1.407  -2.504   2.817  0.00  0.00    +0.047 C 
ENDBRANCH  22  29
ENDBRANCH  21  22
ENDBRANCH  18  21
ENDBRANCH  17  18
ENDBRANCH   1  17
TORSDOF 6
