REMARK  Name = ZINC43596944
REMARK  4 active torsions:
REMARK  status: ('A' for Active; 'I' for Inactive)
REMARK    1  A    between atoms: C_3  and  O_18
REMARK    2  A    between atoms: C_5  and  O_7
REMARK    3  A    between atoms: O_7  and  C_8
REMARK    4  A    between atoms: C_11  and  N_15
REMARK                            x       y       z     vdW  Elec       q    Type
REMARK                         _______ _______ _______ _____ _____    ______ ____
ROOT
ATOM      1  C   UNL     1       0.045  -2.695   0.091  0.00  0.00    +0.142 A 
ATOM      2  C   UNL     1      -1.145  -1.981   0.099  0.00  0.00    +0.049 A 
ATOM      3  C   UNL     1      -2.349  -2.648   0.214  0.00  0.00    +0.036 A 
ATOM      4  C   UNL     1      -2.370  -4.027   0.321  0.00  0.00    +0.127 A 
ATOM      5  C   UNL     1      -1.187  -4.742   0.313  0.00  0.00    +0.051 A 
ATOM      6  C   UNL     1       0.021  -4.080   0.193  0.00  0.00    +0.062 A 
ATOM      7 BR   UNL     1       1.639  -5.058   0.174  0.00  0.00    -0.046 Br
ENDROOT
BRANCH   4   8
ATOM      8  N   UNL     1      -3.662  -4.738   0.444  0.00  0.00    +0.056 N 
ATOM      9  O   UNL     1      -4.698  -4.114   0.452  0.00  0.00    -0.126 OA
ATOM     10  O   UNL     1      -3.682  -5.943   0.538  0.00  0.00    -0.126 OA
ENDBRANCH   4   8
BRANCH   1  11
ATOM     11  O   UNL     1       1.231  -2.042  -0.021  0.00  0.00    -0.455 OA
BRANCH  11  16
ATOM     12  C   UNL     1       0.853   1.365   1.202  0.00  0.00    +0.007 A 
ATOM     13  C   UNL     1       1.181   2.086   0.069  0.00  0.00    +0.045 A 
ATOM     14  C   UNL     1       1.528   1.424  -1.100  0.00  0.00    +0.120 A 
ATOM     15  C   UNL     1       1.545   0.038  -1.131  0.00  0.00    +0.091 A 
ATOM     16  C   UNL     1       1.215  -0.683   0.006  0.00  0.00    +0.132 A 
ATOM     17  C   UNL     1       0.869  -0.016   1.173  0.00  0.00    +0.046 A 
BRANCH  14  18
ATOM     18  O   UNL     1       1.851   2.133  -2.213  0.00  0.00    -0.507 OA
ATOM     19  H   UNL     1       2.792   2.344  -2.287  0.00  0.00    +0.292 HD
ENDBRANCH  14  18
ENDBRANCH  11  16
ENDBRANCH   1  11
TORSDOF 4
