REMARK  Name = ZINC35302818
REMARK  8 active torsions:
REMARK  status: ('A' for Active; 'I' for Inactive)
REMARK    1  A    between atoms: C_1  and  C_2
REMARK    2  A    between atoms: C_2  and  C_3
REMARK    3  A    between atoms: C_3  and  C_5
REMARK    4  A    between atoms: C_3  and  C_6
REMARK    5  A    between atoms: C_6  and  C_8
REMARK    6  A    between atoms: C_6  and  N_25
REMARK    7  A    between atoms: C_14  and  C_16
REMARK    8  A    between atoms: C_26  and  C_28
REMARK                            x       y       z     vdW  Elec       q    Type
REMARK                         _______ _______ _______ _____ _____    ______ ____
ROOT
ATOM      1  C   UNL     1       1.645  -2.416   0.013  0.00  0.00    +0.239 C 
ATOM      2  O   UNL     1       1.147  -3.130   0.857  0.00  0.00    -0.273 OA
ATOM      3  N   UNL     1       2.909  -1.975   0.164  0.00  0.00    -0.262 N 
ATOM      4  C   UNL     1       3.643  -2.339   1.287  0.00  0.00    +0.188 A 
ATOM      5  N   UNL     1       3.303  -3.104   2.315  0.00  0.00    -0.125 NA
ATOM      6  N   UNL     1       4.099  -3.337   3.265  0.00  0.00    -0.140 NA
ATOM      7  C   UNL     1       5.326  -2.830   3.292  0.00  0.00    +0.134 A 
ATOM      8  S   UNL     1       5.318  -1.914   1.753  0.00  0.00    -0.030 S 
ATOM      9  H   UNL     1       3.308  -1.403  -0.511  0.00  0.00    +0.157 HD
ENDROOT
BRANCH   7  10
ATOM     10  C   UNL     1       6.395  -2.983   4.301  0.00  0.00    +0.013 A 
ATOM     11  C   UNL     1       7.623  -2.344   4.122  0.00  0.00    +0.014 A 
ATOM     12  C   UNL     1       8.619  -2.487   5.065  0.00  0.00    +0.050 A 
ATOM     13  C   UNL     1       8.406  -3.266   6.193  0.00  0.00    +0.166 A 
ATOM     14  C   UNL     1       7.182  -3.907   6.377  0.00  0.00    +0.167 A 
ATOM     15  C   UNL     1       6.178  -3.763   5.438  0.00  0.00    +0.060 A 
ATOM     16  O   UNL     1       7.227  -4.603   7.551  0.00  0.00    -0.453 OA
ATOM     17  C   UNL     1       8.624  -4.713   7.879  0.00  0.00    +0.466 C 
ATOM     18  O   UNL     1       9.215  -3.560   7.252  0.00  0.00    -0.453 OA
ENDBRANCH   7  10
BRANCH   1  19
ATOM     19  C   UNL     1       0.849  -2.021  -1.205  0.00  0.00    +0.162 C 
BRANCH  19  20
ATOM     20  N   UNL     1      -0.484  -2.624  -1.134  0.00  0.00    -0.299 N 
ATOM     21  C   UNL     1      -1.182  -2.851  -2.264  0.00  0.00    +0.251 C 
ATOM     22  O   UNL     1      -0.704  -2.556  -3.344  0.00  0.00    -0.270 OA
ATOM     23  H   UNL     1      -0.865  -2.859  -0.273  0.00  0.00    +0.150 HD
BRANCH  21  24
ATOM     24  C   UNL     1      -2.516  -3.454  -2.193  0.00  0.00    +0.074 A 
ATOM     25  C   UNL     1      -3.387  -3.773  -3.223  0.00  0.00    +0.021 A 
ATOM     26  C   UNL     1      -4.582  -4.336  -2.842  0.00  0.00    +0.008 A 
ATOM     27  C   UNL     1      -4.825  -4.536  -1.524  0.00  0.00    +0.046 A 
ATOM     28  S   UNL     1      -3.438  -3.976  -0.759  0.00  0.00    -0.092 S 
ENDBRANCH  21  24
ENDBRANCH  19  20
BRANCH  19  29
ATOM     29  C   UNL     1       0.718  -0.497  -1.257  0.00  0.00    +0.015 C 
ATOM     30  C   UNL     1      -0.089  -0.097  -2.493  0.00  0.00    +0.010 C 
BRANCH  29  32
ATOM     31  C   UNL     1      -0.019   1.526   0.010  0.00  0.00    +0.004 C 
ATOM     32  C   UNL     1       0.002  -0.004   0.002  0.00  0.00    +0.002 C 
ENDBRANCH  29  32
ENDBRANCH  19  29
ENDBRANCH   1  19
TORSDOF 6
