REMARK  Name = ZINC39534145
REMARK  6 active torsions:
REMARK  status: ('A' for Active; 'I' for Inactive)
REMARK    1  A    between atoms: C_4  and  O_26
REMARK    2  A    between atoms: C_5  and  C_7
REMARK    3  A    between atoms: C_10  and  C_13
REMARK    4  A    between atoms: C_13  and  C_15
REMARK    5  A    between atoms: C_13  and  N_18
REMARK    6  A    between atoms: C_15  and  N_16
REMARK                            x       y       z     vdW  Elec       q    Type
REMARK                         _______ _______ _______ _____ _____    ______ ____
ROOT
ATOM      1  C   UNL     1       1.234  -2.179  -0.260  0.00  0.00    -0.014 A 
ATOM      2  C   UNL     1       2.296  -2.870  -0.841  0.00  0.00    +0.009 A 
ATOM      3  C   UNL     1       2.335  -4.248  -0.780  0.00  0.00    +0.006 A 
ATOM      4  C   UNL     1       1.323  -4.944  -0.145  0.00  0.00    -0.029 A 
ATOM      5  C   UNL     1       0.266  -4.264   0.433  0.00  0.00    +0.006 A 
ATOM      6  C   UNL     1       0.219  -2.886   0.384  0.00  0.00    +0.009 A 
ENDROOT
BRANCH   1  11
ATOM      7  C   UNL     1      -0.010   1.326  -0.805  0.00  0.00    +0.001 A 
ATOM      8  C   UNL     1       1.097   2.070  -0.437  0.00  0.00    +0.004 A 
ATOM      9  C   UNL     1       2.251   1.440  -0.012  0.00  0.00    +0.046 A 
ATOM     10  C   UNL     1       2.304   0.056   0.049  0.00  0.00    +0.125 A 
ATOM     11  C   UNL     1       1.186  -0.698  -0.322  0.00  0.00    +0.024 A 
ATOM     12  C   UNL     1       0.029  -0.052  -0.749  0.00  0.00    +0.012 A 
BRANCH  10  13
ATOM     13  O   UNL     1       3.438  -0.565   0.466  0.00  0.00    -0.506 OA
ATOM     14  H   UNL     1       3.473  -0.720   1.420  0.00  0.00    +0.292 HD
ENDBRANCH  10  13
ENDBRANCH   1  11
BRANCH   4  15
ATOM     15  C   UNL     1       1.371  -6.449  -0.082  0.00  0.00    +0.103 C 
BRANCH  15  16
ATOM     16  N   UNL     1       0.027  -6.971   0.202  0.00  0.00    -0.291 NA
ATOM     17  C   UNL     1      -0.242  -6.973   1.647  0.00  0.00    +0.100 C 
ATOM     18  C   UNL     1      -1.676  -7.447   1.895  0.00  0.00    +0.097 C 
ATOM     19  N   UNL     1      -1.850  -8.791   1.327  0.00  0.00    -0.303 NA
ATOM     20  C   UNL     1      -1.581  -8.789  -0.117  0.00  0.00    +0.132 C 
ATOM     21  C   UNL     1      -0.147  -8.315  -0.365  0.00  0.00    +0.114 C 
ATOM     22  I   UNL     1      -1.826 -10.790  -0.900  0.00  0.00    -0.063 I 
ATOM     23  H   UNL     1      -1.266  -9.463   1.803  0.00  0.00    +0.123 HD
ENDBRANCH  15  16
BRANCH  15  24
ATOM     24  C   UNL     1       2.332  -6.883   1.026  0.00  0.00    +0.140 C 
BRANCH  24  25
ATOM     25  N   UNL     1       2.383  -8.350   1.084  0.00  0.00    -0.157 NA
ATOM     26  F   UNL     1       3.305  -8.752   1.906  0.00  0.00    -0.136 F 
ATOM     27  H   UNL     1       1.483  -8.734   1.333  0.00  0.00    +0.159 HD
ENDBRANCH  24  25
ENDBRANCH  15  24
ENDBRANCH   4  15
TORSDOF 6
