REMARK  Name = ZINC04236718
REMARK  12 active torsions:
REMARK  status: ('A' for Active; 'I' for Inactive)
REMARK    1  A    between atoms: C_1  and  C_2
REMARK    2  A    between atoms: C_5  and  N_8
REMARK    3  A    between atoms: C_9  and  O_11
REMARK    4  A    between atoms: O_11  and  C_12
REMARK    5  A    between atoms: C_16  and  C_40
REMARK    6  A    between atoms: C_19  and  C_20
REMARK    7  A    between atoms: C_19  and  C_21
REMARK    8  A    between atoms: C_21  and  O_22
REMARK    9  A    between atoms: C_25  and  O_39
REMARK   10  A    between atoms: C_27  and  C_29
REMARK   11  A    between atoms: C_29  and  C_30
REMARK   12  A    between atoms: C_35  and  O_38
REMARK                            x       y       z     vdW  Elec       q    Type
REMARK                         _______ _______ _______ _____ _____    ______ ____
ROOT
ATOM      1  C   UNL     1       3.232   3.295   0.931  0.00  0.00    +0.186 C 
ATOM      2  C   UNL     1       2.962   1.827   1.267  0.00  0.00    +0.046 C 
ATOM      3  C   UNL     1       1.454   1.571   1.259  0.00  0.00    +0.011 C 
ATOM      4  C   UNL     1       0.890   1.889  -0.127  0.00  0.00    -0.023 C 
ATOM      5  C   UNL     1       1.159   3.357  -0.463  0.00  0.00    +0.007 C 
ATOM      6  C   UNL     1       2.668   3.613  -0.455  0.00  0.00    +0.031 C 
ATOM      7  C   UNL     1       2.937   5.081  -0.791  0.00  0.00    +0.017 C 
ATOM      8  C   UNL     1       0.484   4.251   0.579  0.00  0.00    +0.007 C 
ATOM      9  C   UNL     1      -1.024   3.994   0.571  0.00  0.00    +0.032 C 
ATOM     10  C   UNL     1      -1.293   2.526   0.907  0.00  0.00    +0.119 C 
ATOM     11  C   UNL     1      -0.619   1.632  -0.135  0.00  0.00    +0.032 C 
ATOM     12  C   UNL     1       1.565   0.995  -1.169  0.00  0.00    +0.012 C 
ENDROOT
BRANCH  10  13
ATOM     13  O   UNL     1      -2.702   2.287   0.900  0.00  0.00    -0.391 OA
ATOM     14  H   UNL     1      -3.195   2.821   1.538  0.00  0.00    +0.210 HD
ENDBRANCH  10  13
BRANCH   1  15
ATOM     15  O   UNL     1       4.663   3.539   0.939  0.00  0.00    -0.446 OA
BRANCH  15  17
ATOM     16  N   UNL     1       6.536   4.160   2.183  0.00  0.00    -0.251 N 
ATOM     17  C   UNL     1       5.213   3.918   2.108  0.00  0.00    +0.405 C 
ATOM     18  O   UNL     1       4.515   4.042   3.095  0.00  0.00    -0.226 OA
ATOM     19  H   UNL     1       7.083   4.122   1.383  0.00  0.00    +0.158 HD
BRANCH  16  24
ATOM     20  C   UNL     1       8.913   5.397   7.184  0.00  0.00    +0.044 C 
ATOM     21  C   UNL     1       8.282   5.069   5.856  0.00  0.00    -0.050 A 
ATOM     22  C   UNL     1       8.981   4.323   4.925  0.00  0.00    +0.005 A 
ATOM     23  C   UNL     1       8.405   4.020   3.707  0.00  0.00    +0.023 A 
ATOM     24  C   UNL     1       7.123   4.465   3.417  0.00  0.00    +0.036 A 
ATOM     25  C   UNL     1       6.425   5.219   4.351  0.00  0.00    +0.023 A 
ATOM     26  C   UNL     1       7.004   5.513   5.570  0.00  0.00    +0.005 A 
ENDBRANCH  16  24
ENDBRANCH  15  17
ENDBRANCH   1  15
BRANCH   6  27
ATOM     27  C   UNL     1       3.342   2.719  -1.498  0.00  0.00    +0.166 C 
BRANCH  27  28
ATOM     28  O   UNL     1       4.719   3.083  -1.618  0.00  0.00    -0.394 OA
ATOM     29  H   UNL     1       5.210   2.557  -2.263  0.00  0.00    +0.209 HD
ENDBRANCH  27  28
ENDBRANCH   6  27
BRANCH  11  30
ATOM     30  C   UNL     1      -1.183   1.950  -1.521  0.00  0.00    +0.102 C 
BRANCH  30  31
ATOM     31  C   UNL     1      -2.551   1.334  -1.660  0.00  0.00    +0.216 C 
ATOM     32  O   UNL     1      -2.964   0.576  -0.808  0.00  0.00    -0.276 OA
ATOM     33  N   UNL     1      -3.316   1.626  -2.731  0.00  0.00    -0.299 N 
ATOM     34  C   UNL     1      -2.942   2.532  -3.832  0.00  0.00    +0.110 C 
ATOM     35  C   UNL     1      -3.800   2.063  -5.037  0.00  0.00    +0.052 C 
ATOM     36  C   UNL     1      -5.134   1.686  -4.338  0.00  0.00    +0.133 C 
ATOM     37  C   UNL     1      -4.664   1.099  -2.990  0.00  0.00    +0.139 C 
BRANCH  36  38
ATOM     38  O   UNL     1      -5.846   0.705  -5.095  0.00  0.00    -0.390 OA
ATOM     39  H   UNL     1      -6.163   1.024  -5.952  0.00  0.00    +0.210 HD
ENDBRANCH  36  38
ENDBRANCH  30  31
ENDBRANCH  11  30
TORSDOF 9
