REMARK  Name = ZINC39693415
REMARK  10 active torsions:
REMARK  status: ('A' for Active; 'I' for Inactive)
REMARK    1  A    between atoms: C_1  and  C_2
REMARK    2  A    between atoms: C_2  and  C_3
REMARK    3  A    between atoms: C_2  and  C_4
REMARK    4  A    between atoms: C_2  and  O_5
REMARK    5  A    between atoms: O_5  and  C_6
REMARK    6  A    between atoms: N_8  and  C_9
REMARK    7  A    between atoms: C_9  and  C_10
REMARK    8  A    between atoms: C_10  and  N_11
REMARK    9  A    between atoms: C_12  and  C_14
REMARK   10  A    between atoms: C_25  and  C_27
REMARK                            x       y       z     vdW  Elec       q    Type
REMARK                         _______ _______ _______ _____ _____    ______ ____
ROOT
ATOM      1  C   UNL     1       8.691   0.109  -5.215  0.00  0.00    +0.100 C 
ATOM      2  C   UNL     1       9.271  -0.582  -3.961  0.00  0.00    +0.121 C 
ATOM      3  N   UNL     1       9.787  -1.881  -4.454  0.00  0.00    -0.296 N 
ATOM      4  C   UNL     1      10.393  -1.561  -5.768  0.00  0.00    +0.115 C 
ATOM      5  C   UNL     1       9.432  -0.534  -6.399  0.00  0.00    -0.004 C 
ATOM      6  C   UNL     1      10.219   0.524  -7.166  0.00  0.00    -0.010 C 
ATOM      7  C   UNL     1      10.901  -0.128  -8.372  0.00  0.00    -0.082 C 
ATOM      8  N   UNL     1       9.886  -0.737  -9.240  0.00  0.00    +0.379 N 
ATOM      9  C   UNL     1       9.196  -1.817  -8.523  0.00  0.00    -0.082 C 
ATOM     10  C   UNL     1       8.443  -1.236  -7.324  0.00  0.00    -0.010 C 
ATOM     11  C   UNL     1       9.721  -3.081  -3.844  0.00  0.00    +0.247 C 
ATOM     12  O   UNL     1       9.078  -3.208  -2.821  0.00  0.00    -0.270 OA
ATOM     13  H   UNL     1       9.214  -0.035  -9.514  0.00  0.00    -0.086 HD
ATOM     14  H   UNL     1      10.331  -1.113 -10.064  0.00  0.00    -0.086 HD
ENDROOT
BRANCH  11  15
ATOM     15  C   UNL     1      10.430  -4.243  -4.422  0.00  0.00    +0.040 A 
ATOM     16  C   UNL     1      11.490  -4.048  -5.307  0.00  0.00    +0.033 A 
ATOM     17  C   UNL     1      12.148  -5.137  -5.843  0.00  0.00    +0.043 A 
ATOM     18  C   UNL     1      11.758  -6.421  -5.503  0.00  0.00    +0.040 A 
ATOM     19  C   UNL     1      10.706  -6.622  -4.626  0.00  0.00    +0.043 A 
ATOM     20  C   UNL     1      10.044  -5.540  -4.079  0.00  0.00    +0.033 A 
ATOM     21 CL   UNL     1      10.222  -8.235  -4.207  0.00  0.00    -0.083 Cl
ATOM     22 CL   UNL     1      13.468  -4.896  -6.945  0.00  0.00    -0.083 Cl
ENDBRANCH  11  15
BRANCH   1  24
ATOM     23  N   UNL     1       6.424   0.696  -6.013  0.00  0.00    -0.314 N 
ATOM     24  C   UNL     1       7.210  -0.151  -5.319  0.00  0.00    +0.218 C 
ATOM     25  O   UNL     1       6.726  -1.124  -4.780  0.00  0.00    -0.275 OA
ATOM     26  H   UNL     1       6.811   1.474  -6.444  0.00  0.00    +0.149 HD
BRANCH  23  27
ATOM     27  C   UNL     1       4.985   0.443  -6.114  0.00  0.00    +0.123 C 
BRANCH  27  28
ATOM     28  C   UNL     1       4.330   1.546  -6.949  0.00  0.00    +0.126 C 
BRANCH  28  31
ATOM     29  C   UNL     1       2.105   2.140  -7.744  0.00  0.00    +0.401 C 
ATOM     30  O   UNL     1       2.590   3.114  -8.284  0.00  0.00    -0.226 OA
ATOM     31  N   UNL     1       2.891   1.293  -7.050  0.00  0.00    -0.280 N 
ATOM     32  H   UNL     1       2.504   0.515  -6.619  0.00  0.00    +0.152 HD
BRANCH  29  33
ATOM     33  O   UNL     1       0.782   1.907  -7.837  0.00  0.00    -0.445 OA
BRANCH  33  35
ATOM     34  C   UNL     1       0.522   2.893 -10.028  0.00  0.00    +0.055 C 
ATOM     35  C   UNL     1       0.010   2.847  -8.587  0.00  0.00    +0.107 C 
ATOM     36  C   UNL     1       0.140   4.234  -7.955  0.00  0.00    +0.055 C 
ATOM     37  C   UNL     1      -1.459   2.419  -8.581  0.00  0.00    +0.055 C 
ENDBRANCH  33  35
ENDBRANCH  29  33
ENDBRANCH  28  31
ENDBRANCH  27  28
ENDBRANCH  23  27
ENDBRANCH   1  24
TORSDOF 7
