REMARK  Name = ZINC39612449
REMARK  9 active torsions:
REMARK  status: ('A' for Active; 'I' for Inactive)
REMARK    1  A    between atoms: C_1  and  C_2
REMARK    2  A    between atoms: C_4  and  C_9
REMARK    3  A    between atoms: C_5  and  C_8
REMARK    4  A    between atoms: C_9  and  O_10
REMARK    5  A    between atoms: O_10  and  C_11
REMARK    6  A    between atoms: C_14  and  C_17
REMARK    7  A    between atoms: N_19  and  N_20
REMARK    8  A    between atoms: C_21  and  C_23
REMARK    9  A    between atoms: C_26  and  C_28
REMARK                            x       y       z     vdW  Elec       q    Type
REMARK                         _______ _______ _______ _____ _____    ______ ____
ROOT
ATOM      1  C   UNL     1      -1.013  -0.974  -8.816  0.00  0.00    +0.260 C 
ATOM      2  O   UNL     1      -2.058  -0.420  -9.097  0.00  0.00    -0.269 OA
ATOM      3  N   UNL     1      -0.279  -1.560  -9.783  0.00  0.00    -0.230 N 
ATOM      4  H   UNL     1       0.555  -2.002  -9.558  0.00  0.00    +0.173 HD
ENDROOT
BRANCH   1   8
ATOM      5  C   UNL     1       0.323  -1.068  -4.786  0.00  0.00    +0.121 A 
ATOM      6  C   UNL     1      -0.871  -0.433  -5.106  0.00  0.00    +0.046 A 
ATOM      7  C   UNL     1      -1.308  -0.400  -6.411  0.00  0.00    +0.016 A 
ATOM      8  C   UNL     1      -0.548  -1.006  -7.415  0.00  0.00    +0.038 A 
ATOM      9  C   UNL     1       0.652  -1.644  -7.090  0.00  0.00    +0.016 A 
ATOM     10  C   UNL     1       1.084  -1.667  -5.782  0.00  0.00    +0.046 A 
BRANCH   5  11
ATOM     11  O   UNL     1       0.750  -1.098  -3.498  0.00  0.00    -0.488 OA
BRANCH  11  12
ATOM     12  C   UNL     1      -0.081  -0.463  -2.524  0.00  0.00    +0.264 C 
BRANCH  12  15
ATOM     13  C   UNL     1      -0.293  -2.772  -0.274  0.00  0.00    +0.045 C 
ATOM     14  C   UNL     1       0.939  -1.890  -0.483  0.00  0.00    +0.176 C 
ATOM     15  C   UNL     1       0.549  -0.597  -1.162  0.00  0.00    +0.019 C 
ATOM     16  C   UNL     1       0.859   0.391  -0.349  0.00  0.00    +0.041 C 
ATOM     17  N   UNL     1       1.423  -0.084   0.821  0.00  0.00    -0.269 N 
ATOM     18  O   UNL     1       1.494  -1.500   0.782  0.00  0.00    -0.267 OA
ATOM     19  C   UNL     1       0.630   1.849  -0.654  0.00  0.00    +0.065 C 
ATOM     20  H   UNL     1       1.726   0.469   1.559  0.00  0.00    +0.194 HD
ENDBRANCH  12  15
ENDBRANCH  11  12
ENDBRANCH   5  11
ENDBRANCH   1   8
BRANCH   3  21
ATOM     21  N   UNL     1      -0.720  -1.529 -11.112  0.00  0.00    -0.229 N 
ATOM     22  C   UNL     1       0.014  -2.114 -12.079  0.00  0.00    +0.276 C 
ATOM     23  O   UNL     1       1.060  -2.669 -11.798  0.00  0.00    -0.267 OA
ATOM     24  H   UNL     1      -1.553  -1.087 -11.337  0.00  0.00    +0.173 HD
BRANCH  22  25
ATOM     25  C   UNL     1      -0.448  -2.082 -13.472  0.00  0.00    +0.132 C 
ATOM     26  N   UNL     1      -1.536  -1.527 -13.937  0.00  0.00    -0.148 NA
ATOM     27  N   UNL     1      -1.693  -1.649 -15.196  0.00  0.00    -0.153 NA
ATOM     28  C   UNL     1      -0.733  -2.312 -15.798  0.00  0.00    +0.077 C 
ATOM     29  C   UNL     1       0.238  -2.682 -14.688  0.00  0.00    +0.120 C 
BRANCH  28  30
ATOM     30  C   UNL     1      -0.619  -2.622 -17.228  0.00  0.00    -0.002 A 
ATOM     31  C   UNL     1       0.479  -3.350 -17.705  0.00  0.00    +0.010 A 
ATOM     32  C   UNL     1       0.578  -3.638 -19.050  0.00  0.00    +0.001 A 
ATOM     33  C   UNL     1      -0.403  -3.208 -19.927  0.00  0.00    +0.000 A 
ATOM     34  C   UNL     1      -1.491  -2.487 -19.464  0.00  0.00    +0.001 A 
ATOM     35  C   UNL     1      -1.609  -2.197 -18.122  0.00  0.00    +0.010 A 
ENDBRANCH  28  30
ENDBRANCH  22  25
ENDBRANCH   3  21
TORSDOF 7
