REMARK  Name = ZINC10013316
REMARK  13 active torsions:
REMARK  status: ('A' for Active; 'I' for Inactive)
REMARK    1  A    between atoms: C_1  and  C_2
REMARK    2  A    between atoms: C_2  and  N_74
REMARK    3  A    between atoms: C_3  and  C_4
REMARK    4  A    between atoms: C_3  and  N_74
REMARK    5  A    between atoms: C_4  and  C_5
REMARK    6  A    between atoms: C_5  and  N_6
REMARK    7  A    between atoms: C_7  and  C_9
REMARK    8  A    between atoms: C_10  and  C_30
REMARK    9  A    between atoms: N_16  and  C_19
REMARK   10  A    between atoms: C_19  and  C_20
REMARK   11  A    between atoms: C_27  and  C_29
REMARK   12  A    between atoms: C_31  and  C_32
REMARK   13  A    between atoms: C_31  and  N_74
REMARK                            x       y       z     vdW  Elec       q    Type
REMARK                         _______ _______ _______ _____ _____    ______ ____
ROOT
ATOM      1  C   UNL     1      -1.663   1.687  -7.039  0.00  0.00    +0.079 A 
ATOM      2  C   UNL     1      -0.612   1.371  -6.228  0.00  0.00    -0.017 A 
ATOM      3  C   UNL     1      -0.650   0.201  -5.466  0.00  0.00    +0.076 A 
ATOM      4  C   UNL     1      -1.817  -0.585  -5.602  0.00  0.00    +0.116 A 
ATOM      5  S   UNL     1      -2.791   0.330  -6.770  0.00  0.00    -0.064 S 
ATOM      6  N   UNL     1      -1.978  -1.719  -4.933  0.00  0.00    -0.230 NA
ATOM      7  C   UNL     1      -1.063  -2.170  -4.118  0.00  0.00    +0.203 A 
ATOM      8  N   UNL     1       0.096  -1.500  -3.901  0.00  0.00    -0.290 N 
ATOM      9  C   UNL     1       0.362  -0.339  -4.529  0.00  0.00    +0.263 A 
ATOM     10  O   UNL     1       1.408   0.253  -4.331  0.00  0.00    -0.267 OA
ATOM     11  C   UNL     1       0.587   2.281  -6.157  0.00  0.00    +0.046 C 
ENDROOT
BRANCH   1  13
ATOM     12  N   UNL     1      -2.948   2.995  -8.646  0.00  0.00    -0.311 N 
ATOM     13  C   UNL     1      -1.825   2.853  -7.913  0.00  0.00    +0.251 C 
ATOM     14  O   UNL     1      -0.947   3.693  -7.976  0.00  0.00    -0.270 OA
ATOM     15  H   UNL     1      -3.648   2.325  -8.595  0.00  0.00    +0.149 HD
BRANCH  12  16
ATOM     16  C   UNL     1      -3.110   4.160  -9.519  0.00  0.00    +0.102 C 
BRANCH  16  17
ATOM     17  C   UNL     1      -4.461   4.078 -10.232  0.00  0.00    +0.000 C 
BRANCH  17  18
ATOM     18  C   UNL     1      -4.631   5.294 -11.144  0.00  0.00    -0.077 C 
BRANCH  18  19
ATOM     19  N   UNL     1      -5.930   5.190 -11.841  0.00  0.00    +0.382 N 
ATOM     20  H   UNL     1      -5.997   4.266 -12.285  0.00  0.00    -0.081 HD
BRANCH  19  22
ATOM     21  C   UNL     1      -8.332   4.857 -11.529  0.00  0.00    -0.017 C 
ATOM     22  C   UNL     1      -7.037   5.338 -10.873  0.00  0.00    -0.082 C 
ENDBRANCH  19  22
BRANCH  19  23
ATOM     23  C   UNL     1      -6.029   6.232 -12.885  0.00  0.00    -0.043 C 
BRANCH  23  24
ATOM     24  C   UNL     1      -5.214   5.801 -14.077  0.00  0.00    -0.064 A 
ATOM     25  C   UNL     1      -3.922   6.266 -14.236  0.00  0.00    +0.002 A 
ATOM     26  C   UNL     1      -3.173   5.867 -15.326  0.00  0.00    +0.000 A 
ATOM     27  C   UNL     1      -3.719   5.010 -16.264  0.00  0.00    +0.000 A 
ATOM     28  C   UNL     1      -5.013   4.549 -16.108  0.00  0.00    +0.000 A 
ATOM     29  C   UNL     1      -5.760   4.944 -15.014  0.00  0.00    +0.002 A 
ENDBRANCH  23  24
ENDBRANCH  19  23
ENDBRANCH  18  19
ENDBRANCH  17  18
ENDBRANCH  16  17
ENDBRANCH  12  16
ENDBRANCH   1  13
BRANCH   8  30
ATOM     30  C   UNL     1       1.081  -2.055  -2.970  0.00  0.00    +0.222 C 
BRANCH  30  31
ATOM     31  C   UNL     1       0.812  -1.529  -1.583  0.00  0.00    +0.236 C 
ATOM     32  O   UNL     1      -0.112  -0.767  -1.392  0.00  0.00    -0.274 OA
ATOM     33  N   UNL     1       1.598  -1.907  -0.555  0.00  0.00    -0.297 N 
ATOM     34  C   UNL     1       2.791  -2.732  -0.789  0.00  0.00    +0.108 C 
ATOM     35  C   UNL     1       2.719  -3.969   0.113  0.00  0.00    +0.019 C 
ATOM     36  C   UNL     1       2.536  -3.525   1.566  0.00  0.00    +0.003 C 
ATOM     37  C   UNL     1       1.224  -2.750   1.704  0.00  0.00    +0.022 C 
ATOM     38  C   UNL     1       1.282  -1.496   0.819  0.00  0.00    +0.073 C 
ATOM     39  C   UNL     1      -0.074  -0.786   0.843  0.00  0.00    +0.028 C 
ENDBRANCH  30  31
ENDBRANCH   8  30
TORSDOF 10
