REMARK  Name = ZINC63856494
REMARK  7 active torsions:
REMARK  status: ('A' for Active; 'I' for Inactive)
REMARK    1  A    between atoms: C_1  and  C_2
REMARK    2  A    between atoms: C_2  and  C_3
REMARK    3  A    between atoms: C_3  and  C_4
REMARK    4  A    between atoms: C_4  and  C_5
REMARK    5  A    between atoms: C_5  and  C_6
REMARK    6  A    between atoms: C_6  and  N_7
REMARK    7  A    between atoms: N_24  and  C_27
REMARK                            x       y       z     vdW  Elec       q    Type
REMARK                         _______ _______ _______ _____ _____    ______ ____
ROOT
ATOM      1  N   UNL     1       2.157  -4.523  -3.740  0.00  0.00    -0.299 N 
ATOM      2  C   UNL     1       2.301  -5.845  -3.959  0.00  0.00    +0.302 C 
ATOM      3  O   UNL     1       1.943  -6.644  -3.116  0.00  0.00    -0.253 OA
ATOM      4  N   UNL     1       2.841  -6.282  -5.115  0.00  0.00    -0.285 N 
ATOM      5  C   UNL     1       3.388  -5.330  -6.091  0.00  0.00    +0.112 C 
ATOM      6  C   UNL     1       4.833  -5.729  -6.411  0.00  0.00    +0.056 C 
ATOM      7  C   UNL     1       4.871  -7.189  -6.850  0.00  0.00    +0.120 C 
ATOM      8  C   UNL     1       4.342  -8.099  -5.745  0.00  0.00    +0.056 C 
ATOM      9  C   UNL     1       2.899  -7.718  -5.418  0.00  0.00    +0.112 C 
ATOM     10  C   UNL     1       6.280  -7.587  -7.227  0.00  0.00    +0.245 C 
ATOM     11  O   UNL     1       7.262  -7.590  -6.516  0.00  0.00    -0.273 OA
ATOM     12  N   UNL     1       6.205  -7.937  -8.530  0.00  0.00    -0.258 N 
ATOM     13  C   UNL     1       4.919  -7.802  -8.994  0.00  0.00    +0.164 C 
ATOM     14  N   UNL     1       4.098  -7.376  -8.083  0.00  0.00    -0.347 N 
ATOM     15  N   UNL     1       4.543  -8.086 -10.285  0.00  0.00    -0.302 N 
ATOM     16  C   UNL     1       3.148  -7.913 -10.720  0.00  0.00    +0.123 C 
ATOM     17  C   UNL     1       3.139  -7.072 -12.001  0.00  0.00    +0.103 C 
ATOM     18  N   UNL     1       4.028  -7.689 -12.995  0.00  0.00    -0.302 NA
ATOM     19  C   UNL     1       5.420  -7.705 -12.527  0.00  0.00    +0.103 C 
ATOM     20  C   UNL     1       5.524  -8.566 -11.269  0.00  0.00    +0.123 C 
ATOM     21  C   UNL     1       3.916  -7.012 -14.293  0.00  0.00    +0.105 C 
ATOM     22  H   UNL     1       2.508  -3.884  -4.380  0.00  0.00    +0.150 HD
ATOM     23  H   UNL     1       6.955  -8.242  -9.063  0.00  0.00    +0.157 HD
ATOM     24  H   UNL     1       3.148  -7.212  -8.196  0.00  0.00    +0.163 HD
ENDROOT
BRANCH   1  25
ATOM     25  C   UNL     1       1.472  -4.051  -2.534  0.00  0.00    +0.106 C 
BRANCH  25  26
ATOM     26  C   UNL     1       1.446  -2.521  -2.528  0.00  0.00    +0.019 C 
BRANCH  26  27
ATOM     27  C   UNL     1       0.730  -2.028  -1.269  0.00  0.00    +0.002 C 
BRANCH  27  28
ATOM     28  C   UNL     1       0.704  -0.499  -1.263  0.00  0.00    -0.000 C 
BRANCH  28  30
ATOM     29  C   UNL     1      -0.038   1.524   0.002  0.00  0.00    +0.004 C 
ATOM     30  C   UNL     1      -0.012  -0.006  -0.004  0.00  0.00    -0.003 C 
ENDBRANCH  28  30
ENDBRANCH  27  28
ENDBRANCH  26  27
ENDBRANCH  25  26
ENDBRANCH   1  25
TORSDOF 5
