REMARK  Name = ZINC64006902
REMARK  10 active torsions:
REMARK  status: ('A' for Active; 'I' for Inactive)
REMARK    1  A    between atoms: C_1  and  C_2
REMARK    2  A    between atoms: C_2  and  C_3
REMARK    3  A    between atoms: C_2  and  C_4
REMARK    4  A    between atoms: C_4  and  C_5
REMARK    5  A    between atoms: C_5  and  N_6
REMARK    6  A    between atoms: C_10  and  C_28
REMARK    7  A    between atoms: N_15  and  C_18
REMARK    8  A    between atoms: C_18  and  C_19
REMARK    9  A    between atoms: C_28  and  O_30
REMARK   10  A    between atoms: O_30  and  C_31
REMARK                            x       y       z     vdW  Elec       q    Type
REMARK                         _______ _______ _______ _____ _____    ______ ____
ROOT
ATOM      1  N   UNL     1      -2.528  -2.237  -0.158  0.00  0.00    -0.295 N 
ATOM      2  C   UNL     1      -3.336  -2.386   0.908  0.00  0.00    +0.217 C 
ATOM      3  O   UNL     1      -3.014  -2.174   2.058  0.00  0.00    -0.276 OA
ATOM      4  C   UNL     1      -4.704  -2.855   0.463  0.00  0.00    +0.112 C 
ATOM      5  C   UNL     1      -4.479  -3.364  -0.981  0.00  0.00    +0.130 C 
ATOM      6  C   UNL     1      -3.228  -2.565  -1.401  0.00  0.00    +0.047 C 
ATOM      7  C   UNL     1      -3.645  -1.292  -2.133  0.00  0.00    +0.008 C 
ATOM      8  C   UNL     1      -2.393  -0.550  -2.610  0.00  0.00    -0.076 C 
ATOM      9  N   UNL     1      -1.618  -1.418  -3.505  0.00  0.00    +0.382 N 
ATOM     10  C   UNL     1      -1.145  -2.599  -2.771  0.00  0.00    -0.076 C 
ATOM     11  C   UNL     1      -2.345  -3.425  -2.302  0.00  0.00    +0.008 C 
ATOM     12  H   UNL     1      -2.202  -1.713  -4.274  0.00  0.00    -0.081 HD
ENDROOT
BRANCH   5  13
ATOM     13  C   UNL     1      -4.210  -4.847  -0.994  0.00  0.00    +0.312 C 
ATOM     14  O   UNL     1      -3.724  -5.381  -0.025  0.00  0.00    -0.250 OA
BRANCH  13  15
ATOM     15  O   UNL     1      -4.510  -5.574  -2.082  0.00  0.00    -0.468 OA
ATOM     16  C   UNL     1      -4.228  -6.973  -2.025  0.00  0.00    +0.280 C 
ENDBRANCH  13  15
ENDBRANCH   5  13
BRANCH   1  17
ATOM     17  C   UNL     1      -1.133  -1.798  -0.085  0.00  0.00    +0.108 C 
BRANCH  17  18
ATOM     18  C   UNL     1      -0.218  -3.020   0.018  0.00  0.00    +0.022 C 
BRANCH  18  20
ATOM     19  C   UNL     1       2.122  -3.780   0.455  0.00  0.00    +0.007 C 
ATOM     20  C   UNL     1       1.226  -2.560   0.228  0.00  0.00    -0.016 C 
ATOM     21  C   UNL     1       1.705  -1.800  -1.010  0.00  0.00    +0.007 C 
ENDBRANCH  18  20
ENDBRANCH  17  18
ENDBRANCH   1  17
BRANCH   9  22
ATOM     22  C   UNL     1      -0.465  -0.674  -4.028  0.00  0.00    -0.045 C 
BRANCH  22  23
ATOM     23  C   UNL     1      -0.948   0.439  -4.921  0.00  0.00    -0.058 C 
ATOM     24  C   UNL     1      -1.137   1.733  -4.577  0.00  0.00    -0.003 A 
ATOM     25  C   UNL     1      -0.957   2.464  -3.317  0.00  0.00    +0.010 A 
ATOM     26  C   UNL     1      -1.236   3.787  -3.280  0.00  0.00    +0.001 A 
ATOM     27  C   UNL     1      -1.691   4.476  -4.412  0.00  0.00    +0.002 A 
ATOM     28  C   UNL     1      -1.881   3.874  -5.605  0.00  0.00    +0.026 A 
ATOM     29  C   UNL     1      -1.618   2.484  -5.758  0.00  0.00    +0.043 A 
ATOM     30  N   UNL     1      -1.723   1.685  -6.793  0.00  0.00    -0.380 N 
ATOM     31  C   UNL     1      -1.313   0.337  -6.385  0.00  0.00    +0.142 C 
ATOM     32  H   UNL     1      -2.018   1.943  -7.680  0.00  0.00    +0.160 HD
ENDBRANCH  22  23
ENDBRANCH   9  22
TORSDOF 7
