REMARK  Name = ZINC02665367
REMARK  11 active torsions:
REMARK  status: ('A' for Active; 'I' for Inactive)
REMARK    1  A    between atoms: C_1  and  C_2
REMARK    2  A    between atoms: C_2  and  C_3
REMARK    3  A    between atoms: C_3  and  C_4
REMARK    4  A    between atoms: C_4  and  O_5
REMARK    5  A    between atoms: O_5  and  C_6
REMARK    6  A    between atoms: C_9  and  N_12
REMARK    7  A    between atoms: C_13  and  C_15
REMARK    8  A    between atoms: C_27  and  C_29
REMARK    9  A    between atoms: C_27  and  C_30
REMARK   10  A    between atoms: C_32  and  C_34
REMARK   11  A    between atoms: C_32  and  C_35
REMARK                            x       y       z     vdW  Elec       q    Type
REMARK                         _______ _______ _______ _____ _____    ______ ____
ROOT
ATOM      1  C   UNL     1       1.012  -0.912   1.667  0.00  0.00    +0.238 C 
ATOM      2  C   UNL     1      -0.372  -0.695   1.125  0.00  0.00    +0.191 C 
ATOM      3  C   UNL     1      -0.508  -0.760  -0.373  0.00  0.00    +0.187 C 
ATOM      4  C   UNL     1       0.704  -0.407  -1.176  0.00  0.00    +0.209 C 
ATOM      5  C   UNL     1       2.034  -0.832  -0.556  0.00  0.00    +0.286 C 
ATOM      6  O   UNL     1       2.078  -0.570   0.833  0.00  0.00    -0.333 OA
ATOM      7  O   UNL     1       2.974   0.057  -1.216  0.00  0.00    -0.318 OA
ATOM      8  C   UNL     1       2.251   1.271  -1.461  0.00  0.00    +0.168 C 
ATOM      9  O   UNL     1       0.842   0.998  -1.417  0.00  0.00    -0.338 OA
ATOM     10  C   UNL     1       2.623   1.819  -2.840  0.00  0.00    +0.074 C 
ATOM     11  C   UNL     1       2.605   2.303  -0.388  0.00  0.00    +0.074 C 
ATOM     12  O   UNL     1      -0.914  -2.133  -0.650  0.00  0.00    -0.341 OA
ATOM     13  C   UNL     1      -1.370  -2.695   0.585  0.00  0.00    +0.166 C 
ATOM     14  O   UNL     1      -1.272  -1.708   1.620  0.00  0.00    -0.340 OA
ATOM     15  C   UNL     1      -0.505  -3.904   0.948  0.00  0.00    +0.074 C 
ATOM     16  C   UNL     1      -2.828  -3.136   0.438  0.00  0.00    +0.074 C 
ENDROOT
BRANCH   1  18
ATOM     17  N   UNL     1       2.121  -3.113   1.454  0.00  0.00    -0.283 N 
ATOM     18  C   UNL     1       1.150  -2.371   2.020  0.00  0.00    +0.249 C 
ATOM     19  O   UNL     1       0.386  -2.876   2.815  0.00  0.00    -0.273 OA
ATOM     20  H   UNL     1       2.789  -2.690   0.891  0.00  0.00    +0.155 HD
BRANCH  17  24
ATOM     21  C   UNL     1       2.259  -7.227   2.119  0.00  0.00    +0.121 A 
ATOM     22  C   UNL     1       3.015  -6.664   1.102  0.00  0.00    +0.047 A 
ATOM     23  C   UNL     1       2.970  -5.301   0.881  0.00  0.00    +0.027 A 
ATOM     24  C   UNL     1       2.167  -4.495   1.677  0.00  0.00    +0.034 A 
ATOM     25  C   UNL     1       1.413  -5.059   2.698  0.00  0.00    +0.027 A 
ATOM     26  C   UNL     1       1.456  -6.423   2.914  0.00  0.00    +0.047 A 
BRANCH  21  27
ATOM     27  O   UNL     1       2.304  -8.569   2.337  0.00  0.00    -0.492 OA
BRANCH  27  28
ATOM     28  C   UNL     1       1.499  -9.081   3.401  0.00  0.00    +0.229 C 
BRANCH  28  29
ATOM     29  C   UNL     1       1.680 -10.597   3.492  0.00  0.00    +0.041 C 
BRANCH  29  31
ATOM     30  C   UNL     1       0.999 -12.662   4.723  0.00  0.00    +0.004 C 
ATOM     31  C   UNL     1       0.818 -11.146   4.631  0.00  0.00    -0.000 C 
ENDBRANCH  29  31
ENDBRANCH  28  29
ENDBRANCH  27  28
ENDBRANCH  21  27
ENDBRANCH  17  24
ENDBRANCH   1  18
TORSDOF 6
