REMARK  Name = ZINC24835175
REMARK  9 active torsions:
REMARK  status: ('A' for Active; 'I' for Inactive)
REMARK    1  A    between atoms: C_1  and  C_2
REMARK    2  A    between atoms: C_2  and  O_3
REMARK    3  A    between atoms: O_3  and  C_4
REMARK    4  A    between atoms: C_4  and  C_6
REMARK    5  A    between atoms: C_7  and  C_21
REMARK    6  A    between atoms: C_12  and  C_14
REMARK    7  A    between atoms: C_21  and  S_22
REMARK    8  A    between atoms: S_22  and  C_23
REMARK    9  A    between atoms: N_27  and  C_28
REMARK                            x       y       z     vdW  Elec       q    Type
REMARK                         _______ _______ _______ _____ _____    ______ ____
ROOT
ATOM      1  C   UNL     1       7.037   4.366   0.303  0.00  0.00    +0.079 C 
ATOM      2  C   UNL     1       6.848   3.032   0.215  0.00  0.00    +0.034 C 
ATOM      3  N   UNL     1       7.616   2.265  -0.614  0.00  0.00    -0.272 N 
ATOM      4  C   UNL     1       8.597   2.756  -1.383  0.00  0.00    +0.304 C 
ATOM      5  O   UNL     1       9.228   1.993  -2.088  0.00  0.00    -0.252 OA
ATOM      6  N   UNL     1       8.907   4.067  -1.399  0.00  0.00    -0.288 N 
ATOM      7  C   UNL     1       8.136   4.981  -0.539  0.00  0.00    +0.144 C 
ATOM      8  H   UNL     1       7.445   1.181  -0.676  0.00  0.00    +0.156 HD
ATOM      9  H   UNL     1       9.715   4.460  -2.034  0.00  0.00    +0.151 HD
ENDROOT
BRANCH   7  10
ATOM     10  C   UNL     1       9.102   5.675   0.386  0.00  0.00    -0.022 A 
ATOM     11  C   UNL     1      10.147   4.968   0.951  0.00  0.00    +0.007 A 
ATOM     12  C   UNL     1      11.037   5.606   1.794  0.00  0.00    +0.020 A 
ATOM     13  C   UNL     1      10.875   6.949   2.082  0.00  0.00    +0.041 A 
ATOM     14  C   UNL     1       9.826   7.655   1.521  0.00  0.00    +0.020 A 
ATOM     15  C   UNL     1       8.940   7.018   0.673  0.00  0.00    +0.007 A 
ATOM     16 CL   UNL     1      11.989   7.749   3.147  0.00  0.00    -0.084 Cl
ENDBRANCH   7  10
BRANCH   1  17
ATOM     17  C   UNL     1       6.238   5.163   1.157  0.00  0.00    +0.339 C 
ATOM     18  O   UNL     1       5.465   4.635   1.934  0.00  0.00    -0.245 OA
BRANCH  17  19
ATOM     19  O   UNL     1       6.333   6.508   1.109  0.00  0.00    -0.462 OA
BRANCH  19  21
ATOM     20  C   UNL     1       5.743   8.747   1.802  0.00  0.00    +0.048 C 
ATOM     21  C   UNL     1       5.497   7.250   2.000  0.00  0.00    +0.229 C 
ENDBRANCH  19  21
ENDBRANCH  17  19
ENDBRANCH   1  17
BRANCH   2  22
ATOM     22  C   UNL     1       5.769   2.380   1.039  0.00  0.00    +0.128 C 
BRANCH  22  23
ATOM     23  S   UNL     1       6.505   1.631   2.514  0.00  0.00    -0.079 S 
BRANCH  23  24
ATOM     24  C   UNL     1       5.062   0.962   3.271  0.00  0.00    +0.210 A 
ATOM     25  N   UNL     1       3.832   1.035   2.809  0.00  0.00    -0.101 NA
ATOM     26  N   UNL     1       3.016   0.447   3.608  0.00  0.00    -0.022 NA
ATOM     27  N   UNL     1       3.652  -0.042   4.618  0.00  0.00    -0.043 NA
ATOM     28  N   UNL     1       5.010   0.272   4.434  0.00  0.00    -0.217 N 
BRANCH  28  29
ATOM     29  C   UNL     1       6.128  -0.070   5.317  0.00  0.00    +0.112 C 
ATOM     30  C   UNL     1       6.393  -1.553   5.581  0.00  0.00    +0.029 C 
ATOM     31  C   UNL     1       5.793  -0.675   6.681  0.00  0.00    +0.029 C 
ENDBRANCH  28  29
ENDBRANCH  23  24
ENDBRANCH  22  23
ENDBRANCH   2  22
TORSDOF 8
