REMARK  Name = ZINC59404106
REMARK  8 active torsions:
REMARK  status: ('A' for Active; 'I' for Inactive)
REMARK    1  A    between atoms: C_1  and  C_2
REMARK    2  A    between atoms: C_2  and  C_4
REMARK    3  A    between atoms: C_2  and  N_14
REMARK    4  A    between atoms: N_6  and  C_7
REMARK    5  A    between atoms: N_17  and  C_20
REMARK    6  A    between atoms: C_20  and  C_21
REMARK    7  A    between atoms: N_23  and  C_24
REMARK    8  A    between atoms: C_27  and  N_31
REMARK                            x       y       z     vdW  Elec       q    Type
REMARK                         _______ _______ _______ _____ _____    ______ ____
ROOT
ATOM      1  N   UNL     1       1.467  -0.951  -0.173  0.00  0.00    -0.289 NA
ATOM      2  C   UNL     1       1.160  -2.378  -0.004  0.00  0.00    +0.100 C 
ATOM      3  C   UNL     1       2.235  -3.214  -0.703  0.00  0.00    +0.100 C 
ATOM      4  N   UNL     1       2.284  -2.854  -2.127  0.00  0.00    -0.292 NA
ATOM      5  C   UNL     1       2.590  -1.427  -2.296  0.00  0.00    +0.100 C 
ATOM      6  C   UNL     1       1.515  -0.591  -1.597  0.00  0.00    +0.100 C 
ENDROOT
BRANCH   1   8
ATOM      7  C   UNL     1      -0.813  -0.059  -0.238  0.00  0.00    +0.034 C 
ATOM      8  C   UNL     1       0.497  -0.116   0.549  0.00  0.00    +0.140 C 
BRANCH   8   9
ATOM      9  C   UNL     1       1.051   1.277   0.703  0.00  0.00    +0.234 C 
ATOM     10  O   UNL     1       2.033   1.612   0.074  0.00  0.00    -0.274 OA
ATOM     11  N   UNL     1       0.456   2.151   1.538  0.00  0.00    -0.284 N 
ATOM     12  H   UNL     1      -0.288   1.863   2.091  0.00  0.00    +0.155 HD
BRANCH  11  13
ATOM     13  C   UNL     1       0.909   3.473   1.608  0.00  0.00    +0.036 A 
ATOM     14  C   UNL     1       1.405   4.099   0.472  0.00  0.00    +0.023 A 
ATOM     15  C   UNL     1       1.852   5.404   0.543  0.00  0.00    +0.005 A 
ATOM     16  C   UNL     1       1.808   6.088   1.744  0.00  0.00    +0.038 A 
ATOM     17  C   UNL     1       1.315   5.467   2.879  0.00  0.00    +0.125 A 
ATOM     18  C   UNL     1       0.860   4.162   2.812  0.00  0.00    +0.061 A 
ATOM     19  F   UNL     1       1.273   6.137   4.051  0.00  0.00    -0.205 F 
ENDBRANCH  11  13
ENDBRANCH   8   9
ENDBRANCH   1   8
BRANCH   4  20
ATOM     20  C   UNL     1       3.253  -3.689  -2.849  0.00  0.00    +0.180 C 
BRANCH  20  21
ATOM     21  C   UNL     1       3.102  -3.467  -4.331  0.00  0.00    +0.231 C 
ATOM     22  O   UNL     1       2.269  -2.689  -4.746  0.00  0.00    -0.274 OA
ATOM     23  N   UNL     1       3.892  -4.132  -5.197  0.00  0.00    -0.283 N 
ATOM     24  H   UNL     1       4.521  -4.794  -4.869  0.00  0.00    +0.155 HD
BRANCH  23  25
ATOM     25  C   UNL     1       3.806  -3.868  -6.569  0.00  0.00    +0.052 A 
ATOM     26  C   UNL     1       2.607  -3.436  -7.120  0.00  0.00    +0.027 A 
ATOM     27  C   UNL     1       2.526  -3.175  -8.474  0.00  0.00    +0.034 A 
ATOM     28  C   UNL     1       3.636  -3.344  -9.281  0.00  0.00    +0.128 A 
ATOM     29  C   UNL     1       4.832  -3.774  -8.736  0.00  0.00    +0.054 A 
ATOM     30  C   UNL     1       4.922  -4.032  -7.380  0.00  0.00    +0.064 A 
ATOM     31 CL   UNL     1       6.425  -4.564  -6.695  0.00  0.00    -0.082 Cl
BRANCH  28  32
ATOM     32  N   UNL     1       3.545  -3.064 -10.731  0.00  0.00    +0.056 N 
ATOM     33  O   UNL     1       2.500  -2.688 -11.210  0.00  0.00    -0.126 OA
ATOM     34  O   UNL     1       4.515  -3.211 -11.438  0.00  0.00    -0.126 OA
ENDBRANCH  28  32
ENDBRANCH  23  25
ENDBRANCH  20  21
ENDBRANCH   4  20
TORSDOF 7
