REMARK  Name = ZINC02751215
REMARK  11 active torsions:
REMARK  status: ('A' for Active; 'I' for Inactive)
REMARK    1  A    between atoms: C_1  and  C_2
REMARK    2  A    between atoms: C_2  and  C_3
REMARK    3  A    between atoms: C_3  and  C_5
REMARK    4  A    between atoms: C_3  and  O_20
REMARK    5  A    between atoms: N_7  and  C_8
REMARK    6  A    between atoms: C_9  and  C_17
REMARK    7  A    between atoms: O_20  and  C_21
REMARK    8  A    between atoms: C_21  and  C_23
REMARK    9  A    between atoms: N_25  and  C_35
REMARK   10  A    between atoms: C_32  and  C_34
REMARK   11  A    between atoms: C_35  and  C_36
REMARK                            x       y       z     vdW  Elec       q    Type
REMARK                         _______ _______ _______ _____ _____    ______ ____
ROOT
ATOM      1  C   UNL     1      -4.958   1.197   0.031  0.00  0.00    +0.262 C 
ENDROOT
BRANCH   1   2
ATOM      2  C   UNL     1      -6.028   1.976   0.751  0.00  0.00    +0.258 C 
ATOM      3  O   UNL     1      -5.802   3.103   1.137  0.00  0.00    -0.271 OA
ATOM      4  N   UNL     1      -7.237   1.420   0.965  0.00  0.00    -0.276 N 
ATOM      5  H   UNL     1      -7.418   0.519   0.657  0.00  0.00    +0.155 HD
BRANCH   4   6
ATOM      6  C   UNL     1      -8.222   2.137   1.627  0.00  0.00    +0.084 A 
ATOM      7  C   UNL     1      -9.517   1.742   1.934  0.00  0.00    +0.068 A 
ATOM      8  C   UNL     1     -10.357   2.690   2.646  0.00  0.00    -0.023 A 
ATOM      9  C   UNL     1      -9.776   3.877   2.925  0.00  0.00    -0.004 A 
ATOM     10  S   UNL     1      -8.138   3.746   2.266  0.00  0.00    -0.077 S 
ATOM     11  C   UNL     1     -10.395   5.041   3.637  0.00  0.00    +0.043 C 
ATOM     12  C   UNL     1     -11.915   4.830   3.678  0.00  0.00    +0.005 C 
ATOM     13  C   UNL     1     -12.202   3.400   4.147  0.00  0.00    +0.005 C 
ATOM     14  C   UNL     1     -11.795   2.404   3.059  0.00  0.00    +0.037 C 
BRANCH   7  15
ATOM     15  C   UNL     1     -10.017   0.416   1.558  0.00  0.00    +0.244 C 
ATOM     16  O   UNL     1      -9.888  -0.522   2.323  0.00  0.00    -0.270 OA
ATOM     17  N   UNL     1     -10.619   0.236   0.366  0.00  0.00    -0.325 N 
ATOM     18  H   UNL     1     -10.721   0.984  -0.243  0.00  0.00    +0.145 HD
ATOM     19  H   UNL     1     -10.950  -0.641   0.117  0.00  0.00    +0.145 HD
ENDBRANCH   7  15
ENDBRANCH   4   6
ENDBRANCH   1   2
BRANCH   1  21
ATOM     20  C   UNL     1      -4.370   0.041  -2.104  0.00  0.00    +0.008 C 
ATOM     21  C   UNL     1      -5.398   0.937  -1.411  0.00  0.00    +0.051 C 
ENDBRANCH   1  21
BRANCH   1  22
ATOM     22  O   UNL     1      -3.722   1.960   0.030  0.00  0.00    -0.448 OA
BRANCH  22  23
ATOM     23  C   UNL     1      -2.570   1.260   0.021  0.00  0.00    +0.345 C 
ATOM     24  O   UNL     1      -2.598   0.044   0.014  0.00  0.00    -0.245 OA
BRANCH  23  25
ATOM     25  C   UNL     1      -1.281   1.966   0.019  0.00  0.00    +0.122 A 
ATOM     26  C   UNL     1      -1.235   3.345   0.030  0.00  0.00    +0.106 A 
ATOM     27  N   UNL     1      -0.079   4.022   0.023  0.00  0.00    -0.331 N 
ATOM     28  C   UNL     1       1.150   3.404   0.009  0.00  0.00    +0.145 A 
ATOM     29  C   UNL     1       1.232   2.000   0.001  0.00  0.00    +0.065 A 
ATOM     30  C   UNL     1      -0.014   1.214   0.009  0.00  0.00    +0.205 A 
ATOM     31  O   UNL     1       0.002  -0.004   0.002  0.00  0.00    -0.286 OA
ATOM     32  C   UNL     1       2.483   1.380  -0.014  0.00  0.00    +0.017 A 
ATOM     33  C   UNL     1       3.607   2.186  -0.021  0.00  0.00    +0.024 A 
ATOM     34  C   UNL     1       3.454   3.563  -0.013  0.00  0.00    +0.041 A 
ATOM     35  N   UNL     1       2.264   4.126   0.002  0.00  0.00    -0.234 NA
ATOM     36  C   UNL     1       4.681   4.439  -0.020  0.00  0.00    +0.065 C 
BRANCH  27  37
ATOM     37  C   UNL     1      -0.126   5.486   0.031  0.00  0.00    +0.120 C 
ATOM     38  C   UNL     1      -0.029   6.008  -1.404  0.00  0.00    +0.027 C 
ENDBRANCH  27  37
ENDBRANCH  23  25
ENDBRANCH  22  23
ENDBRANCH   1  22
TORSDOF 8
