REMARK  Name = ZINC13025821
REMARK  11 active torsions:
REMARK  status: ('A' for Active; 'I' for Inactive)
REMARK    1  A    between atoms: C_1  and  C_2
REMARK    2  A    between atoms: C_2  and  C_4
REMARK    3  A    between atoms: C_2  and  N_9
REMARK    4  A    between atoms: C_10  and  C_12
REMARK    5  A    between atoms: C_12  and  S_13
REMARK    6  A    between atoms: S_13  and  C_14
REMARK    7  A    between atoms: N_24  and  C_25
REMARK    8  A    between atoms: C_25  and  C_27
REMARK    9  A    between atoms: C_25  and  C_30
REMARK   10  A    between atoms: C_27  and  C_28
REMARK   11  A    between atoms: C_27  and  C_29
REMARK                            x       y       z     vdW  Elec       q    Type
REMARK                         _______ _______ _______ _____ _____    ______ ____
ROOT
ATOM      1  C   UNL     1      -5.739  -1.846  -2.652  0.00  0.00    +0.173 A 
ATOM      2  N   UNL     1      -6.173  -2.124  -1.448  0.00  0.00    -0.223 NA
ATOM      3  C   UNL     1      -7.415  -2.602  -1.237  0.00  0.00    +0.079 A 
ATOM      4  C   UNL     1      -7.879  -2.898   0.048  0.00  0.00    +0.028 A 
ATOM      5  C   UNL     1      -9.146  -3.381   0.216  0.00  0.00    +0.002 A 
ATOM      6  C   UNL     1      -9.983  -3.584  -0.874  0.00  0.00    +0.001 A 
ATOM      7  C   UNL     1      -9.559  -3.305  -2.143  0.00  0.00    +0.015 A 
ATOM      8  C   UNL     1      -8.271  -2.810  -2.343  0.00  0.00    +0.065 A 
ATOM      9  C   UNL     1      -7.761  -2.492  -3.684  0.00  0.00    +0.263 A 
ATOM     10  O   UNL     1      -8.450  -2.649  -4.675  0.00  0.00    -0.267 OA
ATOM     11  N   UNL     1      -6.499  -2.012  -3.775  0.00  0.00    -0.273 N 
ENDROOT
BRANCH   1  12
ATOM     12  S   UNL     1      -4.100  -1.225  -2.832  0.00  0.00    -0.078 S 
BRANCH  12  13
ATOM     13  C   UNL     1      -3.465  -1.164  -1.134  0.00  0.00    +0.173 C 
BRANCH  13  15
ATOM     14  N   UNL     1      -1.372  -0.511   0.012  0.00  0.00    -0.305 N 
ATOM     15  C   UNL     1      -2.051  -0.643  -1.145  0.00  0.00    +0.224 C 
ATOM     16  O   UNL     1      -1.524  -0.341  -2.194  0.00  0.00    -0.275 OA
ATOM     17  H   UNL     1      -1.794  -0.752   0.852  0.00  0.00    +0.149 HD
BRANCH  14  19
ATOM     18  C   UNL     1      -0.019   1.526   0.010  0.00  0.00    +0.036 C 
ATOM     19  C   UNL     1       0.002  -0.004   0.002  0.00  0.00    +0.136 C 
BRANCH  19  20
ATOM     20  C   UNL     1       0.731  -0.503   1.223  0.00  0.00    +0.125 A 
ATOM     21  C   UNL     1       2.009  -0.922   1.260  0.00  0.00    +0.046 A 
ATOM     22  C   UNL     1       2.278  -1.298   2.596  0.00  0.00    +0.041 A 
ATOM     23  C   UNL     1       1.149  -1.087   3.295  0.00  0.00    +0.195 A 
ATOM     24  O   UNL     1       0.217  -0.600   2.460  0.00  0.00    -0.466 OA
ENDBRANCH  19  20
ENDBRANCH  14  19
ENDBRANCH  13  15
ENDBRANCH  12  13
ENDBRANCH   1  12
BRANCH  11  25
ATOM     25  C   UNL     1      -5.942  -1.672  -5.087  0.00  0.00    +0.208 C 
BRANCH  25  26
ATOM     26  C   UNL     1      -5.938  -2.917  -5.976  0.00  0.00    +0.017 C 
ATOM     27  C   UNL     1      -5.357  -2.562  -7.347  0.00  0.00    +0.010 C 
ATOM     28  C   UNL     1      -5.082  -4.006  -5.326  0.00  0.00    +0.010 C 
ENDBRANCH  25  26
BRANCH  25  29
ATOM     29  C   UNL     1      -6.785  -0.600  -5.728  0.00  0.00    +0.379 C 
ATOM     30  O   UNL     1      -6.275   0.200  -6.494  0.00  0.00    -0.244 OA
ATOM     31  O   UNL     1      -7.977  -0.531  -5.480  0.00  0.00    -0.244 OA
ENDBRANCH  25  29
ENDBRANCH  11  25
TORSDOF 8
