REMARK  Name = ZINC21244065
REMARK  6 active torsions:
REMARK  status: ('A' for Active; 'I' for Inactive)
REMARK    1  A    between atoms: C_4  and  N_10
REMARK    2  A    between atoms: C_6  and  N_7
REMARK    3  A    between atoms: C_11  and  C_13
REMARK    4  A    between atoms: C_13  and  O_14
REMARK    5  A    between atoms: O_14  and  C_15
REMARK    6  A    between atoms: C_15  and  C_17
REMARK                            x       y       z     vdW  Elec       q    Type
REMARK                         _______ _______ _______ _____ _____    ______ ____
ROOT
ATOM      1  N   UNL     1      -8.397   1.165  -0.131  0.00  0.00    -0.281 N 
ATOM      2  C   UNL     1      -7.065   1.370  -0.108  0.00  0.00    +0.255 C 
ATOM      3  O   UNL     1      -6.625   2.499  -0.072  0.00  0.00    -0.272 OA
ATOM      4  H   UNL     1      -8.795   0.146  -0.238  0.00  0.00    +0.155 HD
ENDROOT
BRANCH   1   8
ATOM      5  C   UNL     1     -11.006   4.397   0.209  0.00  0.00    +0.034 A 
ATOM      6  C   UNL     1     -11.341   3.179   0.771  0.00  0.00    +0.024 A 
ATOM      7  C   UNL     1     -10.479   2.105   0.660  0.00  0.00    +0.062 A 
ATOM      8  C   UNL     1      -9.273   2.251  -0.017  0.00  0.00    +0.054 A 
ATOM      9  C   UNL     1      -8.939   3.477  -0.575  0.00  0.00    +0.057 A 
ATOM     10  C   UNL     1      -9.808   4.545  -0.465  0.00  0.00    +0.128 A 
ATOM     11 CL   UNL     1     -10.899   0.576   1.366  0.00  0.00    -0.082 Cl
BRANCH  10  12
ATOM     12  N   UNL     1      -9.454   5.851  -1.065  0.00  0.00    +0.056 N 
ATOM     13  O   UNL     1     -10.217   6.794  -0.964  0.00  0.00    -0.126 OA
ATOM     14  O   UNL     1      -8.399   5.982  -1.659  0.00  0.00    -0.126 OA
ENDBRANCH  10  12
ENDBRANCH   1   8
BRANCH   2  15
ATOM     15  C   UNL     1      -6.122   0.195  -0.129  0.00  0.00    +0.328 C 
BRANCH  15  16
ATOM     16  O   UNL     1      -4.751   0.673  -0.099  0.00  0.00    -0.451 OA
BRANCH  16  17
ATOM     17  C   UNL     1      -3.776  -0.259  -0.113  0.00  0.00    +0.346 C 
ATOM     18  O   UNL     1      -4.065  -1.440  -0.149  0.00  0.00    -0.244 OA
BRANCH  17  19
ATOM     19  C   UNL     1      -2.371   0.150  -0.084  0.00  0.00    +0.097 A 
ATOM     20  C   UNL     1      -1.232  -0.636  -0.092  0.00  0.00    +0.026 A 
ATOM     21  C   UNL     1       0.003   0.001  -0.052  0.00  0.00    -0.036 A 
ATOM     22  C   UNL     1      -0.016   1.353  -0.037  0.00  0.00    -0.006 A 
ATOM     23  S   UNL     1      -1.678   1.795  -0.029  0.00  0.00    -0.086 S 
ATOM     24  C   UNL     1       1.189   2.268  -0.045  0.00  0.00    +0.043 C 
ATOM     25  C   UNL     1       1.908   2.085   1.302  0.00  0.00    +0.005 C 
ATOM     26  C   UNL     1       2.743   0.826   1.285  0.00  0.00    +0.001 C 
ATOM     27  C   UNL     1       1.990  -0.479   1.332  0.00  0.00    +0.005 C 
ATOM     28  C   UNL     1       1.311  -0.796  -0.002  0.00  0.00    +0.036 C 
ENDBRANCH  17  19
ENDBRANCH  16  17
ENDBRANCH  15  16
ENDBRANCH   2  15
TORSDOF 6
