REMARK  Name = ZINC48435849
REMARK  4 active torsions:
REMARK  status: ('A' for Active; 'I' for Inactive)
REMARK    1  A    between atoms: C_6  and  C_7
REMARK    2  A    between atoms: C_8  and  C_13
REMARK    3  A    between atoms: N_19  and  C_22
REMARK    4  A    between atoms: C_22  and  C_23
REMARK                            x       y       z     vdW  Elec       q    Type
REMARK                         _______ _______ _______ _____ _____    ______ ____
ROOT
ATOM      1  C   UNL     1      -0.573  -2.812  -1.484  0.00  0.00    +0.145 A 
ATOM      2  N   UNL     1      -0.845  -3.999  -2.107  0.00  0.00    -0.335 N 
ATOM      3  H   UNL     1      -1.688  -4.479  -2.092  0.00  0.00    +0.167 HD
ATOM      4  C   UNL     1       0.313  -4.384  -2.764  0.00  0.00    +0.105 A 
ATOM      5  C   UNL     1       0.926  -5.348  -3.574  0.00  0.00    +0.162 A 
ATOM      6  N   UNL     1       2.160  -4.982  -3.801  0.00  0.00    -0.175 NA
ATOM      7  N   UNL     1       2.405  -3.766  -3.151  0.00  0.00    -0.241 N 
ATOM      8  C   UNL     1       1.255  -3.394  -2.505  0.00  0.00    +0.177 A 
ATOM      9  N   UNL     1       0.669  -2.466  -1.733  0.00  0.00    -0.208 NA
ENDROOT
BRANCH   1  11
ATOM     10  C   UNL     1      -1.270  -0.765   0.011  0.00  0.00    +0.103 A 
ATOM     11  C   UNL     1      -1.528  -2.039  -0.664  0.00  0.00    +0.062 A 
ATOM     12  C   UNL     1      -2.825  -2.373  -0.388  0.00  0.00    +0.117 A 
ATOM     13  N   UNL     1      -3.348  -1.407   0.388  0.00  0.00    -0.283 N 
ATOM     14  H   UNL     1      -4.255  -1.394   0.731  0.00  0.00    +0.188 HD
ATOM     15  N   UNL     1      -2.380  -0.427   0.630  0.00  0.00    -0.173 NA
BRANCH  10  21
ATOM     16  C   UNL     1      -0.017   1.390   0.010  0.00  0.00    +0.013 A 
ATOM     17  C   UNL     1       1.170   2.094   0.002  0.00  0.00    +0.039 A 
ATOM     18  C   UNL     1       2.379   1.417  -0.013  0.00  0.00    +0.123 A 
ATOM     19  C   UNL     1       2.402   0.032  -0.022  0.00  0.00    +0.039 A 
ATOM     20  C   UNL     1       1.221  -0.680  -0.014  0.00  0.00    +0.013 A 
ATOM     21  C   UNL     1       0.002  -0.004   0.002  0.00  0.00    +0.003 A 
ATOM     22  F   UNL     1       3.538   2.111  -0.021  0.00  0.00    -0.205 F 
ENDBRANCH  10  21
ENDBRANCH   1  11
BRANCH   7  23
ATOM     23  C   UNL     1       3.668  -3.023  -3.159  0.00  0.00    +0.181 C 
BRANCH  23  24
ATOM     24  C   UNL     1       3.679  -2.063  -4.320  0.00  0.00    -0.023 A 
ATOM     25  C   UNL     1       4.168  -2.452  -5.558  0.00  0.00    +0.025 A 
ATOM     26  C   UNL     1       4.162  -1.544  -6.600  0.00  0.00    +0.111 A 
ATOM     27  N   UNL     1       3.699  -0.321  -6.426  0.00  0.00    -0.263 NA
ATOM     28  C   UNL     1       3.226   0.083  -5.263  0.00  0.00    +0.111 A 
ATOM     29  C   UNL     1       3.195  -0.772  -4.178  0.00  0.00    +0.025 A 
ENDBRANCH  23  24
ENDBRANCH   7  23
TORSDOF 4
