REMARK  Name = ZINC41514915
REMARK  7 active torsions:
REMARK  status: ('A' for Active; 'I' for Inactive)
REMARK    1  A    between atoms: C_1  and  C_2
REMARK    2  A    between atoms: C_2  and  N_3
REMARK    3  A    between atoms: N_6  and  C_9
REMARK    4  A    between atoms: C_9  and  C_10
REMARK    5  A    between atoms: C_11  and  O_29
REMARK    6  A    between atoms: C_13  and  C_28
REMARK    7  A    between atoms: C_18  and  C_19
REMARK                            x       y       z     vdW  Elec       q    Type
REMARK                         _______ _______ _______ _____ _____    ______ ____
ROOT
ATOM      1  C   UNL     1      -4.706  -4.145  -1.215  0.00  0.00    +0.051 A 
ATOM      2  C   UNL     1      -4.660  -4.756  -2.458  0.00  0.00    +0.125 A 
ATOM      3  C   UNL     1      -4.620  -6.143  -2.565  0.00  0.00    +0.050 A 
ATOM      4  C   UNL     1      -4.626  -6.918  -1.440  0.00  0.00    -0.033 A 
ATOM      5  C   UNL     1      -4.672  -6.317  -0.181  0.00  0.00    +0.071 A 
ATOM      6  C   UNL     1      -4.706  -4.919  -0.061  0.00  0.00    +0.148 A 
ATOM      7  O   UNL     1      -4.740  -4.574   1.245  0.00  0.00    -0.451 OA
ATOM      8  C   UNL     1      -4.726  -5.660   2.053  0.00  0.00    +0.176 C 
ATOM      9  C   UNL     1      -4.752  -5.651   3.409  0.00  0.00    +0.058 C 
ATOM     10  C   UNL     1      -4.691  -6.853   1.192  0.00  0.00    +0.232 C 
ATOM     11  O   UNL     1      -4.668  -8.022   1.537  0.00  0.00    -0.283 OA
ATOM     12  C   UNL     1      -4.584  -8.420  -1.558  0.00  0.00    +0.045 C 
ENDROOT
BRANCH   9  13
ATOM     13  C   UNL     1      -4.687  -4.376   4.136  0.00  0.00    -0.021 A 
ATOM     14  C   UNL     1      -4.579  -4.366   5.531  0.00  0.00    +0.009 A 
ATOM     15  C   UNL     1      -4.519  -3.166   6.206  0.00  0.00    +0.016 A 
ATOM     16  C   UNL     1      -4.566  -1.971   5.507  0.00  0.00    +0.018 A 
ATOM     17  C   UNL     1      -4.675  -1.972   4.126  0.00  0.00    +0.016 A 
ATOM     18  C   UNL     1      -4.729  -3.164   3.436  0.00  0.00    +0.009 A 
ATOM     19 BR   UNL     1      -4.484  -0.330   6.443  0.00  0.00    -0.050 Br
ENDBRANCH   9  13
BRANCH   2  20
ATOM     20  O   UNL     1      -4.655  -3.994  -3.582  0.00  0.00    -0.506 OA
ATOM     21  H   UNL     1      -3.771  -3.749  -3.887  0.00  0.00    +0.292 HD
ENDBRANCH   2  20
BRANCH   1  22
ATOM     22  C   UNL     1      -4.749  -2.642  -1.115  0.00  0.00    +0.126 C 
BRANCH  22  26
ATOM     23  N   UNL     1      -1.275  -0.544   0.067  0.00  0.00    +0.381 N 
ATOM     24  C   UNL     1      -1.924  -0.151  -1.190  0.00  0.00    -0.063 C 
ATOM     25  C   UNL     1      -3.370  -0.653  -1.196  0.00  0.00    +0.066 C 
ATOM     26  N   UNL     1      -3.379  -2.116  -1.056  0.00  0.00    -0.301 NA
ATOM     27  C   UNL     1      -2.710  -2.525   0.187  0.00  0.00    +0.066 C 
ATOM     28  C   UNL     1      -1.270  -2.008   0.182  0.00  0.00    -0.063 C 
ATOM     29  H   UNL     1      -1.782  -0.148   0.845  0.00  0.00    -0.082 HD
BRANCH  23  31
ATOM     30  C   UNL     1       0.099   1.483   0.087  0.00  0.00    -0.017 C 
ATOM     31  C   UNL     1       0.107  -0.047   0.081  0.00  0.00    -0.082 C 
ENDBRANCH  23  31
ENDBRANCH  22  26
ENDBRANCH   1  22
TORSDOF 5
