REMARK  Name = ZINC14173038
REMARK  7 active torsions:
REMARK  status: ('A' for Active; 'I' for Inactive)
REMARK    1  A    between atoms: N_4  and  C_6
REMARK    2  A    between atoms: C_10  and  C_11
REMARK    3  A    between atoms: C_11  and  O_13
REMARK    4  A    between atoms: O_13  and  C_14
REMARK    5  A    between atoms: C_14  and  C_15
REMARK    6  A    between atoms: N_17  and  C_18
REMARK    7  A    between atoms: C_21  and  N_25
REMARK                            x       y       z     vdW  Elec       q    Type
REMARK                         _______ _______ _______ _____ _____    ______ ____
ROOT
ATOM      1  C   UNL     1      -0.970  -3.361   3.729  0.00  0.00    +0.328 C 
ENDROOT
BRANCH   1   2
ATOM      2  C   UNL     1      -1.221  -4.645   4.476  0.00  0.00    +0.255 C 
ATOM      3  O   UNL     1      -0.627  -5.655   4.163  0.00  0.00    -0.272 OA
ATOM      4  N   UNL     1      -2.105  -4.671   5.493  0.00  0.00    -0.281 N 
ATOM      5  H   UNL     1      -2.531  -3.851   5.787  0.00  0.00    +0.155 HD
BRANCH   4   6
ATOM      6  C   UNL     1      -2.408  -5.882   6.126  0.00  0.00    +0.052 A 
ATOM      7  C   UNL     1      -1.425  -6.851   6.283  0.00  0.00    +0.027 A 
ATOM      8  C   UNL     1      -1.727  -8.045   6.908  0.00  0.00    +0.034 A 
ATOM      9  C   UNL     1      -3.006  -8.277   7.379  0.00  0.00    +0.128 A 
ATOM     10  C   UNL     1      -3.988  -7.315   7.225  0.00  0.00    +0.054 A 
ATOM     11  C   UNL     1      -3.691  -6.116   6.605  0.00  0.00    +0.064 A 
ATOM     12 CL   UNL     1      -4.922  -4.906   6.418  0.00  0.00    -0.082 Cl
BRANCH   9  13
ATOM     13  N   UNL     1      -3.326  -9.558   8.048  0.00  0.00    +0.056 N 
ATOM     14  O   UNL     1      -2.469 -10.400   8.183  0.00  0.00    -0.126 OA
ATOM     15  O   UNL     1      -4.444  -9.762   8.460  0.00  0.00    -0.126 OA
ENDBRANCH   9  13
ENDBRANCH   4   6
ENDBRANCH   1   2
BRANCH   1  16
ATOM     16  O   UNL     1       0.000  -3.587   2.705  0.00  0.00    -0.451 OA
BRANCH  16  17
ATOM     17  C   UNL     1       0.340  -2.530   1.938  0.00  0.00    +0.348 C 
ATOM     18  O   UNL     1      -0.175  -1.445   2.135  0.00  0.00    -0.244 OA
BRANCH  17  23
ATOM     19  C   UNL     1       1.782  -1.732   0.008  0.00  0.00    +0.067 A 
ATOM     20  C   UNL     1       2.723  -2.191  -0.892  0.00  0.00    +0.034 A 
ATOM     21  C   UNL     1       3.094  -3.492  -0.849  0.00  0.00    +0.048 A 
ATOM     22  S   UNL     1       2.189  -4.144   0.406  0.00  0.00    -0.088 S 
ATOM     23  C   UNL     1       1.295  -2.683   0.904  0.00  0.00    +0.120 A 
BRANCH  19  27
ATOM     24  C   UNL     1       0.035   1.361   0.048  0.00  0.00    +0.019 A 
ATOM     25  C   UNL     1       1.376   1.797   0.045  0.00  0.00    +0.019 A 
ATOM     26  C   UNL     1       2.158   0.699   0.030  0.00  0.00    +0.091 A 
ATOM     27  N   UNL     1       1.349  -0.402   0.023  0.00  0.00    -0.322 N 
ATOM     28  C   UNL     1       0.048   0.013   0.034  0.00  0.00    +0.091 A 
ENDBRANCH  19  27
ENDBRANCH  17  23
ENDBRANCH  16  17
ENDBRANCH   1  16
TORSDOF 7
