REMARK  Name = ZINC25146124
REMARK  8 active torsions:
REMARK  status: ('A' for Active; 'I' for Inactive)
REMARK    1  A    between atoms: C_1  and  C_2
REMARK    2  A    between atoms: C_2  and  C_4
REMARK    3  A    between atoms: C_2  and  N_25
REMARK    4  A    between atoms: N_6  and  C_7
REMARK    5  A    between atoms: C_7  and  C_9
REMARK    6  A    between atoms: C_7  and  C_15
REMARK    7  A    between atoms: N_25  and  S_26
REMARK    8  A    between atoms: S_26  and  C_29
REMARK                            x       y       z     vdW  Elec       q    Type
REMARK                         _______ _______ _______ _____ _____    ______ ____
ROOT
ATOM      1  C   UNL     1       0.923  -0.855   0.962  0.00  0.00    +0.232 C 
ATOM      2  O   UNL     1       0.337  -1.534   1.778  0.00  0.00    -0.274 OA
ATOM      3  N   UNL     1       2.256  -0.684   1.062  0.00  0.00    -0.303 N 
ATOM      4  H   UNL     1       2.726  -0.141   0.409  0.00  0.00    +0.150 HD
ENDROOT
BRANCH   1   6
ATOM      5  C   UNL     1       0.334   1.314  -0.085  0.00  0.00    +0.035 C 
ATOM      6  C   UNL     1       0.162  -0.204  -0.164  0.00  0.00    +0.159 C 
BRANCH   6   7
ATOM      7  N   UNL     1      -1.260  -0.541  -0.050  0.00  0.00    -0.178 NA
ATOM      8  H   UNL     1      -1.672  -0.618   0.825  0.00  0.00    +0.149 HD
BRANCH   7   9
ATOM      9  S   UNL     1      -2.163  -0.790  -1.416  0.00  0.00    +0.062 S 
ATOM     10  O   UNL     1      -1.421  -1.682  -2.236  0.00  0.00    -0.153 OA
ATOM     11  O   UNL     1      -3.485  -1.075  -0.981  0.00  0.00    -0.153 OA
BRANCH   9  12
ATOM     12  C   UNL     1      -2.236   0.744  -2.279  0.00  0.00    +0.140 A 
ATOM     13  C   UNL     1      -1.657   0.863  -3.528  0.00  0.00    +0.031 A 
ATOM     14  C   UNL     1      -1.714   2.067  -4.205  0.00  0.00    +0.002 A 
ATOM     15  C   UNL     1      -2.351   3.153  -3.634  0.00  0.00    +0.003 A 
ATOM     16  C   UNL     1      -2.931   3.036  -2.386  0.00  0.00    +0.040 A 
ATOM     17  C   UNL     1      -2.879   1.830  -1.708  0.00  0.00    +0.150 A 
ATOM     18  F   UNL     1      -3.450   1.713  -0.490  0.00  0.00    -0.203 F 
ENDBRANCH   9  12
ENDBRANCH   7   9
ENDBRANCH   6   7
ENDBRANCH   1   6
BRANCH   3  19
ATOM     19  C   UNL     1       2.997  -1.317   2.156  0.00  0.00    +0.134 C 
BRANCH  19  20
ATOM     20  C   UNL     1       4.434  -1.509   1.744  0.00  0.00    -0.021 A 
ATOM     21  C   UNL     1       5.084  -0.516   1.026  0.00  0.00    +0.008 A 
ATOM     22  C   UNL     1       6.387  -0.671   0.644  0.00  0.00    +0.030 A 
ATOM     23  C   UNL     1       7.075  -1.841   0.977  0.00  0.00    +0.089 A 
ATOM     24  C   UNL     1       6.417  -2.847   1.705  0.00  0.00    +0.066 A 
ATOM     25  C   UNL     1       5.095  -2.669   2.089  0.00  0.00    +0.033 A 
ATOM     26  N   UNL     1       7.341  -3.858   1.877  0.00  0.00    -0.344 N 
ATOM     27  H   UNL     1       7.195  -4.697   2.342  0.00  0.00    +0.167 HD
ATOM     28  C   UNL     1       8.494  -3.460   1.275  0.00  0.00    +0.197 A 
ATOM     29  N   UNL     1       8.339  -2.280   0.749  0.00  0.00    -0.236 NA
ENDBRANCH  19  20
BRANCH  19  30
ATOM     30  C   UNL     1       2.938  -0.436   3.377  0.00  0.00    -0.023 A 
ATOM     31  C   UNL     1       3.043   0.936   3.246  0.00  0.00    +0.006 A 
ATOM     32  C   UNL     1       2.989   1.743   4.367  0.00  0.00    +0.000 A 
ATOM     33  C   UNL     1       2.829   1.179   5.619  0.00  0.00    +0.000 A 
ATOM     34  C   UNL     1       2.723  -0.193   5.750  0.00  0.00    +0.000 A 
ATOM     35  C   UNL     1       2.773  -1.001   4.629  0.00  0.00    +0.006 A 
ENDBRANCH  19  30
ENDBRANCH   3  19
TORSDOF 7
