REMARK  Name = ZINC09602840
REMARK  9 active torsions:
REMARK  status: ('A' for Active; 'I' for Inactive)
REMARK    1  A    between atoms: C_1  and  C_2
REMARK    2  A    between atoms: C_5  and  N_8
REMARK    3  A    between atoms: C_9  and  C_32
REMARK    4  A    between atoms: C_11  and  C_17
REMARK    5  A    between atoms: C_17  and  O_19
REMARK    6  A    between atoms: O_19  and  C_20
REMARK    7  A    between atoms: C_20  and  C_21
REMARK    8  A    between atoms: N_23  and  C_24
REMARK    9  A    between atoms: C_25  and  C_29
REMARK                            x       y       z     vdW  Elec       q    Type
REMARK                         _______ _______ _______ _____ _____    ______ ____
ROOT
ATOM      1  N   UNL     1      -9.022  -5.887  -0.257  0.00  0.00    -0.263 N 
ATOM      2  C   UNL     1      -7.741  -5.355   0.193  0.00  0.00    +0.132 C 
ATOM      3  C   UNL     1      -7.735  -3.829   0.102  0.00  0.00    +0.124 C 
ATOM      4  C   UNL     1      -8.198  -3.415  -1.300  0.00  0.00    +0.026 C 
ATOM      5  C   UNL     1      -9.673  -3.792  -1.454  0.00  0.00    +0.097 C 
ATOM      6  C   UNL     1      -9.889  -5.211  -1.012  0.00  0.00    +0.220 C 
ATOM      7  O   UNL     1     -10.906  -5.772  -1.360  0.00  0.00    -0.275 OA
ENDROOT
BRANCH   1  12
ATOM      8  C   UNL     1     -10.402 -11.166   1.296  0.00  0.00    +0.044 C 
ATOM      9  C   UNL     1     -10.035  -9.764   0.884  0.00  0.00    -0.050 A 
ATOM     10  C   UNL     1     -10.757  -8.690   1.372  0.00  0.00    +0.005 A 
ATOM     11  C   UNL     1     -10.423  -7.404   0.996  0.00  0.00    +0.024 A 
ATOM     12  C   UNL     1      -9.362  -7.189   0.126  0.00  0.00    +0.037 A 
ATOM     13  C   UNL     1      -8.643  -8.270  -0.367  0.00  0.00    +0.024 A 
ATOM     14  C   UNL     1      -8.978  -9.554   0.018  0.00  0.00    +0.005 A 
ENDBRANCH   1  12
BRANCH   2  15
ATOM     15  C   UNL     1      -7.504  -5.771   1.622  0.00  0.00    +0.011 A 
ATOM     16  C   UNL     1      -6.400  -6.328   2.177  0.00  0.00    +0.013 A 
ATOM     17  C   UNL     1      -6.406  -6.626   3.526  0.00  0.00    +0.008 A 
ATOM     18  C   UNL     1      -7.519  -6.362   4.253  0.00  0.00    +0.045 A 
ATOM     19  S   UNL     1      -8.607  -5.664   3.022  0.00  0.00    -0.100 S 
ENDBRANCH   2  15
BRANCH   3  20
ATOM     20  C   UNL     1      -6.339  -3.314   0.346  0.00  0.00    +0.313 C 
ATOM     21  O   UNL     1      -5.441  -4.089   0.576  0.00  0.00    -0.250 OA
BRANCH  20  22
ATOM     22  O   UNL     1      -6.095  -1.995   0.308  0.00  0.00    -0.455 OA
BRANCH  22  23
ATOM     23  C   UNL     1      -4.728  -1.571   0.552  0.00  0.00    +0.328 C 
BRANCH  23  24
ATOM     24  C   UNL     1      -4.645  -0.068   0.470  0.00  0.00    +0.255 C 
ATOM     25  O   UNL     1      -5.641   0.581   0.230  0.00  0.00    -0.272 OA
ATOM     26  N   UNL     1      -3.465   0.553   0.664  0.00  0.00    -0.277 N 
ATOM     27  H   UNL     1      -2.669   0.034   0.857  0.00  0.00    +0.155 HD
BRANCH  26  28
ATOM     28  C   UNL     1      -3.390   1.936   0.589  0.00  0.00    +0.084 A 
ATOM     29  C   UNL     1      -2.276   2.750   0.757  0.00  0.00    +0.065 A 
ATOM     30  C   UNL     1      -2.484   4.172   0.616  0.00  0.00    +0.022 A 
ATOM     31  C   UNL     1      -3.734   4.585   0.341  0.00  0.00    +0.048 A 
ATOM     32  S   UNL     1      -4.661   3.067   0.265  0.00  0.00    -0.081 S 
BRANCH  29  33
ATOM     33  C   UNL     1      -0.954   2.192   1.057  0.00  0.00    +0.244 C 
ATOM     34  O   UNL     1      -0.812   0.989   1.169  0.00  0.00    -0.270 OA
ATOM     35  N   UNL     1       0.106   3.012   1.203  0.00  0.00    -0.325 N 
ATOM     36  H   UNL     1       0.982   2.642   1.397  0.00  0.00    +0.145 HD
ATOM     37  H   UNL     1      -0.006   3.971   1.113  0.00  0.00    +0.145 HD
ENDBRANCH  29  33
ENDBRANCH  26  28
ENDBRANCH  23  24
ENDBRANCH  22  23
ENDBRANCH  20  22
ENDBRANCH   3  20
TORSDOF 8
