REMARK  Name = ZINC64612629
REMARK  6 active torsions:
REMARK  status: ('A' for Active; 'I' for Inactive)
REMARK    1  A    between atoms: C_4  and  C_7
REMARK    2  A    between atoms: C_11  and  C_14
REMARK    3  A    between atoms: C_17  and  S_19
REMARK    4  A    between atoms: S_19  and  N_22
REMARK    5  A    between atoms: N_22  and  C_23
REMARK    6  A    between atoms: C_23  and  C_24
REMARK                            x       y       z     vdW  Elec       q    Type
REMARK                         _______ _______ _______ _____ _____    ______ ____
ROOT
ATOM      1  C   UNL     1       4.935  -2.944   2.427  0.00  0.00    +0.069 C 
ATOM      2  N   UNL     1       5.068  -4.226   2.481  0.00  0.00    -0.258 NA
ATOM      3  C   UNL     1       4.892  -4.733   3.724  0.00  0.00    +0.135 C 
ATOM      4  C   UNL     1       4.618  -3.791   4.619  0.00  0.00    +0.106 C 
ATOM      5  C   UNL     1       4.624  -2.489   3.840  0.00  0.00    +0.112 C 
ENDROOT
BRANCH   1   9
ATOM      6  C   UNL     1       3.711  -0.707  -0.038  0.00  0.00    +0.233 C 
ATOM      7  N   UNL     1       3.537  -2.081  -0.579  0.00  0.00    -0.223 NA
ATOM      8  N   UNL     1       4.661  -2.825   0.000  0.00  0.00    -0.222 NA
ATOM      9  C   UNL     1       5.067  -2.072   1.205  0.00  0.00    +0.248 C 
ATOM     10  O   UNL     1       4.185  -0.937   1.308  0.00  0.00    -0.332 OA
ATOM     11  H   UNL     1       2.655  -2.475  -0.288  0.00  0.00    +0.144 HD
ATOM     12  H   UNL     1       5.424  -2.896  -0.656  0.00  0.00    +0.144 HD
BRANCH   6  16
ATOM     13  C   UNL     1      -0.016   1.380   0.011  0.00  0.00    +0.000 A 
ATOM     14  C   UNL     1       0.852   1.490   1.081  0.00  0.00    +0.000 A 
ATOM     15  C   UNL     1       2.058   0.814   1.066  0.00  0.00    +0.007 A 
ATOM     16  C   UNL     1       2.396   0.029  -0.020  0.00  0.00    -0.003 A 
ATOM     17  C   UNL     1       1.528  -0.082  -1.090  0.00  0.00    +0.007 A 
ATOM     18  C   UNL     1       0.323   0.595  -1.075  0.00  0.00    +0.000 A 
ENDBRANCH   6  16
ENDBRANCH   1   9
BRANCH   4  19
ATOM     19  S   UNL     1       4.317  -4.006   6.342  0.00  0.00    +0.057 S 
ATOM     20  O   UNL     1       4.627  -5.360   6.643  0.00  0.00    -0.153 OA
ATOM     21  O   UNL     1       4.945  -2.916   7.003  0.00  0.00    -0.153 OA
BRANCH  19  22
ATOM     22  N   UNL     1       2.688  -3.829   6.581  0.00  0.00    -0.186 NA
ATOM     23  H   UNL     1       2.353  -3.088   7.109  0.00  0.00    +0.148 HD
BRANCH  22  24
ATOM     24  C   UNL     1       1.753  -4.793   5.995  0.00  0.00    +0.141 C 
BRANCH  24  25
ATOM     25  C   UNL     1       0.401  -4.639   6.643  0.00  0.00    -0.032 A 
ATOM     26  C   UNL     1       0.091  -5.369   7.776  0.00  0.00    +0.006 A 
ATOM     27  C   UNL     1      -1.149  -5.228   8.371  0.00  0.00    +0.020 A 
ATOM     28  C   UNL     1      -2.079  -4.357   7.832  0.00  0.00    +0.041 A 
ATOM     29  C   UNL     1      -1.768  -3.627   6.699  0.00  0.00    +0.020 A 
ATOM     30  C   UNL     1      -0.526  -3.764   6.108  0.00  0.00    +0.006 A 
ATOM     31 CL   UNL     1      -3.636  -4.180   8.579  0.00  0.00    -0.084 Cl
ENDBRANCH  24  25
ENDBRANCH  22  24
ENDBRANCH  19  22
ENDBRANCH   4  19
TORSDOF 6
