REMARK  Name = ZINC27857544
REMARK  6 active torsions:
REMARK  status: ('A' for Active; 'I' for Inactive)
REMARK    1  A    between atoms: C_1  and  C_2
REMARK    2  A    between atoms: C_9  and  C_11
REMARK    3  A    between atoms: N_13  and  C_14
REMARK    4  A    between atoms: C_17  and  N_20
REMARK    5  A    between atoms: N_23  and  C_24
REMARK    6  A    between atoms: C_24  and  C_25
REMARK                            x       y       z     vdW  Elec       q    Type
REMARK                         _______ _______ _______ _____ _____    ______ ____
ROOT
ATOM      1  C   UNL     1      -0.531   2.934  -0.186  0.00  0.00    +0.034 A 
ATOM      2  C   UNL     1      -0.287   1.571  -0.288  0.00  0.00    +0.025 A 
ATOM      3  C   UNL     1       1.006   1.110  -0.432  0.00  0.00    +0.025 A 
ATOM      4  C   UNL     1       2.062   2.010  -0.486  0.00  0.00    +0.035 A 
ATOM      5  C   UNL     1       1.818   3.373  -0.389  0.00  0.00    +0.025 A 
ATOM      6  C   UNL     1       0.525   3.834  -0.240  0.00  0.00    +0.025 A 
ENDROOT
BRANCH   4   7
ATOM      7  N   UNL     1       3.374   1.542  -0.637  0.00  0.00    -0.269 N 
ATOM      8  C   UNL     1       3.746   0.380  -0.065  0.00  0.00    +0.304 C 
ATOM      9  O   UNL     1       2.973  -0.214   0.662  0.00  0.00    -0.253 OA
ATOM     10  N   UNL     1       4.974  -0.124  -0.299  0.00  0.00    -0.297 N 
ATOM     11  H   UNL     1       4.101   2.124  -1.223  0.00  0.00    +0.156 HD
ATOM     12  H   UNL     1       5.673   0.413  -0.957  0.00  0.00    +0.150 HD
BRANCH  10  13
ATOM     13  C   UNL     1       5.377  -1.388   0.323  0.00  0.00    +0.137 C 
BRANCH  13  14
ATOM     14  C   UNL     1       6.806  -1.732  -0.103  0.00  0.00    +0.135 C 
ATOM     15  C   UNL     1       7.208  -3.122   0.439  0.00  0.00    +0.035 C 
ATOM     16  C   UNL     1       8.698  -2.961   0.815  0.00  0.00    +0.031 C 
ATOM     17  C   UNL     1       9.020  -1.493   0.456  0.00  0.00    +0.160 C 
ATOM     18  O   UNL     1       7.745  -0.815   0.498  0.00  0.00    -0.375 OA
ENDBRANCH  13  14
ENDBRANCH  10  13
ENDBRANCH   4   7
BRANCH   1  21
ATOM     19  C   UNL     1      -2.214   4.563  -0.608  0.00  0.00    +0.255 C 
ATOM     20  O   UNL     1      -1.440   5.158  -1.336  0.00  0.00    -0.269 OA
ATOM     21  N   UNL     1      -1.842   3.401  -0.035  0.00  0.00    -0.281 N 
ATOM     22  H   UNL     1      -2.569   2.820   0.551  0.00  0.00    +0.155 HD
BRANCH  19  30
ATOM     23  C   UNL     1      -8.377   8.949  -1.002  0.00  0.00    +0.008 C 
ATOM     24  C   UNL     1      -7.647   7.639  -0.701  0.00  0.00    -0.009 C 
ATOM     25  C   UNL     1      -7.916   7.229   0.749  0.00  0.00    +0.009 C 
ATOM     26  C   UNL     1      -7.411   5.794   0.959  0.00  0.00    +0.043 C 
ATOM     27  C   UNL     1      -6.027   5.694   0.395  0.00  0.00    -0.006 A 
ATOM     28  C   UNL     1      -5.414   6.579  -0.446  0.00  0.00    -0.036 A 
ATOM     29  C   UNL     1      -4.118   6.277  -0.832  0.00  0.00    +0.024 A 
ATOM     30  C   UNL     1      -3.549   5.112  -0.354  0.00  0.00    +0.075 A 
ATOM     31  S   UNL     1      -4.862   4.453   0.660  0.00  0.00    -0.088 S 
ATOM     32  C   UNL     1      -6.145   7.833  -0.917  0.00  0.00    +0.039 C 
ENDBRANCH  19  30
ENDBRANCH   1  21
TORSDOF 5
