REMARK  Name = ZINC45275325
REMARK  9 active torsions:
REMARK  status: ('A' for Active; 'I' for Inactive)
REMARK    1  A    between atoms: C_1  and  C_2
REMARK    2  A    between atoms: C_2  and  C_4
REMARK    3  A    between atoms: C_2  and  O_16
REMARK    4  A    between atoms: N_6  and  C_7
REMARK    5  A    between atoms: O_16  and  C_17
REMARK    6  A    between atoms: C_17  and  C_19
REMARK    7  A    between atoms: C_19  and  N_20
REMARK    8  A    between atoms: N_20  and  S_21
REMARK    9  A    between atoms: S_21  and  C_24
REMARK                            x       y       z     vdW  Elec       q    Type
REMARK                         _______ _______ _______ _____ _____    ______ ____
ROOT
ATOM      1  O   UNL     1       0.671  -0.462  -1.174  0.00  0.00    -0.451 OA
ENDROOT
BRANCH   1   3
ATOM      2  C   UNL     1      -0.004   1.532   0.014  0.00  0.00    +0.062 C 
ATOM      3  C   UNL     1       0.005   0.002   0.002  0.00  0.00    +0.259 C 
BRANCH   3   4
ATOM      4  C   UNL     1       0.730  -0.505   1.223  0.00  0.00    +0.258 C 
ATOM      5  O   UNL     1       1.769  -1.118   1.100  0.00  0.00    -0.271 OA
ATOM      6  N   UNL     1       0.223  -0.277   2.451  0.00  0.00    -0.282 N 
ATOM      7  H   UNL     1      -0.571   0.271   2.553  0.00  0.00    +0.155 HD
BRANCH   6   8
ATOM      8  C   UNL     1       0.844  -0.829   3.578  0.00  0.00    +0.037 A 
ATOM      9  C   UNL     1       0.076  -1.256   4.654  0.00  0.00    +0.027 A 
ATOM     10  C   UNL     1       0.687  -1.802   5.767  0.00  0.00    +0.051 A 
ATOM     11  C   UNL     1       2.066  -1.925   5.813  0.00  0.00    +0.166 A 
ATOM     12  C   UNL     1       2.839  -1.498   4.735  0.00  0.00    +0.168 A 
ATOM     13  C   UNL     1       2.225  -0.956   3.618  0.00  0.00    +0.072 A 
ATOM     14  O   UNL     1       4.153  -1.725   5.024  0.00  0.00    -0.453 OA
ATOM     15  C   UNL     1       4.207  -1.916   6.450  0.00  0.00    +0.466 C 
ATOM     16  O   UNL     1       2.898  -2.419   6.777  0.00  0.00    -0.453 OA
ENDBRANCH   6   8
ENDBRANCH   3   4
ENDBRANCH   1   3
BRANCH   1  17
ATOM     17  C   UNL     1      -0.086  -0.661  -2.264  0.00  0.00    +0.323 C 
ATOM     18  O   UNL     1      -1.274  -0.450  -2.221  0.00  0.00    -0.249 OA
BRANCH  17  19
ATOM     19  C   UNL     1       0.547  -1.150  -3.542  0.00  0.00    +0.226 C 
BRANCH  19  20
ATOM     20  N   UNL     1      -0.482  -1.287  -4.575  0.00  0.00    -0.179 NA
ATOM     21  H   UNL     1      -1.420  -1.286  -4.328  0.00  0.00    +0.149 HD
BRANCH  20  22
ATOM     22  S   UNL     1      -0.044  -1.444  -6.164  0.00  0.00    +0.059 S 
ATOM     23  O   UNL     1      -1.248  -1.582  -6.906  0.00  0.00    -0.153 OA
ATOM     24  O   UNL     1       0.899  -0.415  -6.429  0.00  0.00    -0.153 OA
BRANCH  22  25
ATOM     25  C   UNL     1       0.820  -2.972  -6.318  0.00  0.00    +0.107 A 
ATOM     26  C   UNL     1       2.191  -3.010  -6.144  0.00  0.00    +0.030 A 
ATOM     27  C   UNL     1       2.870  -4.208  -6.265  0.00  0.00    +0.023 A 
ATOM     28  C   UNL     1       2.178  -5.369  -6.560  0.00  0.00    +0.059 A 
ATOM     29  C   UNL     1       0.805  -5.330  -6.734  0.00  0.00    +0.061 A 
ATOM     30  C   UNL     1       0.126  -4.131  -6.608  0.00  0.00    +0.050 A 
ATOM     31 CL   UNL     1      -0.065  -6.786  -7.106  0.00  0.00    -0.082 Cl
ATOM     32 CL   UNL     1       3.031  -6.873  -6.713  0.00  0.00    -0.082 Cl
ENDBRANCH  22  25
ENDBRANCH  20  22
ENDBRANCH  19  20
ENDBRANCH  17  19
ENDBRANCH   1  17
TORSDOF 8
