REMARK  Name = ZINC66877362
REMARK  7 active torsions:
REMARK  status: ('A' for Active; 'I' for Inactive)
REMARK    1  A    between atoms: C_1  and  C_2
REMARK    2  A    between atoms: C_2  and  C_4
REMARK    3  A    between atoms: C_2  and  O_13
REMARK    4  A    between atoms: C_7  and  N_10
REMARK    5  A    between atoms: O_13  and  C_14
REMARK    6  A    between atoms: C_14  and  C_16
REMARK    7  A    between atoms: N_25  and  C_26
REMARK                            x       y       z     vdW  Elec       q    Type
REMARK                         _______ _______ _______ _____ _____    ______ ____
ROOT
ATOM      1  C   UNL     1       3.472  -1.380   2.493  0.00  0.00    +0.115 C 
ATOM      2  C   UNL     1       4.709  -2.027   1.865  0.00  0.00    +0.018 C 
ATOM      3  C   UNL     1       5.282  -3.073   2.824  0.00  0.00    +0.020 C 
ATOM      4  C   UNL     1       4.236  -4.165   3.066  0.00  0.00    +0.109 C 
ATOM      5  N   UNL     1       2.993  -3.535   3.533  0.00  0.00    -0.285 N 
ATOM      6  C   UNL     1       2.405  -2.453   2.732  0.00  0.00    +0.124 C 
ATOM      7  C   UNL     1       2.404  -3.942   4.675  0.00  0.00    +0.306 C 
ATOM      8  O   UNL     1       2.854  -4.891   5.287  0.00  0.00    -0.252 OA
ATOM      9  N   UNL     1       1.316  -3.295   5.139  0.00  0.00    -0.269 N 
ATOM     10  H   UNL     1       0.896  -2.606   4.602  0.00  0.00    +0.156 HD
ENDROOT
BRANCH   9  11
ATOM     11  C   UNL     1       0.793  -3.620   6.396  0.00  0.00    +0.035 A 
ATOM     12  C   UNL     1       1.642  -4.011   7.423  0.00  0.00    +0.023 A 
ATOM     13  C   UNL     1       1.122  -4.330   8.662  0.00  0.00    +0.002 A 
ATOM     14  C   UNL     1      -0.241  -4.260   8.881  0.00  0.00    +0.000 A 
ATOM     15  C   UNL     1      -1.089  -3.870   7.860  0.00  0.00    +0.002 A 
ATOM     16  C   UNL     1      -0.575  -3.544   6.620  0.00  0.00    +0.023 A 
ENDBRANCH   9  11
BRANCH   1  17
ATOM     17  C   UNL     1       2.928  -0.328   1.562  0.00  0.00    +0.312 C 
ATOM     18  O   UNL     1       3.473  -0.115   0.505  0.00  0.00    -0.250 OA
BRANCH  17  19
ATOM     19  O   UNL     1       1.837   0.374   1.907  0.00  0.00    -0.457 OA
BRANCH  19  21
ATOM     20  C   UNL     1       2.048   2.697   1.275  0.00  0.00    +0.057 C 
ATOM     21  C   UNL     1       1.375   1.355   0.976  0.00  0.00    +0.203 C 
BRANCH  21  22
ATOM     22  C   UNL     1      -0.119   1.503   1.101  0.00  0.00    -0.007 A 
ATOM     23  C   UNL     1      -0.713   1.489   2.349  0.00  0.00    +0.009 A 
ATOM     24  C   UNL     1      -2.084   1.625   2.464  0.00  0.00    +0.033 A 
ATOM     25  C   UNL     1      -2.861   1.775   1.331  0.00  0.00    +0.126 A 
ATOM     26  C   UNL     1      -2.267   1.790   0.083  0.00  0.00    +0.033 A 
ATOM     27  C   UNL     1      -0.895   1.659  -0.032  0.00  0.00    +0.009 A 
BRANCH  25  28
ATOM     28  N   UNL     1      -4.329   1.920   1.454  0.00  0.00    +0.056 N 
ATOM     29  O   UNL     1      -4.848   1.906   2.546  0.00  0.00    -0.126 OA
ATOM     30  O   UNL     1      -5.008   2.051   0.463  0.00  0.00    -0.126 OA
ENDBRANCH  25  28
ENDBRANCH  21  22
ENDBRANCH  19  21
ENDBRANCH  17  19
ENDBRANCH   1  17
TORSDOF 6
