REMARK  Name = ZINC59472548
REMARK  4 active torsions:
REMARK  status: ('A' for Active; 'I' for Inactive)
REMARK    1  A    between atoms: C_8  and  S_10
REMARK    2  A    between atoms: S_10  and  C_11
REMARK    3  A    between atoms: C_11  and  C_12
REMARK    4  A    between atoms: C_20  and  N_22
REMARK                            x       y       z     vdW  Elec       q    Type
REMARK                         _______ _______ _______ _____ _____    ______ ____
ROOT
ATOM      1  C   UNL     1       6.412  -4.280  -0.086  0.00  0.00    -0.012 A 
ATOM      2  C   UNL     1       6.893  -4.932   0.985  0.00  0.00    +0.088 A 
ATOM      3  N   UNL     1       7.670  -5.983   0.581  0.00  0.00    -0.360 N 
ATOM      4  H   UNL     1       8.124  -6.600   1.175  0.00  0.00    +0.165 HD
ATOM      5  C   UNL     1       7.709  -6.035  -0.794  0.00  0.00    +0.049 A 
ATOM      6  C   UNL     1       6.918  -4.974  -1.272  0.00  0.00    +0.004 A 
ATOM      7  C   UNL     1       6.768  -4.781  -2.647  0.00  0.00    +0.012 A 
ATOM      8  C   UNL     1       7.389  -5.628  -3.522  0.00  0.00    +0.033 A 
ATOM      9  C   UNL     1       8.167  -6.678  -3.056  0.00  0.00    +0.128 A 
ATOM     10  C   UNL     1       8.335  -6.881  -1.703  0.00  0.00    +0.059 A 
ENDROOT
BRANCH   9  11
ATOM     11  N   UNL     1       8.831  -7.583  -4.021  0.00  0.00    +0.056 N 
ATOM     12  O   UNL     1       8.693  -7.406  -5.209  0.00  0.00    -0.126 OA
ATOM     13  O   UNL     1       9.510  -8.499  -3.621  0.00  0.00    -0.126 OA
ENDBRANCH   9  11
BRANCH   1  14
ATOM     14  C   UNL     1       5.517  -3.068  -0.070  0.00  0.00    +0.116 C 
BRANCH  14  15
ATOM     15  S   UNL     1       3.782  -3.598  -0.055  0.00  0.00    -0.062 S 
BRANCH  15  23
ATOM     16  C   UNL     1      -0.017   1.373   0.010  0.00  0.00    +0.002 A 
ATOM     17  C   UNL     1       1.170   2.091   0.002  0.00  0.00    +0.004 A 
ATOM     18  C   UNL     1       2.384   1.435  -0.013  0.00  0.00    +0.048 A 
ATOM     19  C   UNL     1       2.421   0.051  -0.021  0.00  0.00    +0.156 A 
ATOM     20  C   UNL     1       1.223  -0.680  -0.013  0.00  0.00    +0.110 A 
ATOM     21  C   UNL     1       0.002  -0.004   0.002  0.00  0.00    +0.031 A 
ATOM     22  N   UNL     1       1.569  -1.996  -0.024  0.00  0.00    -0.203 NA
ATOM     23  C   UNL     1       2.875  -2.087  -0.038  0.00  0.00    +0.258 A 
ATOM     24  O   UNL     1       3.423  -0.859  -0.036  0.00  0.00    -0.431 OA
ENDBRANCH  15  23
ENDBRANCH  14  15
ENDBRANCH   1  14
TORSDOF 4
