REMARK  Name = ZINC12387033
REMARK  7 active torsions:
REMARK  status: ('A' for Active; 'I' for Inactive)
REMARK    1  A    between atoms: C_1  and  N_2
REMARK    2  A    between atoms: N_2  and  C_3
REMARK    3  A    between atoms: C_3  and  C_4
REMARK    4  A    between atoms: C_9  and  C_11
REMARK    5  A    between atoms: C_11  and  C_12
REMARK    6  A    between atoms: C_19  and  C_20
REMARK    7  A    between atoms: C_19  and  N_53
REMARK                            x       y       z     vdW  Elec       q    Type
REMARK                         _______ _______ _______ _____ _____    ______ ____
ROOT
ATOM      1  C   UNL     1       6.285   5.357  -1.481  0.00  0.00    +0.028 C 
ATOM      2  C   UNL     1       6.697   5.480  -2.921  0.00  0.00    +0.200 C 
ATOM      3  O   UNL     1       7.259   6.492  -3.281  0.00  0.00    -0.278 OA
ATOM      4  N   UNL     1       6.469   4.519  -3.823  0.00  0.00    -0.318 N 
ATOM      5  C   UNL     1       5.769   3.279  -3.502  0.00  0.00    +0.085 C 
ATOM      6  C   UNL     1       5.761   3.058  -1.988  0.00  0.00    -0.058 C 
ATOM      7  H   UNL     1       6.782   4.652  -4.731  0.00  0.00    +0.149 HD
ATOM      8  N   UNL     1       5.270   4.295  -1.349  0.00  0.00    +0.391 N 
ATOM      9  H   UNL     1       4.407   4.596  -1.817  0.00  0.00    -0.080 HD
ENDROOT
BRANCH   1  10
ATOM     10  C   UNL     1       5.684   6.683  -1.011  0.00  0.00    +0.090 C 
BRANCH  10  13
ATOM     11  C   UNL     1       4.330   9.153  -0.700  0.00  0.00    +0.132 C 
ATOM     12  N   UNL     1       3.831   8.181  -1.675  0.00  0.00    -0.299 N 
ATOM     13  C   UNL     1       4.463   7.001  -1.835  0.00  0.00    +0.215 C 
ATOM     14  O   UNL     1       4.049   6.196  -2.642  0.00  0.00    -0.276 OA
BRANCH  12  15
ATOM     15  C   UNL     1       2.644   8.490  -2.476  0.00  0.00    +0.166 C 
BRANCH  15  16
ATOM     16  C   UNL     1       1.411   8.018  -1.750  0.00  0.00    +0.101 A 
ATOM     17  C   UNL     1       0.581   8.786  -0.901  0.00  0.00    +0.069 A 
ATOM     18  C   UNL     1      -0.379   7.916  -0.506  0.00  0.00    +0.230 A 
ATOM     19  O   UNL     1      -0.093   6.744  -1.091  0.00  0.00    -0.363 OA
ATOM     20  N   UNL     1       0.901   6.820  -1.776  0.00  0.00    -0.082 NA
ENDBRANCH  15  16
ENDBRANCH  12  15
ENDBRANCH  10  13
ENDBRANCH   1  10
BRANCH   8  21
ATOM     21  C   UNL     1       4.980   4.048   0.082  0.00  0.00    -0.042 C 
BRANCH  21  22
ATOM     22  C   UNL     1       3.736   3.204   0.190  0.00  0.00    -0.063 A 
ATOM     23  C   UNL     1       3.848   1.815   0.215  0.00  0.00    +0.002 A 
ATOM     24  C   UNL     1       2.744   1.025   0.311  0.00  0.00    +0.009 A 
ATOM     25  C   UNL     1       1.471   1.615   0.386  0.00  0.00    -0.018 A 
ATOM     26  C   UNL     1       0.308   0.832   0.486  0.00  0.00    +0.008 A 
ATOM     27  C   UNL     1      -0.908   1.438   0.551  0.00  0.00    +0.001 A 
ATOM     28  C   UNL     1      -1.020   2.827   0.532  0.00  0.00    +0.001 A 
ATOM     29  C   UNL     1       0.084   3.617   0.436  0.00  0.00    +0.008 A 
ATOM     30  C   UNL     1       1.357   3.027   0.361  0.00  0.00    -0.018 A 
ATOM     31  C   UNL     1       2.519   3.811   0.260  0.00  0.00    +0.010 A 
ENDBRANCH  21  22
ENDBRANCH   8  21
TORSDOF 6
