REMARK  Name = ZINC32887424
REMARK  6 active torsions:
REMARK  status: ('A' for Active; 'I' for Inactive)
REMARK    1  A    between atoms: C_1  and  C_2
REMARK    2  A    between atoms: C_2  and  C_4
REMARK    3  A    between atoms: C_2  and  N_16
REMARK    4  A    between atoms: N_6  and  C_7
REMARK    5  A    between atoms: C_12  and  N_13
REMARK    6  A    between atoms: C_18  and  C_21
REMARK                            x       y       z     vdW  Elec       q    Type
REMARK                         _______ _______ _______ _____ _____    ______ ____
ROOT
ATOM      1  C   UNL     1      -0.048   1.561   0.025  0.00  0.00    +0.044 C 
ATOM      2  C   UNL     1      -0.009   0.032   0.007  0.00  0.00    +0.213 C 
ENDROOT
BRANCH   2   3
ATOM      3  N   UNL     1       0.704  -0.453   1.191  0.00  0.00    -0.151 N 
ATOM      4  N   UNL     1       1.778  -1.165   1.176  0.00  0.00    -0.130 NA
ATOM      5  C   UNL     1       2.121  -1.404   2.426  0.00  0.00    +0.205 A 
ATOM      6  N   UNL     1       1.204  -0.803   3.198  0.00  0.00    -0.108 NA
ATOM      7  N   UNL     1       0.359  -0.229   2.411  0.00  0.00    -0.045 NA
BRANCH   5   8
ATOM      8  C   UNL     1       3.295  -2.187   2.889  0.00  0.00    +0.023 A 
ATOM      9  C   UNL     1       4.168  -2.751   1.962  0.00  0.00    +0.013 A 
ATOM     10  C   UNL     1       5.258  -3.478   2.398  0.00  0.00    +0.016 A 
ATOM     11  C   UNL     1       5.483  -3.647   3.753  0.00  0.00    +0.018 A 
ATOM     12  C   UNL     1       4.617  -3.089   4.678  0.00  0.00    +0.016 A 
ATOM     13  C   UNL     1       3.529  -2.355   4.252  0.00  0.00    +0.013 A 
ATOM     14 BR   UNL     1       6.977  -4.645   4.343  0.00  0.00    -0.050 Br
ENDBRANCH   5   8
ENDBRANCH   2   3
BRANCH   2  15
ATOM     15  C   UNL     1      -1.416  -0.508   0.011  0.00  0.00    +0.243 C 
ATOM     16  O   UNL     1      -1.787  -1.226   0.916  0.00  0.00    -0.273 OA
ATOM     17  N   UNL     1      -2.262  -0.192  -0.989  0.00  0.00    -0.282 N 
ATOM     18  H   UNL     1      -1.987   0.434  -1.677  0.00  0.00    +0.155 HD
BRANCH  17  19
ATOM     19  C   UNL     1      -3.537  -0.766  -1.034  0.00  0.00    +0.064 A 
ATOM     20  C   UNL     1      -4.226  -1.025   0.144  0.00  0.00    +0.025 A 
ATOM     21  C   UNL     1      -5.484  -1.592   0.095  0.00  0.00    +0.002 A 
ATOM     22  C   UNL     1      -6.058  -1.902  -1.124  0.00  0.00    +0.002 A 
ATOM     23  C   UNL     1      -5.375  -1.647  -2.298  0.00  0.00    +0.034 A 
ATOM     24  C   UNL     1      -4.118  -1.074  -2.257  0.00  0.00    +0.147 A 
BRANCH  24  25
ATOM     25  N   UNL     1      -3.390  -0.794  -3.515  0.00  0.00    +0.058 N 
ATOM     26  O   UNL     1      -3.933  -0.971  -4.580  0.00  0.00    -0.126 OA
ATOM     27  O   UNL     1      -2.252  -0.388  -3.477  0.00  0.00    -0.126 OA
ENDBRANCH  24  25
ENDBRANCH  17  19
ENDBRANCH   2  15
TORSDOF 5
