REMARK  Name = ZINC04582329
REMARK  4 active torsions:
REMARK  status: ('A' for Active; 'I' for Inactive)
REMARK    1  A    between atoms: C_4  and  N_21
REMARK    2  A    between atoms: C_5  and  C_7
REMARK    3  A    between atoms: N_9  and  N_10
REMARK    4  A    between atoms: C_11  and  C_12
REMARK                            x       y       z     vdW  Elec       q    Type
REMARK                         _______ _______ _______ _____ _____    ______ ____
ROOT
ATOM      1  C   UNL     1      -2.875   0.043  -1.216  0.00  0.00    +0.265 C 
ATOM      2  O   UNL     1      -2.603   1.204  -0.983  0.00  0.00    -0.268 OA
ATOM      3  N   UNL     1      -4.006  -0.497  -0.720  0.00  0.00    -0.203 N 
ATOM      4  H   UNL     1      -4.223  -1.424  -0.906  0.00  0.00    +0.178 HD
ENDROOT
BRANCH   1   9
ATOM      5  C   UNL     1      -0.617  -2.746  -2.325  0.00  0.00    +0.001 A 
ATOM      6  C   UNL     1      -0.260  -2.315  -3.591  0.00  0.00    +0.002 A 
ATOM      7  C   UNL     1      -0.754  -1.123  -4.088  0.00  0.00    +0.033 A 
ATOM      8  C   UNL     1      -1.599  -0.349  -3.319  0.00  0.00    +0.138 A 
ATOM      9  C   UNL     1      -1.965  -0.778  -2.042  0.00  0.00    +0.068 A 
ATOM     10  C   UNL     1      -1.466  -1.985  -1.549  0.00  0.00    +0.015 A 
BRANCH   8  11
ATOM     11  N   UNL     1      -2.123   0.929  -3.851  0.00  0.00    +0.057 N 
ATOM     12  O   UNL     1      -1.719   1.357  -4.917  0.00  0.00    -0.126 OA
ATOM     13  O   UNL     1      -2.962   1.552  -3.224  0.00  0.00    -0.126 OA
ENDBRANCH   8  11
ENDBRANCH   1   9
BRANCH   3  14
ATOM     14  N   UNL     1      -4.869   0.281   0.063  0.00  0.00    -0.187 NA
ATOM     15  C   UNL     1      -5.880  -0.272   0.659  0.00  0.00    +0.138 C 
BRANCH  15  16
ATOM     16  C   UNL     1      -5.945  -1.740   0.793  0.00  0.00    -0.005 A 
ATOM     17  C   UNL     1      -7.175  -2.374   0.986  0.00  0.00    +0.010 A 
ATOM     18  C   UNL     1      -7.225  -3.745   1.109  0.00  0.00    +0.004 A 
ATOM     19  C   UNL     1      -6.064  -4.500   1.044  0.00  0.00    -0.044 A 
ATOM     20  C   UNL     1      -4.842  -3.877   0.853  0.00  0.00    -0.044 A 
ATOM     21  C   UNL     1      -4.779  -2.503   0.722  0.00  0.00    +0.013 A 
ATOM     22  C   UNL     1      -3.740  -4.915   0.819  0.00  0.00    +0.036 C 
ATOM     23  C   UNL     1      -4.457  -6.258   0.570  0.00  0.00    +0.009 C 
ATOM     24  C   UNL     1      -5.863  -5.997   1.150  0.00  0.00    +0.036 C 
ENDBRANCH  15  16
ENDBRANCH   3  14
TORSDOF 4
