REMARK  Name = ZINC38659185
REMARK  7 active torsions:
REMARK  status: ('A' for Active; 'I' for Inactive)
REMARK    1  A    between atoms: C_1  and  C_2
REMARK    2  A    between atoms: C_5  and  C_7
REMARK    3  A    between atoms: C_12  and  O_21
REMARK    4  A    between atoms: C_16  and  N_20
REMARK    5  A    between atoms: C_17  and  C_18
REMARK    6  A    between atoms: O_21  and  C_22
REMARK    7  A    between atoms: C_22  and  C_24
REMARK                            x       y       z     vdW  Elec       q    Type
REMARK                         _______ _______ _______ _____ _____    ______ ____
ROOT
ATOM      1  C   UNL     1       1.643  -3.202   0.005  0.00  0.00    +0.134 C 
ATOM      2  C   UNL     1       2.520  -3.170   1.228  0.00  0.00    +0.011 A 
ATOM      3  C   UNL     1       1.984  -2.772   2.440  0.00  0.00    +0.012 A 
ATOM      4  C   UNL     1       2.774  -2.737   3.572  0.00  0.00    +0.047 A 
ATOM      5  C   UNL     1       4.111  -3.102   3.497  0.00  0.00    +0.136 A 
ATOM      6  C   UNL     1       4.651  -3.501   2.285  0.00  0.00    +0.093 A 
ATOM      7  C   UNL     1       3.855  -3.536   1.147  0.00  0.00    +0.138 A 
ATOM      8  O   UNL     1       4.398  -3.929  -0.031  0.00  0.00    -0.441 OA
ATOM      9  C   UNL     1       3.792  -3.612  -1.187  0.00  0.00    +0.199 C 
ATOM     10  C   UNL     1       2.488  -3.257  -1.236  0.00  0.00    +0.101 C 
ENDROOT
BRANCH   1  15
ATOM     11  C   UNL     1       0.282   1.652  -0.147  0.00  0.00    +0.086 C 
ATOM     12  C   UNL     1       0.195   0.148  -0.094  0.00  0.00    +0.102 A 
ATOM     13  C   UNL     1      -0.939  -0.573  -0.055  0.00  0.00    +0.044 A 
ATOM     14  C   UNL     1      -0.558  -1.934  -0.013  0.00  0.00    +0.046 A 
ATOM     15  C   UNL     1       0.787  -1.962  -0.028  0.00  0.00    +0.118 A 
ATOM     16  O   UNL     1       1.237  -0.698  -0.083  0.00  0.00    -0.464 OA
ENDBRANCH   1  15
BRANCH   9  17
ATOM     17  N   UNL     1       4.518  -3.648  -2.352  0.00  0.00    -0.328 N 
ATOM     18  H   UNL     1       5.454  -3.900  -2.332  0.00  0.00    +0.145 HD
ATOM     19  H   UNL     1       4.094  -3.422  -3.194  0.00  0.00    +0.145 HD
ENDBRANCH   9  17
BRANCH  10  20
ATOM     20  C   UNL     1       1.901  -2.928  -2.500  0.00  0.00    +0.101 C 
ATOM     21  N   UNL     1       1.436  -2.667  -3.503  0.00  0.00    -0.191 NA
ENDBRANCH  10  20
BRANCH   5  22
ATOM     22  O   UNL     1       4.889  -3.067   4.610  0.00  0.00    -0.420 OA
BRANCH  22  23
ATOM     23  C   UNL     1       4.648  -3.972   5.581  0.00  0.00    +0.380 C 
ATOM     24  O   UNL     1       3.827  -4.852   5.401  0.00  0.00    -0.241 OA
BRANCH  23  25
ATOM     25  C   UNL     1       5.374  -3.896   6.850  0.00  0.00    +0.212 A 
ATOM     26  C   UNL     1       5.231  -4.748   7.909  0.00  0.00    +0.056 A 
ATOM     27  C   UNL     1       6.115  -4.305   8.905  0.00  0.00    +0.042 A 
ATOM     28  C   UNL     1       6.750  -3.216   8.418  0.00  0.00    +0.196 A 
ATOM     29  O   UNL     1       6.306  -2.977   7.177  0.00  0.00    -0.456 OA
ENDBRANCH  23  25
ENDBRANCH  22  23
ENDBRANCH   5  22
TORSDOF 6
