REMARK  Name = ZINC04016807
REMARK  6 active torsions:
REMARK  status: ('A' for Active; 'I' for Inactive)
REMARK    1  A    between atoms: C_1  and  C_2
REMARK    2  A    between atoms: C_2  and  C_23
REMARK    3  A    between atoms: C_3  and  C_19
REMARK    4  A    between atoms: C_5  and  C_7
REMARK    5  A    between atoms: N_9  and  C_10
REMARK    6  A    between atoms: C_13  and  N_16
REMARK                            x       y       z     vdW  Elec       q    Type
REMARK                         _______ _______ _______ _____ _____    ______ ____
ROOT
ATOM      1  C   UNL     1       0.211  -2.106   1.544  0.00  0.00    +0.221 C 
ATOM      2  O   UNL     1      -0.679  -2.647   0.924  0.00  0.00    -0.275 OA
ATOM      3  N   UNL     1       0.691  -2.673   2.668  0.00  0.00    -0.285 N 
ATOM      4  H   UNL     1       1.454  -2.281   3.122  0.00  0.00    +0.155 HD
ENDROOT
BRANCH   3   5
ATOM      5  C   UNL     1       0.090  -3.828   3.181  0.00  0.00    +0.034 A 
ATOM      6  C   UNL     1       0.859  -4.782   3.835  0.00  0.00    +0.025 A 
ATOM      7  C   UNL     1       0.262  -5.920   4.340  0.00  0.00    +0.034 A 
ATOM      8  C   UNL     1      -1.100  -6.111   4.195  0.00  0.00    +0.126 A 
ATOM      9  C   UNL     1      -1.869  -5.163   3.544  0.00  0.00    +0.034 A 
ATOM     10  C   UNL     1      -1.279  -4.020   3.043  0.00  0.00    +0.025 A 
BRANCH   8  11
ATOM     11  N   UNL     1      -1.737  -7.332   4.737  0.00  0.00    +0.056 N 
ATOM     12  O   UNL     1      -1.066  -8.162   5.306  0.00  0.00    -0.126 OA
ATOM     13  O   UNL     1      -2.927  -7.500   4.612  0.00  0.00    -0.126 OA
ENDBRANCH   8  11
ENDBRANCH   3   5
BRANCH   1  17
ATOM     14  C   UNL     1       0.092   1.318  -0.317  0.00  0.00    +0.012 C 
ATOM     15  C   UNL     1       0.194  -0.206  -0.225  0.00  0.00    -0.016 C 
ATOM     16  C   UNL     1       1.595  -0.822  -0.239  0.00  0.00    +0.033 C 
ATOM     17  C   UNL     1       0.781  -0.799   1.057  0.00  0.00    +0.089 C 
ATOM     18  C   UNL     1      -0.927  -0.985  -0.915  0.00  0.00    +0.012 C 
BRANCH  16  19
ATOM     19  C   UNL     1       1.764  -2.149  -0.931  0.00  0.00    +0.010 C 
ATOM     20  C   UNL     1       2.589  -2.259  -1.947  0.00  0.00    +0.103 C 
ATOM     21 CL   UNL     1       3.483  -0.875  -2.494  0.00  0.00    -0.071 Cl
ATOM     22 CL   UNL     1       2.784  -3.789  -2.745  0.00  0.00    -0.071 Cl
ENDBRANCH  16  19
ENDBRANCH   1  17
TORSDOF 4
