REMARK  Name = ZINC38769177
REMARK  7 active torsions:
REMARK  status: ('A' for Active; 'I' for Inactive)
REMARK    1  A    between atoms: C_1  and  C_2
REMARK    2  A    between atoms: C_2  and  C_3
REMARK    3  A    between atoms: C_2  and  C_4
REMARK    4  A    between atoms: C_6  and  C_10
REMARK    5  A    between atoms: C_10  and  S_11
REMARK    6  A    between atoms: S_11  and  C_12
REMARK    7  A    between atoms: C_16  and  C_18
REMARK                            x       y       z     vdW  Elec       q    Type
REMARK                         _______ _______ _______ _____ _____    ______ ____
ROOT
ATOM      1  C   UNL     1      -3.160  -4.195   3.199  0.00  0.00    +0.185 A 
ATOM      2  N   UNL     1      -2.813  -4.446   4.481  0.00  0.00    -0.253 N 
ATOM      3  H   UNL     1      -2.289  -3.875   5.063  0.00  0.00    +0.191 HD
ATOM      4  N   UNL     1      -3.363  -5.697   4.804  0.00  0.00    -0.152 NA
ATOM      5  C   UNL     1      -3.994  -6.126   3.735  0.00  0.00    +0.183 A 
ATOM      6  N   UNL     1      -3.874  -5.210   2.763  0.00  0.00    -0.201 NA
ENDROOT
BRANCH   5   7
ATOM      7  C   UNL     1      -4.726  -7.412   3.622  0.00  0.00    +0.035 A 
ATOM      8  C   UNL     1      -5.352  -7.758   2.427  0.00  0.00    +0.013 A 
ATOM      9  C   UNL     1      -6.031  -8.956   2.328  0.00  0.00    +0.001 A 
ATOM     10  C   UNL     1      -6.090  -9.812   3.412  0.00  0.00    +0.001 A 
ATOM     11  C   UNL     1      -5.471  -9.475   4.601  0.00  0.00    +0.016 A 
ATOM     12  C   UNL     1      -4.784  -8.281   4.711  0.00  0.00    +0.029 A 
ATOM     13 BR   UNL     1      -3.931  -7.824   6.335  0.00  0.00    -0.050 Br
ENDBRANCH   5   7
BRANCH   1  14
ATOM     14  S   UNL     1      -2.735  -2.756   2.275  0.00  0.00    -0.082 S 
BRANCH  14  15
ATOM     15  C   UNL     1      -3.502  -3.033   0.654  0.00  0.00    +0.134 C 
BRANCH  15  18
ATOM     16  C   UNL     1      -1.412  -0.526   0.013  0.00  0.00    +0.105 C 
ATOM     17  N   UNL     1      -1.758  -1.682  -0.436  0.00  0.00    -0.346 N 
ATOM     18  C   UNL     1      -3.207  -1.842  -0.260  0.00  0.00    +0.253 C 
ATOM     19  O   UNL     1      -3.650  -0.620   0.352  0.00  0.00    -0.247 OA
ATOM     20  N   UNL     1      -2.479   0.167   0.504  0.00  0.00    -0.252 N 
ATOM     21  H   UNL     1      -2.444   1.055   0.893  0.00  0.00    +0.195 HD
ATOM     22  H   UNL     1      -1.161  -2.338  -0.827  0.00  0.00    +0.163 HD
BRANCH  16  24
ATOM     23  C   UNL     1      -0.019   1.526   0.010  0.00  0.00    +0.015 C 
ATOM     24  C   UNL     1       0.002  -0.004   0.002  0.00  0.00    +0.048 C 
ATOM     25  C   UNL     1       0.742  -0.511   1.242  0.00  0.00    +0.015 C 
ENDBRANCH  16  24
ENDBRANCH  15  18
ENDBRANCH  14  15
ENDBRANCH   1  14
TORSDOF 5
