REMARK  Name = ZINC20142989
REMARK  9 active torsions:
REMARK  status: ('A' for Active; 'I' for Inactive)
REMARK    1  A    between atoms: C_1  and  O_2
REMARK    2  A    between atoms: O_2  and  C_3
REMARK    3  A    between atoms: C_6  and  N_16
REMARK    4  A    between atoms: C_8  and  C_9
REMARK    5  A    between atoms: C_12  and  C_14
REMARK    6  A    between atoms: C_14  and  O_15
REMARK    7  A    between atoms: C_17  and  C_19
REMARK    8  A    between atoms: C_21  and  N_30
REMARK    9  A    between atoms: C_24  and  N_25
REMARK                            x       y       z     vdW  Elec       q    Type
REMARK                         _______ _______ _______ _____ _____    ______ ____
ROOT
ATOM      1  N   UNL     1       2.465  -2.450  -4.314  0.00  0.00    -0.281 N 
ATOM      2  C   UNL     1       2.923  -1.699  -5.335  0.00  0.00    +0.250 C 
ATOM      3  O   UNL     1       2.877  -0.485  -5.266  0.00  0.00    -0.270 OA
ATOM      4  H   UNL     1       2.563  -3.415  -4.339  0.00  0.00    +0.155 HD
ENDROOT
BRANCH   1   8
ATOM      5  C   UNL     1       0.612  -0.638  -1.035  0.00  0.00    +0.131 A 
ATOM      6  C   UNL     1       0.178  -1.873  -1.487  0.00  0.00    +0.048 A 
ATOM      7  C   UNL     1       0.792  -2.471  -2.571  0.00  0.00    +0.027 A 
ATOM      8  C   UNL     1       1.848  -1.837  -3.216  0.00  0.00    +0.035 A 
ATOM      9  C   UNL     1       2.292  -0.602  -2.773  0.00  0.00    +0.038 A 
ATOM     10  C   UNL     1       1.672   0.009  -1.683  0.00  0.00    +0.061 A 
BRANCH  10  11
ATOM     11  C   UNL     1       2.135   1.329  -1.209  0.00  0.00    +0.139 A 
ATOM     12  C   UNL     1       3.424   1.677  -0.951  0.00  0.00    +0.050 A 
ATOM     13  C   UNL     1       3.405   3.021  -0.526  0.00  0.00    +0.047 A 
ATOM     14  C   UNL     1       2.119   3.422  -0.545  0.00  0.00    +0.131 A 
ATOM     15  O   UNL     1       1.356   2.400  -0.965  0.00  0.00    -0.457 OA
BRANCH  14  16
ATOM     16  C   UNL     1       1.621   4.793  -0.166  0.00  0.00    +0.230 C 
BRANCH  16  17
ATOM     17  O   UNL     1       1.611   5.633  -1.321  0.00  0.00    -0.387 OA
ATOM     18  H   UNL     1       1.300   6.533  -1.151  0.00  0.00    +0.210 HD
ENDBRANCH  16  17
ENDBRANCH  14  16
ENDBRANCH  10  11
BRANCH   5  20
ATOM     19  C   UNL     1      -1.067  -0.769   0.643  0.00  0.00    +0.277 C 
ATOM     20  O   UNL     1       0.007  -0.052   0.032  0.00  0.00    -0.494 OA
ENDBRANCH   5  20
ENDBRANCH   1   8
BRANCH   2  21
ATOM     21  C   UNL     1       3.480  -2.348  -6.535  0.00  0.00    +0.060 A 
ATOM     22  C   UNL     1       3.530  -3.742  -6.622  0.00  0.00    +0.047 A 
ATOM     23  C   UNL     1       4.051  -4.342  -7.747  0.00  0.00    +0.127 A 
ATOM     24  C   UNL     1       4.528  -3.571  -8.795  0.00  0.00    +0.034 A 
ATOM     25  C   UNL     1       4.486  -2.194  -8.725  0.00  0.00    +0.026 A 
ATOM     26  C   UNL     1       3.958  -1.570  -7.601  0.00  0.00    +0.042 A 
BRANCH  26  27
ATOM     27  N   UNL     1       3.909  -0.184  -7.531  0.00  0.00    -0.329 N 
ATOM     28  C   UNL     1       4.967   0.685  -6.996  0.00  0.00    +0.105 C 
ATOM     29  C   UNL     1       4.461   2.140  -7.098  0.00  0.00    +0.020 C 
ATOM     30  C   UNL     1       2.920   1.968  -7.161  0.00  0.00    +0.020 C 
ATOM     31  C   UNL     1       2.789   0.660  -7.986  0.00  0.00    +0.105 C 
ENDBRANCH  26  27
BRANCH  23  32
ATOM     32  N   UNL     1       4.103  -5.819  -7.836  0.00  0.00    +0.056 N 
ATOM     33  O   UNL     1       3.688  -6.495  -6.923  0.00  0.00    -0.126 OA
ATOM     34  O   UNL     1       4.560  -6.349  -8.821  0.00  0.00    -0.126 OA
ENDBRANCH  23  32
ENDBRANCH   2  21
TORSDOF 8
