REMARK  Name = ZINC35000138
REMARK  10 active torsions:
REMARK  status: ('A' for Active; 'I' for Inactive)
REMARK    1  A    between atoms: C_1  and  C_2
REMARK    2  A    between atoms: C_7  and  N_8
REMARK    3  A    between atoms: N_11  and  C_12
REMARK    4  A    between atoms: C_12  and  C_14
REMARK    5  A    between atoms: C_12  and  C_25
REMARK    6  A    between atoms: C_14  and  C_15
REMARK    7  A    between atoms: C_31  and  C_34
REMARK    8  A    between atoms: N_37  and  C_38
REMARK    9  A    between atoms: C_38  and  C_39
REMARK   10  A    between atoms: C_38  and  C_40
REMARK                            x       y       z     vdW  Elec       q    Type
REMARK                         _______ _______ _______ _____ _____    ______ ____
ROOT
ATOM      1  C   UNL     1      -0.550  -0.269   5.955  0.00  0.00    +0.165 C 
ENDROOT
BRANCH   1   2
ATOM      2  C   UNL     1      -0.161   0.656   7.080  0.00  0.00    +0.236 C 
ATOM      3  O   UNL     1      -0.221   1.857   6.926  0.00  0.00    -0.274 OA
ATOM      4  N   UNL     1       0.255   0.147   8.257  0.00  0.00    -0.297 N 
ATOM      5  C   UNL     1       0.439  -1.301   8.423  0.00  0.00    +0.127 C 
ATOM      6  C   UNL     1      -0.398  -1.768   9.620  0.00  0.00    +0.128 C 
ATOM      7  N   UNL     1      -0.120  -0.883  10.760  0.00  0.00    -0.280 N 
ATOM      8  C   UNL     1      -0.305   0.565  10.595  0.00  0.00    +0.092 C 
ATOM      9  C   UNL     1       0.538   1.032   9.396  0.00  0.00    +0.130 C 
ATOM     10  C   UNL     1       0.156   1.290  11.861  0.00  0.00    +0.030 C 
ATOM     11  C   UNL     1       0.295  -1.391  11.937  0.00  0.00    +0.303 C 
ATOM     12  O   UNL     1       0.424  -0.663  12.902  0.00  0.00    -0.253 OA
ATOM     13  N   UNL     1       0.568  -2.707  12.045  0.00  0.00    -0.297 N 
ATOM     14  H   UNL     1       0.535  -3.275  11.259  0.00  0.00    +0.150 HD
BRANCH  13  15
ATOM     15  C   UNL     1       0.914  -3.279  13.348  0.00  0.00    +0.068 C 
ATOM     16  C   UNL     1       0.573  -4.771  13.357  0.00  0.00    +0.027 C 
ATOM     17  C   UNL     1       2.412  -3.098  13.603  0.00  0.00    +0.027 C 
ENDBRANCH  13  15
ENDBRANCH   1   2
BRANCH   1  21
ATOM     18  N   UNL     1      -0.386   0.508   2.365  0.00  0.00    -0.269 N 
ATOM     19  C   UNL     1      -0.377  -0.176   3.527  0.00  0.00    +0.304 C 
ATOM     20  O   UNL     1      -0.205  -1.380   3.522  0.00  0.00    -0.252 OA
ATOM     21  N   UNL     1      -0.560   0.474   4.693  0.00  0.00    -0.288 N 
ATOM     22  H   UNL     1      -0.451   1.476   2.373  0.00  0.00    +0.156 HD
ATOM     23  H   UNL     1      -0.697   1.435   4.697  0.00  0.00    +0.151 HD
BRANCH  18  30
ATOM     24  C   UNL     1      -1.782   1.567   0.124  0.00  0.00    +0.045 C 
ATOM     25  C   UNL     1      -0.966   0.304   0.030  0.00  0.00    -0.029 A 
ATOM     26  C   UNL     1      -0.875  -0.373  -1.171  0.00  0.00    +0.005 A 
ATOM     27  C   UNL     1      -0.127  -1.532  -1.258  0.00  0.00    +0.000 A 
ATOM     28  C   UNL     1       0.532  -2.019  -0.144  0.00  0.00    +0.002 A 
ATOM     29  C   UNL     1       0.445  -1.347   1.059  0.00  0.00    +0.023 A 
ATOM     30  C   UNL     1      -0.300  -0.178   1.149  0.00  0.00    +0.038 A 
ENDBRANCH  18  30
ENDBRANCH   1  21
BRANCH   1  31
ATOM     31  C   UNL     1      -1.946  -0.837   6.223  0.00  0.00    +0.069 C 
BRANCH  31  32
ATOM     32  C   UNL     1      -2.305  -1.819   5.137  0.00  0.00    -0.020 A 
ATOM     33  C   UNL     1      -3.008  -1.556   4.024  0.00  0.00    +0.087 A 
ATOM     34  N   UNL     1      -3.135  -2.693   3.273  0.00  0.00    -0.360 N 
ATOM     35  H   UNL     1      -3.603  -2.751   2.425  0.00  0.00    +0.165 HD
ATOM     36  C   UNL     1      -2.501  -3.741   3.901  0.00  0.00    +0.047 A 
ATOM     37  C   UNL     1      -1.947  -3.238   5.092  0.00  0.00    +0.003 A 
ATOM     38  C   UNL     1      -1.232  -4.086   5.940  0.00  0.00    +0.010 A 
ATOM     39  C   UNL     1      -1.070  -5.401   5.605  0.00  0.00    +0.001 A 
ATOM     40  C   UNL     1      -1.610  -5.901   4.429  0.00  0.00    +0.002 A 
ATOM     41  C   UNL     1      -2.328  -5.084   3.582  0.00  0.00    +0.026 A 
ENDBRANCH  31  32
ENDBRANCH   1  31
TORSDOF 6
