REMARK  Name = ZINC20492215
REMARK  7 active torsions:
REMARK  status: ('A' for Active; 'I' for Inactive)
REMARK    1  A    between atoms: C_1  and  O_2
REMARK    2  A    between atoms: O_2  and  C_3
REMARK    3  A    between atoms: C_3  and  C_5
REMARK    4  A    between atoms: C_8  and  C_11
REMARK    5  A    between atoms: C_13  and  C_30
REMARK    6  A    between atoms: C_15  and  C_21
REMARK    7  A    between atoms: C_24  and  N_27
REMARK                            x       y       z     vdW  Elec       q    Type
REMARK                         _______ _______ _______ _____ _____    ______ ____
ROOT
ATOM      1  C   UNL     1      -2.018  -6.848  -1.775  0.00  0.00    +0.074 A 
ATOM      2  C   UNL     1      -1.897  -7.415  -3.054  0.00  0.00    +0.044 A 
ATOM      3  C   UNL     1      -0.743  -8.103  -3.401  0.00  0.00    +0.078 A 
ATOM      4  C   UNL     1       0.309  -8.202  -2.389  0.00  0.00    +0.060 A 
ATOM      5  C   UNL     1       1.570  -8.782  -2.333  0.00  0.00    +0.076 A 
ATOM      6  N   UNL     1       2.077  -8.536  -1.106  0.00  0.00    -0.274 N 
ATOM      7  H   UNL     1       2.948  -8.827  -0.794  0.00  0.00    +0.189 HD
ATOM      8  N   UNL     1       1.158  -7.797  -0.352  0.00  0.00    -0.153 NA
ATOM      9  C   UNL     1       0.076  -7.570  -1.080  0.00  0.00    +0.183 A 
ATOM     10  N   UNL     1      -1.077  -6.928  -0.862  0.00  0.00    -0.226 NA
ENDROOT
BRANCH   1  14
ATOM     11  C   UNL     1      -5.598  -4.757  -0.817  0.00  0.00    +0.059 A 
ATOM     12  C   UNL     1      -4.576  -4.862   0.130  0.00  0.00    +0.015 A 
ATOM     13  C   UNL     1      -3.418  -5.539  -0.182  0.00  0.00    +0.011 A 
ATOM     14  C   UNL     1      -3.265  -6.120  -1.441  0.00  0.00    +0.000 A 
ATOM     15  C   UNL     1      -4.286  -6.015  -2.387  0.00  0.00    +0.011 A 
ATOM     16  C   UNL     1      -5.447  -5.343  -2.076  0.00  0.00    +0.015 A 
BRANCH  11  17
ATOM     17  C   UNL     1      -6.840  -4.031  -0.484  0.00  0.00    +0.339 C 
ATOM     18  O   UNL     1      -7.731  -3.944  -1.306  0.00  0.00    -0.245 OA
BRANCH  17  20
ATOM     19  C   UNL     1      -8.213  -2.779   0.983  0.00  0.00    +0.280 C 
ATOM     20  O   UNL     1      -6.986  -3.465   0.730  0.00  0.00    -0.464 OA
ENDBRANCH  17  20
ENDBRANCH  11  17
ENDBRANCH   1  14
BRANCH   5  21
ATOM     21  C   UNL     1       2.235  -9.532  -3.417  0.00  0.00    +0.001 A 
ATOM     22  C   UNL     1       2.303  -8.992  -4.704  0.00  0.00    +0.012 A 
ATOM     23  C   UNL     1       2.925  -9.698  -5.712  0.00  0.00    +0.033 A 
ATOM     24  C   UNL     1       3.481 -10.938  -5.452  0.00  0.00    +0.126 A 
ATOM     25  C   UNL     1       3.417 -11.479  -4.180  0.00  0.00    +0.033 A 
ATOM     26  C   UNL     1       2.803 -10.781  -3.160  0.00  0.00    +0.012 A 
BRANCH  24  27
ATOM     27  N   UNL     1       4.146 -11.691  -6.540  0.00  0.00    +0.056 N 
ATOM     28  O   UNL     1       4.204 -11.221  -7.652  0.00  0.00    -0.126 OA
ATOM     29  O   UNL     1       4.633 -12.774  -6.315  0.00  0.00    -0.126 OA
ENDBRANCH  24  27
ENDBRANCH   5  21
BRANCH   3  30
ATOM     30  C   UNL     1      -0.584  -8.711  -4.737  0.00  0.00    +0.387 C 
ATOM     31  O   UNL     1      -0.407  -8.000  -5.716  0.00  0.00    -0.241 OA
ATOM     32  O   UNL     1      -0.629  -9.927  -4.865  0.00  0.00    -0.241 OA
ENDBRANCH   3  30
TORSDOF 6
