REMARK  Name = ZINC06409680
REMARK  11 active torsions:
REMARK  status: ('A' for Active; 'I' for Inactive)
REMARK    1  A    between atoms: C_1  and  C_2
REMARK    2  A    between atoms: C_7  and  C_14
REMARK    3  A    between atoms: C_14  and  N_65
REMARK    4  A    between atoms: C_15  and  C_16
REMARK    5  A    between atoms: C_15  and  N_65
REMARK    6  A    between atoms: C_19  and  O_22
REMARK    7  A    between atoms: O_22  and  C_23
REMARK    8  A    between atoms: C_24  and  C_25
REMARK    9  A    between atoms: C_24  and  N_65
REMARK   10  A    between atoms: N_29  and  C_30
REMARK   11  A    between atoms: C_30  and  C_31
REMARK                            x       y       z     vdW  Elec       q    Type
REMARK                         _______ _______ _______ _____ _____    ______ ____
ROOT
ATOM      1  N   UNL     1       1.872   1.696  -0.304  0.00  0.00    +0.390 N 
ATOM      2  H   UNL     1       2.285   1.310  -1.161  0.00  0.00    -0.080 HD
ENDROOT
BRANCH   1   3
ATOM      3  C   UNL     1       2.743   1.360   0.842  0.00  0.00    -0.036 C 
BRANCH   3  10
ATOM      4  C   UNL     1       6.125  -5.743  -0.473  0.00  0.00    +0.044 C 
ATOM      5  C   UNL     1       5.675  -4.312  -0.330  0.00  0.00    -0.048 A 
ATOM      6  C   UNL     1       6.473  -3.288  -0.822  0.00  0.00    +0.004 A 
ATOM      7  C   UNL     1       6.083  -1.984  -0.704  0.00  0.00    +0.010 A 
ATOM      8  C   UNL     1       4.869  -1.678  -0.081  0.00  0.00    -0.001 A 
ATOM      9  C   UNL     1       4.420  -0.292   0.064  0.00  0.00    +0.017 A 
ATOM     10  C   UNL     1       3.234  -0.055   0.676  0.00  0.00    +0.001 A 
ATOM     11  C   UNL     1       2.460  -1.130   1.165  0.00  0.00    +0.251 A 
ATOM     12  O   UNL     1       1.399  -0.894   1.717  0.00  0.00    -0.268 OA
ATOM     13  N   UNL     1       2.860  -2.406   1.032  0.00  0.00    -0.322 N 
ATOM     14  H   UNL     1       2.302  -3.121   1.376  0.00  0.00    +0.169 HD
ATOM     15  C   UNL     1       4.057  -2.713   0.419  0.00  0.00    +0.049 A 
ATOM     16  C   UNL     1       4.475  -4.034   0.287  0.00  0.00    +0.029 A 
ENDBRANCH   3  10
ENDBRANCH   1   3
BRANCH   1  17
ATOM     17  C   UNL     1       1.762   3.163  -0.442  0.00  0.00    -0.042 C 
BRANCH  17  18
ATOM     18  C   UNL     1       1.371   3.485  -1.861  0.00  0.00    -0.064 A 
ATOM     19  C   UNL     1       2.281   3.306  -2.886  0.00  0.00    +0.005 A 
ATOM     20  C   UNL     1       1.924   3.596  -4.188  0.00  0.00    +0.046 A 
ATOM     21  C   UNL     1       0.652   4.077  -4.466  0.00  0.00    +0.120 A 
ATOM     22  C   UNL     1      -0.258   4.261  -3.436  0.00  0.00    +0.046 A 
ATOM     23  C   UNL     1       0.103   3.965  -2.136  0.00  0.00    +0.005 A 
BRANCH  21  24
ATOM     24  O   UNL     1       0.300   4.367  -5.746  0.00  0.00    -0.495 OA
ATOM     25  C   UNL     1       1.288   4.154  -6.756  0.00  0.00    +0.277 C 
ENDBRANCH  21  24
ENDBRANCH  17  18
ENDBRANCH   1  17
BRANCH   1  26
ATOM     26  C   UNL     1       0.531   1.104  -0.110  0.00  0.00    +0.001 C 
BRANCH  26  27
ATOM     27  C   UNL     1      -0.169   1.048  -1.443  0.00  0.00    +0.135 A 
ATOM     28  N   UNL     1      -1.053   1.902  -1.899  0.00  0.00    -0.115 NA
ATOM     29  N   UNL     1      -1.415   1.511  -3.072  0.00  0.00    -0.023 NA
ATOM     30  N   UNL     1      -0.791   0.426  -3.373  0.00  0.00    -0.044 NA
ATOM     31  N   UNL     1      -0.014   0.108  -2.393  0.00  0.00    -0.229 N 
BRANCH  31  32
ATOM     32  C   UNL     1       0.871  -1.058  -2.328  0.00  0.00    +0.178 C 
BRANCH  32  33
ATOM     33  C   UNL     1       0.078  -2.274  -1.845  0.00  0.00    +0.140 C 
ATOM     34  C   UNL     1       1.026  -3.478  -1.663  0.00  0.00    +0.035 C 
ATOM     35  C   UNL     1       0.164  -4.659  -2.188  0.00  0.00    +0.031 C 
ATOM     36  C   UNL     1      -0.634  -3.961  -3.318  0.00  0.00    +0.160 C 
ATOM     37  O   UNL     1      -0.900  -2.637  -2.826  0.00  0.00    -0.375 OA
ENDBRANCH  32  33
ENDBRANCH  31  32
ENDBRANCH  26  27
ENDBRANCH   1  26
TORSDOF 9
