REMARK  Name = ZINC09713780
REMARK  12 active torsions:
REMARK  status: ('A' for Active; 'I' for Inactive)
REMARK    1  A    between atoms: C_1  and  C_2
REMARK    2  A    between atoms: C_2  and  C_4
REMARK    3  A    between atoms: C_2  and  N_33
REMARK    4  A    between atoms: C_7  and  S_16
REMARK    5  A    between atoms: N_8  and  C_9
REMARK    6  A    between atoms: S_16  and  C_17
REMARK    7  A    between atoms: C_17  and  C_18
REMARK    8  A    between atoms: C_18  and  C_20
REMARK    9  A    between atoms: C_21  and  N_32
REMARK   10  A    between atoms: N_22  and  C_29
REMARK   11  A    between atoms: N_33  and  C_34
REMARK   12  A    between atoms: N_33  and  C_35
REMARK                            x       y       z     vdW  Elec       q    Type
REMARK                         _______ _______ _______ _____ _____    ______ ____
ROOT
ATOM      1  S   UNL     1       3.229  -3.578   3.196  0.00  0.00    -0.078 S 
ENDROOT
BRANCH   1   5
ATOM      2  C   UNL     1      -0.125  -3.410   1.205  0.00  0.00    +0.125 A 
ATOM      3  N   UNL     1      -0.518  -3.258   2.438  0.00  0.00    -0.135 NA
ATOM      4  N   UNL     1       0.491  -3.291   3.233  0.00  0.00    -0.122 NA
ATOM      5  C   UNL     1       1.596  -3.468   2.545  0.00  0.00    +0.196 A 
ATOM      6  N   UNL     1       1.237  -3.555   1.228  0.00  0.00    -0.275 N 
BRANCH   6   7
ATOM      7  C   UNL     1       2.087  -3.750   0.129  0.00  0.00    +0.050 A 
ATOM      8  C   UNL     1       1.987  -4.908  -0.630  0.00  0.00    +0.029 A 
ATOM      9  C   UNL     1       2.825  -5.098  -1.712  0.00  0.00    +0.040 A 
ATOM     10  C   UNL     1       3.765  -4.135  -2.039  0.00  0.00    +0.124 A 
ATOM     11  C   UNL     1       3.866  -2.979  -1.282  0.00  0.00    +0.040 A 
ATOM     12  C   UNL     1       3.026  -2.783  -0.204  0.00  0.00    +0.029 A 
ATOM     13  F   UNL     1       4.584  -4.323  -3.096  0.00  0.00    -0.205 F 
ENDBRANCH   6   7
BRANCH   2  15
ATOM     14  C   UNL     1      -1.454  -2.003  -0.345  0.00  0.00    -0.005 C 
ATOM     15  C   UNL     1      -1.005  -3.429  -0.018  0.00  0.00    -0.003 C 
BRANCH  15  16
ATOM     16  N   UNL     1      -2.184  -4.266   0.241  0.00  0.00    +0.382 N 
ATOM     17  C   UNL     1      -3.042  -4.285  -0.952  0.00  0.00    -0.096 C 
ATOM     18  C   UNL     1      -1.753  -5.635   0.555  0.00  0.00    -0.096 C 
ATOM     19  H   UNL     1      -2.700  -3.889   1.021  0.00  0.00    -0.082 HD
ENDBRANCH  15  16
ENDBRANCH   2  15
ENDBRANCH   1   5
BRANCH   1  20
ATOM     20  C   UNL     1       3.002  -3.393   4.986  0.00  0.00    +0.157 C 
BRANCH  20  21
ATOM     21  C   UNL     1       4.341  -3.470   5.673  0.00  0.00    +0.182 C 
ATOM     22  O   UNL     1       5.351  -3.633   5.019  0.00  0.00    -0.291 OA
BRANCH  21  23
ATOM     23  C   UNL     1       4.421  -3.352   7.077  0.00  0.00    +0.120 A 
ATOM     24  C   UNL     1       5.637  -3.554   7.754  0.00  0.00    +0.116 A 
ATOM     25  N   UNL     1       5.665  -3.428   9.114  0.00  0.00    -0.278 N 
ATOM     26  C   UNL     1       4.559  -3.117   9.808  0.00  0.00    +0.331 A 
ATOM     27  O   UNL     1       4.636  -3.016  11.017  0.00  0.00    -0.246 OA
ATOM     28  N   UNL     1       3.371  -2.913   9.217  0.00  0.00    -0.274 N 
ATOM     29  H   UNL     1       2.598  -2.690   9.760  0.00  0.00    +0.173 HD
ATOM     30  C   UNL     1       3.239  -3.007   7.878  0.00  0.00    +0.266 A 
ATOM     31  O   UNL     1       2.162  -2.816   7.345  0.00  0.00    -0.267 OA
BRANCH  25  32
ATOM     32  C   UNL     1       6.927  -3.636   9.828  0.00  0.00    +0.094 C 
ATOM     33  C   UNL     1       7.328  -2.593  10.873  0.00  0.00    +0.027 C 
ATOM     34  C   UNL     1       8.072  -2.664   9.538  0.00  0.00    +0.027 C 
ENDBRANCH  25  32
BRANCH  24  35
ATOM     35  N   UNL     1       6.767  -3.870   7.066  0.00  0.00    -0.344 N 
ATOM     36  H   UNL     1       6.870  -3.583   6.145  0.00  0.00    +0.144 HD
ATOM     37  H   UNL     1       7.469  -4.382   7.496  0.00  0.00    +0.144 HD
ENDBRANCH  24  35
ENDBRANCH  21  23
ENDBRANCH  20  21
ENDBRANCH   1  20
TORSDOF 9
