REMARK  Name = ZINC13629847
REMARK  8 active torsions:
REMARK  status: ('A' for Active; 'I' for Inactive)
REMARK    1  A    between atoms: C_4  and  C_7
REMARK    2  A    between atoms: C_10  and  O_14
REMARK    3  A    between atoms: O_14  and  C_15
REMARK    4  A    between atoms: C_15  and  C_16
REMARK    5  A    between atoms: N_18  and  N_19
REMARK    6  A    between atoms: C_20  and  C_22
REMARK    7  A    between atoms: N_27  and  C_29
REMARK    8  A    between atoms: C_29  and  C_30
REMARK                            x       y       z     vdW  Elec       q    Type
REMARK                         _______ _______ _______ _____ _____    ______ ____
ROOT
ATOM      1  C   UNL     1      -3.770   5.784   0.065  0.00  0.00    +0.267 C 
ATOM      2  O   UNL     1      -4.720   5.031   0.070  0.00  0.00    -0.271 OA
ATOM      3  N   UNL     1      -3.966   7.117   0.073  0.00  0.00    -0.232 N 
ATOM      4  H   UNL     1      -3.206   7.720   0.069  0.00  0.00    +0.173 HD
ENDROOT
BRANCH   3   5
ATOM      5  N   UNL     1      -5.268   7.634   0.088  0.00  0.00    -0.234 N 
ATOM      6  C   UNL     1      -5.465   8.967   0.096  0.00  0.00    +0.234 C 
ATOM      7  O   UNL     1      -4.514   9.720   0.091  0.00  0.00    -0.274 OA
ATOM      8  H   UNL     1      -6.029   7.031   0.092  0.00  0.00    +0.173 HD
BRANCH   6   9
ATOM      9  C   UNL     1      -6.866   9.522   0.111  0.00  0.00    +0.102 C 
ATOM     10  C   UNL     1      -7.623   9.079   1.385  0.00  0.00    +0.110 C 
ATOM     11  C   UNL     1      -8.460  10.283   1.757  0.00  0.00    +0.217 C 
ATOM     12  O   UNL     1      -9.400  10.265   2.522  0.00  0.00    -0.276 OA
ATOM     13  N   UNL     1      -8.008  11.375   1.117  0.00  0.00    -0.293 N 
ATOM     14  C   UNL     1      -6.850  11.058   0.273  0.00  0.00    +0.121 C 
BRANCH  13  15
ATOM     15  C   UNL     1      -8.598  12.710   1.244  0.00  0.00    +0.182 C 
BRANCH  15  16
ATOM     16  C   UNL     1      -7.931  13.447   2.377  0.00  0.00    +0.122 A 
ATOM     17  C   UNL     1      -6.837  14.222   2.276  0.00  0.00    +0.046 A 
ATOM     18  C   UNL     1      -6.561  14.714   3.572  0.00  0.00    +0.041 A 
ATOM     19  C   UNL     1      -7.499  14.204   4.390  0.00  0.00    +0.195 A 
ATOM     20  O   UNL     1      -8.327  13.437   3.661  0.00  0.00    -0.466 OA
ENDBRANCH  15  16
ENDBRANCH  13  15
ENDBRANCH   6   9
ENDBRANCH   3   5
BRANCH   1  21
ATOM     21  C   UNL     1      -2.369   5.229   0.050  0.00  0.00    +0.326 C 
BRANCH  21  22
ATOM     22  O   UNL     1      -2.422   3.801   0.044  0.00  0.00    -0.482 OA
BRANCH  22  26
ATOM     23  C   UNL     1       1.184   1.790   0.000  0.00  0.00    -0.017 A 
ATOM     24  C   UNL     1       1.161   3.183   0.008  0.00  0.00    +0.012 A 
ATOM     25  C   UNL     1      -0.045   3.852   0.022  0.00  0.00    +0.047 A 
ATOM     26  C   UNL     1      -1.236   3.139   0.030  0.00  0.00    +0.135 A 
ATOM     27  C   UNL     1      -1.216   1.750   0.017  0.00  0.00    +0.060 A 
ATOM     28  C   UNL     1      -0.013   1.076   0.008  0.00  0.00    +0.027 A 
ATOM     29 BR   UNL     1      -2.841   0.783   0.020  0.00  0.00    -0.046 Br
BRANCH  23  33
ATOM     30  C   UNL     1       4.899  -0.280  -0.043  0.00  0.00    +0.000 A 
ATOM     31  C   UNL     1       4.880   1.104  -0.037  0.00  0.00    +0.001 A 
ATOM     32  C   UNL     1       3.678   1.780  -0.022  0.00  0.00    +0.008 A 
ATOM     33  C   UNL     1       2.480   1.068  -0.015  0.00  0.00    -0.018 A 
ATOM     34  C   UNL     1       2.505  -0.326  -0.016  0.00  0.00    +0.008 A 
ATOM     35  C   UNL     1       3.713  -0.992  -0.036  0.00  0.00    +0.001 A 
ENDBRANCH  23  33
ENDBRANCH  22  26
ENDBRANCH  21  22
ENDBRANCH   1  21
TORSDOF 8
