REMARK  Name = ZINC36719324
REMARK  11 active torsions:
REMARK  status: ('A' for Active; 'I' for Inactive)
REMARK    1  A    between atoms: C_1  and  C_2
REMARK    2  A    between atoms: C_2  and  C_4
REMARK    3  A    between atoms: C_2  and  N_21
REMARK    4  A    between atoms: N_6  and  C_7
REMARK    5  A    between atoms: C_7  and  C_8
REMARK    6  A    between atoms: C_8  and  C_9
REMARK    7  A    between atoms: C_9  and  N_10
REMARK    8  A    between atoms: C_22  and  C_24
REMARK    9  A    between atoms: C_25  and  C_26
REMARK   10  A    between atoms: C_29  and  O_32
REMARK   11  A    between atoms: O_32  and  C_33
REMARK                            x       y       z     vdW  Elec       q    Type
REMARK                         _______ _______ _______ _____ _____    ______ ____
ROOT
ATOM      1  C   UNL     1       0.731  -0.503   1.223  0.00  0.00    +0.233 C 
ATOM      2  O   UNL     1       0.159  -1.213   2.023  0.00  0.00    -0.274 OA
ATOM      3  N   UNL     1       2.019  -0.161   1.426  0.00  0.00    -0.314 N 
ATOM      4  H   UNL     1       2.476   0.406   0.786  0.00  0.00    +0.149 HD
ENDROOT
BRANCH   1   6
ATOM      5  C   UNL     1      -0.019   1.526   0.010  0.00  0.00    +0.038 C 
ATOM      6  C   UNL     1       0.002  -0.004   0.002  0.00  0.00    +0.156 C 
BRANCH   6   7
ATOM      7  N   UNL     1      -1.372  -0.511   0.012  0.00  0.00    -0.301 N 
ATOM      8  C   UNL     1      -2.051  -0.643  -1.145  0.00  0.00    +0.237 C 
ATOM      9  O   UNL     1      -1.522  -0.340  -2.198  0.00  0.00    -0.271 OA
ATOM     10  H   UNL     1      -1.794  -0.752   0.852  0.00  0.00    +0.150 HD
BRANCH   8  11
ATOM     11  C   UNL     1      -3.423  -1.149  -1.134  0.00  0.00    +0.068 C 
ATOM     12  C   UNL     1      -4.103  -1.281  -2.293  0.00  0.00    +0.013 C 
BRANCH  12  13
ATOM     13  C   UNL     1      -5.482  -1.790  -2.283  0.00  0.00    -0.025 A 
ATOM     14  C   UNL     1      -6.094  -2.133  -1.072  0.00  0.00    +0.011 A 
ATOM     15  C   UNL     1      -7.386  -2.609  -1.067  0.00  0.00    +0.046 A 
ATOM     16  C   UNL     1      -8.082  -2.749  -2.263  0.00  0.00    +0.120 A 
ATOM     17  C   UNL     1      -7.478  -2.410  -3.468  0.00  0.00    +0.046 A 
ATOM     18  C   UNL     1      -6.189  -1.927  -3.483  0.00  0.00    +0.011 A 
BRANCH  16  19
ATOM     19  O   UNL     1      -9.355  -3.219  -2.253  0.00  0.00    -0.495 OA
ATOM     20  C   UNL     1     -10.012  -3.338  -3.517  0.00  0.00    +0.277 C 
ENDBRANCH  16  19
ENDBRANCH  12  13
ENDBRANCH   8  11
ENDBRANCH   6   7
ENDBRANCH   1   6
BRANCH   3  21
ATOM     21  C   UNL     1       2.727  -0.647   2.613  0.00  0.00    +0.106 C 
BRANCH  21  22
ATOM     22  C   UNL     1       4.163  -0.117   2.602  0.00  0.00    +0.038 C 
BRANCH  22  23
ATOM     23  C   UNL     1       4.903  -0.624   3.841  0.00  0.00    +0.119 C 
BRANCH  23  24
ATOM     24  N   UNL     1       6.277  -0.117   3.831  0.00  0.00    -0.224 N 
ATOM     25  C   UNL     1       7.318  -0.756   3.254  0.00  0.00    +0.246 C 
ATOM     26  O   UNL     1       7.296  -1.817   2.669  0.00  0.00    -0.273 OA
ATOM     27  C   UNL     1       8.512   0.133   3.494  0.00  0.00    +0.113 C 
ATOM     28  C   UNL     1       9.138   0.584   2.167  0.00  0.00    +0.035 C 
ATOM     29  C   UNL     1      10.658   0.640   2.470  0.00  0.00    +0.003 C 
ATOM     30  C   UNL     1      10.867  -0.574   3.410  0.00  0.00    +0.003 C 
ATOM     31  C   UNL     1       9.597  -0.597   4.289  0.00  0.00    +0.035 C 
ATOM     32  N   UNL     1       7.977   1.273   4.241  0.00  0.00    -0.285 N 
ATOM     33  C   UNL     1       6.657   1.041   4.387  0.00  0.00    +0.309 C 
ATOM     34  O   UNL     1       5.897   1.796   4.962  0.00  0.00    -0.252 OA
ATOM     35  H   UNL     1       8.472   2.042   4.563  0.00  0.00    +0.151 HD
ENDBRANCH  23  24
ENDBRANCH  22  23
ENDBRANCH  21  22
ENDBRANCH   3  21
TORSDOF 9
