REMARK  Name = ZINC26952072
REMARK  9 active torsions:
REMARK  status: ('A' for Active; 'I' for Inactive)
REMARK    1  A    between atoms: C_1  and  C_2
REMARK    2  A    between atoms: C_5  and  S_8
REMARK    3  A    between atoms: S_8  and  N_11
REMARK    4  A    between atoms: N_11  and  C_12
REMARK    5  A    between atoms: C_18  and  S_20
REMARK    6  A    between atoms: S_20  and  C_21
REMARK    7  A    between atoms: N_22  and  C_23
REMARK    8  A    between atoms: C_23  and  C_24
REMARK    9  A    between atoms: C_23  and  C_25
REMARK                            x       y       z     vdW  Elec       q    Type
REMARK                         _______ _______ _______ _____ _____    ______ ____
ROOT
ATOM      1  N   UNL     1       3.476   2.065  -0.021  0.00  0.00    -0.069 N 
ATOM      2  C   UNL     1       2.286   1.357  -0.013  0.00  0.00    +0.257 A 
ATOM      3  N   UNL     1       2.304   0.028  -0.020  0.00  0.00    -0.179 NA
ATOM      4  C   UNL     1       1.162  -0.652  -0.013  0.00  0.00    +0.221 A 
ATOM      5  N   UNL     1       0.002  -0.004   0.002  0.00  0.00    -0.189 NA
ATOM      6  C   UNL     1      -0.016   1.326   0.009  0.00  0.00    +0.194 A 
ATOM      7  N   UNL     1       1.127   2.006   0.002  0.00  0.00    -0.186 NA
ATOM      8  N   UNL     1       1.181  -2.033  -0.020  0.00  0.00    -0.311 N 
ATOM      9  H   UNL     1       2.142  -2.569  -0.032  0.00  0.00    +0.149 HD
ENDROOT
BRANCH   1  10
ATOM     10  S   UNL     1       3.454   3.721  -0.012  0.00  0.00    +0.089 S 
ATOM     11  O   UNL     1       4.688   4.147  -0.573  0.00  0.00    -0.149 OA
ATOM     12  O   UNL     1       2.197   4.114  -0.548  0.00  0.00    -0.149 OA
BRANCH  10  17
ATOM     13  C   UNL     1       3.487   5.475   5.761  0.00  0.00    +0.044 C 
ATOM     14  C   UNL     1       3.479   5.037   4.319  0.00  0.00    -0.050 A 
ATOM     15  C   UNL     1       4.672   4.851   3.646  0.00  0.00    +0.005 A 
ATOM     16  C   UNL     1       4.664   4.450   2.324  0.00  0.00    +0.029 A 
ATOM     17  C   UNL     1       3.463   4.233   1.674  0.00  0.00    +0.110 A 
ATOM     18  C   UNL     1       2.270   4.423   2.346  0.00  0.00    +0.029 A 
ATOM     19  C   UNL     1       2.278   4.821   3.670  0.00  0.00    +0.005 A 
ENDBRANCH  10  17
ENDBRANCH   1  10
BRANCH   8  20
ATOM     20  C   UNL     1      -0.077  -2.783  -0.012  0.00  0.00    +0.067 C 
ATOM     21  C   UNL     1       0.149  -4.163  -0.631  0.00  0.00    +0.027 C 
ATOM     22  C   UNL     1      -0.566  -2.943   1.429  0.00  0.00    +0.027 C 
ENDBRANCH   8  20
BRANCH   1  23
ATOM     23  C   UNL     1       4.658   1.404  -0.036  0.00  0.00    +0.198 C 
ATOM     24  N   UNL     1       5.649   0.849  -0.049  0.00  0.00    -0.172 NA
ENDBRANCH   1  23
BRANCH   6  25
ATOM     25  S   UNL     1      -1.554   2.186   0.021  0.00  0.00    -0.089 S 
ATOM     26  C   UNL     1      -0.957   3.895   0.028  0.00  0.00    +0.093 C 
ENDBRANCH   6  25
TORSDOF 5
