REMARK  Name = ZINC02737393
REMARK  9 active torsions:
REMARK  status: ('A' for Active; 'I' for Inactive)
REMARK    1  A    between atoms: C_1  and  C_2
REMARK    2  A    between atoms: C_2  and  C_3
REMARK    3  A    between atoms: C_3  and  C_4
REMARK    4  A    between atoms: C_3  and  C_5
REMARK    5  A    between atoms: C_3  and  C_6
REMARK    6  A    between atoms: C_13  and  N_18
REMARK    7  A    between atoms: C_14  and  C_15
REMARK    8  A    between atoms: C_19  and  C_21
REMARK    9  A    between atoms: C_26  and  N_27
REMARK                            x       y       z     vdW  Elec       q    Type
REMARK                         _______ _______ _______ _____ _____    ______ ____
ROOT
ATOM      1  C   UNL     1      -1.866   6.327  -1.307  0.00  0.00    -0.000 C 
ATOM      2  C   UNL     1      -0.403   6.305  -0.855  0.00  0.00    +0.009 C 
ATOM      3  C   UNL     1       0.289   5.051  -1.393  0.00  0.00    +0.037 C 
ATOM      4  C   UNL     1      -0.541   3.832  -1.013  0.00  0.00    -0.023 A 
ATOM      5  C   UNL     1      -1.836   3.957  -0.649  0.00  0.00    -0.004 A 
ATOM      6  S   UNL     1      -2.374   2.305  -0.312  0.00  0.00    -0.077 S 
ATOM      7  C   UNL     1      -0.898   1.458  -0.639  0.00  0.00    +0.085 A 
ATOM      8  C   UNL     1      -0.027   2.473  -1.010  0.00  0.00    +0.068 A 
ATOM      9  C   UNL     1      -2.630   5.224  -0.561  0.00  0.00    +0.046 C 
ENDROOT
BRANCH   8  10
ATOM     10  C   UNL     1       1.361   2.184  -1.383  0.00  0.00    +0.244 C 
ATOM     11  O   UNL     1       1.643   1.950  -2.544  0.00  0.00    -0.270 OA
ATOM     12  N   UNL     1       2.326   2.178  -0.442  0.00  0.00    -0.325 N 
ATOM     13  H   UNL     1       2.101   2.365   0.483  0.00  0.00    +0.145 HD
ATOM     14  H   UNL     1       3.244   1.987  -0.689  0.00  0.00    +0.145 HD
ENDBRANCH   8  10
BRANCH   7  15
ATOM     15  N   UNL     1      -0.650   0.097  -0.558  0.00  0.00    -0.275 N 
ATOM     16  C   UNL     1      -1.631  -0.745  -0.176  0.00  0.00    +0.251 C 
ATOM     17  O   UNL     1      -2.733  -0.310   0.098  0.00  0.00    -0.270 OA
ATOM     18  H   UNL     1       0.229  -0.249  -0.776  0.00  0.00    +0.156 HD
BRANCH  16  19
ATOM     19  C   UNL     1      -1.366  -2.196  -0.088  0.00  0.00    +0.067 A 
ATOM     20  C   UNL     1      -0.855  -2.883  -1.191  0.00  0.00    +0.015 A 
ATOM     21  C   UNL     1      -0.610  -4.238  -1.103  0.00  0.00    +0.001 A 
ATOM     22  C   UNL     1      -0.870  -4.916   0.075  0.00  0.00    +0.002 A 
ATOM     23  C   UNL     1      -1.376  -4.241   1.171  0.00  0.00    +0.033 A 
ATOM     24  C   UNL     1      -1.621  -2.885   1.099  0.00  0.00    +0.138 A 
BRANCH  24  25
ATOM     25  N   UNL     1      -2.156  -2.164   2.275  0.00  0.00    +0.057 N 
ATOM     26  O   UNL     1      -2.494  -2.784   3.267  0.00  0.00    -0.126 OA
ATOM     27  O   UNL     1      -2.259  -0.950   2.250  0.00  0.00    -0.126 OA
ENDBRANCH  24  25
ENDBRANCH  16  19
ENDBRANCH   7  15
BRANCH   1  28
ATOM     28  C   UNL     1      -2.483   7.689  -0.982  0.00  0.00    -0.032 C 
ATOM     29  C   UNL     1      -2.397   7.940   0.525  0.00  0.00    +0.011 C 
ATOM     30  C   UNL     1      -1.719   8.786  -1.726  0.00  0.00    +0.011 C 
BRANCH  28  32
ATOM     31  C   UNL     1      -4.566   9.063  -1.093  0.00  0.00    +0.004 C 
ATOM     32  C   UNL     1      -3.949   7.702  -1.418  0.00  0.00    +0.003 C 
ENDBRANCH  28  32
ENDBRANCH   1  28
TORSDOF 6
