REMARK  Name = ZINC47354090
REMARK  10 active torsions:
REMARK  status: ('A' for Active; 'I' for Inactive)
REMARK    1  A    between atoms: C_1  and  C_2
REMARK    2  A    between atoms: C_2  and  C_3
REMARK    3  A    between atoms: C_3  and  C_4
REMARK    4  A    between atoms: C_7  and  C_10
REMARK    5  A    between atoms: C_10  and  C_29
REMARK    6  A    between atoms: N_13  and  C_17
REMARK    7  A    between atoms: C_17  and  C_18
REMARK    8  A    between atoms: C_18  and  O_19
REMARK    9  A    between atoms: O_19  and  C_20
REMARK   10  A    between atoms: C_24  and  N_26
REMARK                            x       y       z     vdW  Elec       q    Type
REMARK                         _______ _______ _______ _____ _____    ______ ____
ROOT
ATOM      1  C   UNL     1      -1.355  -6.312  -0.019  0.00  0.00    +0.135 C 
ATOM      2  C   UNL     1      -0.541  -6.841   1.145  0.00  0.00    +0.251 C 
ATOM      3  O   UNL     1      -0.759  -6.676   2.326  0.00  0.00    -0.272 OA
ATOM      4  N   UNL     1       0.475  -7.533   0.593  0.00  0.00    -0.221 N 
ATOM      5  C   UNL     1       0.417  -7.515  -0.743  0.00  0.00    +0.310 C 
ATOM      6  O   UNL     1       1.224  -8.070  -1.462  0.00  0.00    -0.252 OA
ATOM      7  N   UNL     1      -0.636  -6.814  -1.202  0.00  0.00    -0.281 N 
ATOM      8  C   UNL     1      -2.781  -6.867   0.020  0.00  0.00    +0.047 C 
ATOM      9  H   UNL     1      -0.875  -6.669  -2.131  0.00  0.00    +0.152 HD
ENDROOT
BRANCH   1  13
ATOM     10  C   UNL     1      -1.413  -2.041   0.005  0.00  0.00    -0.047 A 
ATOM     11  C   UNL     1      -1.409  -2.725  -1.196  0.00  0.00    +0.004 A 
ATOM     12  C   UNL     1      -1.391  -4.107  -1.204  0.00  0.00    +0.006 A 
ATOM     13  C   UNL     1      -1.375  -4.805  -0.011  0.00  0.00    -0.015 A 
ATOM     14  C   UNL     1      -1.378  -4.120   1.190  0.00  0.00    +0.006 A 
ATOM     15  C   UNL     1      -1.392  -2.738   1.198  0.00  0.00    +0.004 A 
BRANCH  10  16
ATOM     16  C   UNL     1      -1.433  -0.534   0.013  0.00  0.00    +0.035 C 
BRANCH  16  18
ATOM     17  C   UNL     1      -0.019   1.526   0.010  0.00  0.00    +0.004 C 
ATOM     18  C   UNL     1       0.002  -0.004   0.002  0.00  0.00    +0.001 C 
ENDBRANCH  16  18
ENDBRANCH  10  16
ENDBRANCH   1  13
BRANCH   4  19
ATOM     19  C   UNL     1       1.516  -8.220   1.362  0.00  0.00    +0.159 C 
BRANCH  19  20
ATOM     20  C   UNL     1       1.074  -9.656   1.650  0.00  0.00    +0.248 C 
BRANCH  20  21
ATOM     21  O   UNL     1       0.973 -10.379   0.421  0.00  0.00    -0.490 OA
BRANCH  21  22
ATOM     22  C   UNL     1       0.589 -11.680   0.500  0.00  0.00    +0.123 A 
ATOM     23  C   UNL     1       0.308 -12.248   1.734  0.00  0.00    +0.046 A 
ATOM     24  C   UNL     1      -0.083 -13.570   1.812  0.00  0.00    +0.006 A 
ATOM     25  C   UNL     1      -0.195 -14.328   0.660  0.00  0.00    +0.033 A 
ATOM     26  C   UNL     1       0.084 -13.764  -0.571  0.00  0.00    +0.130 A 
ATOM     27  C   UNL     1       0.470 -12.440  -0.654  0.00  0.00    +0.078 A 
BRANCH  26  28
ATOM     28  N   UNL     1      -0.037 -14.578  -1.801  0.00  0.00    +0.057 N 
ATOM     29  O   UNL     1      -0.379 -15.735  -1.729  0.00  0.00    -0.126 OA
ATOM     30  O   UNL     1       0.207 -14.085  -2.878  0.00  0.00    -0.126 OA
ENDBRANCH  26  28
ENDBRANCH  21  22
ENDBRANCH  20  21
ENDBRANCH  19  20
ENDBRANCH   4  19
TORSDOF 8
