REMARK  Name = ZINC66445268
REMARK  7 active torsions:
REMARK  status: ('A' for Active; 'I' for Inactive)
REMARK    1  A    between atoms: C_1  and  C_2
REMARK    2  A    between atoms: C_2  and  N_3
REMARK    3  A    between atoms: C_9  and  C_11
REMARK    4  A    between atoms: C_11  and  C_12
REMARK    5  A    between atoms: C_18  and  C_20
REMARK    6  A    between atoms: N_26  and  C_27
REMARK    7  A    between atoms: C_27  and  C_28
REMARK                            x       y       z     vdW  Elec       q    Type
REMARK                         _______ _______ _______ _____ _____    ______ ____
ROOT
ATOM      1  C   UNL     1       4.924  -5.143  -3.018  0.00  0.00    +0.001 C 
ATOM      2  C   UNL     1       5.362  -4.519  -4.345  0.00  0.00    +0.023 C 
ATOM      3  C   UNL     1       6.693  -5.141  -4.782  0.00  0.00    +0.108 C 
ATOM      4  N   UNL     1       6.542  -6.602  -4.823  0.00  0.00    -0.303 N 
ATOM      5  C   UNL     1       6.039  -7.294  -3.628  0.00  0.00    +0.108 C 
ATOM      6  C   UNL     1       4.716  -6.648  -3.204  0.00  0.00    +0.023 C 
ATOM      7  C   UNL     1       6.857  -7.294  -5.935  0.00  0.00    +0.202 C 
ATOM      8  O   UNL     1       7.181  -6.705  -6.945  0.00  0.00    -0.277 OA
ENDROOT
BRANCH   7   9
ATOM      9  C   UNL     1       6.808  -8.800  -5.925  0.00  0.00    +0.019 C 
ATOM     10  C   UNL     1       5.399  -9.267  -6.295  0.00  0.00    -0.006 C 
ATOM     11  C   UNL     1       5.354 -10.797  -6.282  0.00  0.00    -0.003 C 
ATOM     12  C   UNL     1       6.415 -11.337  -7.245  0.00  0.00    -0.019 C 
ATOM     13  C   UNL     1       7.787 -10.794  -6.840  0.00  0.00    -0.078 C 
ATOM     14  N   UNL     1       7.772  -9.328  -6.898  0.00  0.00    +0.387 N 
ATOM     15  H   UNL     1       7.509  -9.031  -7.825  0.00  0.00    -0.081 HD
BRANCH  14  16
ATOM     16  C   UNL     1       9.113  -8.814  -6.584  0.00  0.00    -0.081 C 
ATOM     17  C   UNL     1      10.092  -9.242  -7.679  0.00  0.00    -0.017 C 
ENDBRANCH  14  16
ENDBRANCH   7   9
BRANCH   1  18
ATOM     18  C   UNL     1       3.613  -4.500  -2.562  0.00  0.00    +0.099 C 
BRANCH  18  25
ATOM     19  N   UNL     1       1.045  -0.982  -0.113  0.00  0.00    +0.382 N 
ATOM     20  C   UNL     1       2.447  -0.550  -0.153  0.00  0.00    -0.060 C 
ATOM     21  C   UNL     1       3.031  -0.844  -1.539  0.00  0.00    +0.089 C 
ATOM     22  N   UNL     1       2.826  -2.269  -1.839  0.00  0.00    -0.305 N 
ATOM     23  C   UNL     1       1.476  -2.827  -1.665  0.00  0.00    +0.089 C 
ATOM     24  C   UNL     1       0.966  -2.439  -0.274  0.00  0.00    -0.060 C 
ATOM     25  C   UNL     1       3.847  -3.042  -2.261  0.00  0.00    +0.216 C 
ATOM     26  O   UNL     1       4.953  -2.564  -2.398  0.00  0.00    -0.276 OA
ATOM     27  H   UNL     1       0.535  -0.534  -0.860  0.00  0.00    -0.082 HD
BRANCH  19  29
ATOM     28  C   UNL     1       0.422   0.924   1.293  0.00  0.00    -0.017 C 
ATOM     29  C   UNL     1       0.454  -0.601   1.177  0.00  0.00    -0.082 C 
ENDBRANCH  19  29
ENDBRANCH  18  25
ENDBRANCH   1  18
TORSDOF 5
