REMARK  Name = ZINC33725299
REMARK  8 active torsions:
REMARK  status: ('A' for Active; 'I' for Inactive)
REMARK    1  A    between atoms: C_1  and  N_2
REMARK    2  A    between atoms: N_2  and  C_3
REMARK    3  A    between atoms: N_2  and  S_18
REMARK    4  A    between atoms: C_3  and  C_4
REMARK    5  A    between atoms: N_6  and  N_7
REMARK    6  A    between atoms: C_8  and  C_9
REMARK    7  A    between atoms: C_12  and  C_15
REMARK    8  A    between atoms: S_18  and  C_21
REMARK                            x       y       z     vdW  Elec       q    Type
REMARK                         _______ _______ _______ _____ _____    ______ ____
ROOT
ATOM      1  C   UNL     1      -0.227  -1.788   0.700  0.00  0.00    +0.206 C 
ENDROOT
BRANCH   1   2
ATOM      2  C   UNL     1      -1.482  -1.474   1.473  0.00  0.00    +0.248 C 
ATOM      3  O   UNL     1      -2.237  -0.612   1.078  0.00  0.00    -0.273 OA
ATOM      4  N   UNL     1      -1.765  -2.153   2.602  0.00  0.00    -0.206 N 
ATOM      5  H   UNL     1      -1.080  -2.935   2.960  0.00  0.00    +0.177 HD
BRANCH   4   6
ATOM      6  N   UNL     1      -2.932  -1.861   3.321  0.00  0.00    -0.188 NA
ATOM      7  C   UNL     1      -3.146  -2.429   4.469  0.00  0.00    +0.138 C 
BRANCH   7   8
ATOM      8  C   UNL     1      -2.019  -2.982   5.239  0.00  0.00    -0.005 A 
ATOM      9  C   UNL     1      -2.263  -3.830   6.324  0.00  0.00    +0.010 A 
ATOM     10  C   UNL     1      -1.217  -4.348   7.035  0.00  0.00    +0.016 A 
ATOM     11  C   UNL     1       0.097  -4.021   6.684  0.00  0.00    +0.063 A 
ATOM     12  C   UNL     1       0.341  -3.170   5.602  0.00  0.00    +0.016 A 
ATOM     13  C   UNL     1      -0.705  -2.656   4.888  0.00  0.00    +0.010 A 
BRANCH  11  14
ATOM     14  C   UNL     1       1.226  -4.576   7.455  0.00  0.00    +0.387 C 
ATOM     15  O   UNL     1       2.367  -4.292   7.150  0.00  0.00    -0.241 OA
ATOM     16  O   UNL     1       0.991  -5.396   8.498  0.00  0.00    -0.241 OA
ENDBRANCH  11  14
ENDBRANCH   7   8
ENDBRANCH   4   6
ENDBRANCH   1   2
BRANCH   1  18
ATOM     17  C   UNL     1       0.425   0.422  -0.363  0.00  0.00    +0.132 C 
ATOM     18  N   UNL     1      -0.149  -0.921  -0.479  0.00  0.00    -0.171 NA
BRANCH  18  19
ATOM     19  S   UNL     1      -0.711  -1.459  -1.941  0.00  0.00    +0.061 S 
ATOM     20  O   UNL     1      -1.667  -2.472  -1.661  0.00  0.00    -0.153 OA
ATOM     21  O   UNL     1      -1.027  -0.303  -2.704  0.00  0.00    -0.153 OA
BRANCH  19  22
ATOM     22  C   UNL     1       0.635  -2.249  -2.757  0.00  0.00    +0.106 A 
ATOM     23  C   UNL     1       1.468  -1.502  -3.588  0.00  0.00    +0.029 A 
ATOM     24  C   UNL     1       2.520  -2.080  -4.230  0.00  0.00    +0.010 A 
ATOM     25  C   UNL     1       2.766  -3.454  -4.063  0.00  0.00    -0.018 A 
ATOM     26  C   UNL     1       3.838  -4.087  -4.714  0.00  0.00    +0.008 A 
ATOM     27  C   UNL     1       4.046  -5.419  -4.529  0.00  0.00    +0.001 A 
ATOM     28  C   UNL     1       3.210  -6.168  -3.702  0.00  0.00    +0.001 A 
ATOM     29  C   UNL     1       2.162  -5.588  -3.056  0.00  0.00    +0.008 A 
ATOM     30  C   UNL     1       1.916  -4.215  -3.222  0.00  0.00    -0.016 A 
ATOM     31  C   UNL     1       0.843  -3.581  -2.572  0.00  0.00    +0.037 A 
ENDBRANCH  19  22
ENDBRANCH  18  19
ENDBRANCH   1  18
TORSDOF 7
