REMARK  Name = ZINC39965961
REMARK  8 active torsions:
REMARK  status: ('A' for Active; 'I' for Inactive)
REMARK    1  A    between atoms: C_4  and  N_10
REMARK    2  A    between atoms: C_5  and  C_7
REMARK    3  A    between atoms: C_11  and  C_13
REMARK    4  A    between atoms: C_13  and  S_14
REMARK    5  A    between atoms: S_14  and  C_15
REMARK    6  A    between atoms: C_18  and  C_27
REMARK    7  A    between atoms: N_19  and  C_20
REMARK    8  A    between atoms: C_20  and  C_21
REMARK                            x       y       z     vdW  Elec       q    Type
REMARK                         _______ _______ _______ _____ _____    ______ ____
ROOT
ATOM      1  C   UNL     1       9.386  -0.626  -0.657  0.00  0.00    +0.192 A 
ATOM      2  N   UNL     1       9.292  -1.935  -0.588  0.00  0.00    -0.122 NA
ATOM      3  N   UNL     1      10.454  -2.468  -0.718  0.00  0.00    -0.128 NA
ATOM      4  C   UNL     1      11.361  -1.532  -0.878  0.00  0.00    +0.165 A 
ATOM      5  N   UNL     1      10.704  -0.324  -0.850  0.00  0.00    -0.300 N 
ENDROOT
BRANCH   4   6
ATOM      6  C   UNL     1      12.813  -1.739  -1.061  0.00  0.00    +0.023 A 
ATOM      7  C   UNL     1      13.303  -2.998  -1.412  0.00  0.00    +0.015 A 
ATOM      8  C   UNL     1      14.658  -3.189  -1.582  0.00  0.00    +0.050 A 
ATOM      9  C   UNL     1      15.539  -2.132  -1.406  0.00  0.00    +0.166 A 
ATOM     10  C   UNL     1      15.057  -0.872  -1.055  0.00  0.00    +0.167 A 
ATOM     11  C   UNL     1      13.699  -0.673  -0.888  0.00  0.00    +0.061 A 
ATOM     12  O   UNL     1      16.115  -0.016  -0.944  0.00  0.00    -0.453 OA
ATOM     13  C   UNL     1      17.278  -0.856  -0.828  0.00  0.00    +0.466 C 
ATOM     14  O   UNL     1      16.898  -2.063  -1.514  0.00  0.00    -0.453 OA
ENDBRANCH   4   6
BRANCH   1  15
ATOM     15  S   UNL     1       8.057   0.525  -0.532  0.00  0.00    -0.077 S 
BRANCH  15  16
ATOM     16  C   UNL     1       6.595  -0.518  -0.284  0.00  0.00    +0.173 C 
BRANCH  16  18
ATOM     17  N   UNL     1       4.161  -0.208   0.031  0.00  0.00    -0.284 N 
ATOM     18  C   UNL     1       5.371   0.353  -0.160  0.00  0.00    +0.228 C 
ATOM     19  O   UNL     1       5.476   1.559  -0.231  0.00  0.00    -0.275 OA
ATOM     20  H   UNL     1       4.085  -1.168   0.153  0.00  0.00    +0.155 HD
BRANCH  17  24
ATOM     21  C   UNL     1       0.743   2.180   0.092  0.00  0.00    +0.001 A 
ATOM     22  C   UNL     1       1.872   2.594  -0.596  0.00  0.00    +0.002 A 
ATOM     23  C   UNL     1       3.005   1.805  -0.618  0.00  0.00    +0.024 A 
ATOM     24  C   UNL     1       3.019   0.589   0.052  0.00  0.00    +0.046 A 
ATOM     25  C   UNL     1       1.878   0.168   0.750  0.00  0.00    +0.058 A 
ATOM     26  C   UNL     1       0.739   0.976   0.763  0.00  0.00    +0.015 A 
BRANCH  25  27
ATOM     27  C   UNL     1       1.880  -1.123   1.466  0.00  0.00    +0.243 C 
ATOM     28  O   UNL     1       2.904  -1.773   1.544  0.00  0.00    -0.270 OA
ATOM     29  N   UNL     1       0.746  -1.581   2.032  0.00  0.00    -0.325 N 
ATOM     30  H   UNL     1      -0.071  -1.062   1.970  0.00  0.00    +0.145 HD
ATOM     31  H   UNL     1       0.748  -2.429   2.503  0.00  0.00    +0.145 HD
ENDBRANCH  25  27
ENDBRANCH  17  24
ENDBRANCH  16  18
ENDBRANCH  15  16
ENDBRANCH   1  15
BRANCH   5  32
ATOM     32  C   UNL     1      11.295   1.009  -0.993  0.00  0.00    +0.157 C 
BRANCH  32  33
ATOM     33  C   UNL     1      11.772   1.505   0.373  0.00  0.00    +0.138 C 
ATOM     34  C   UNL     1      12.482   2.875   0.230  0.00  0.00    +0.035 C 
ATOM     35  C   UNL     1      12.287   3.459   1.656  0.00  0.00    +0.031 C 
ATOM     36  C   UNL     1      10.902   2.902   2.051  0.00  0.00    +0.160 C 
ATOM     37  O   UNL     1      10.648   1.752   1.234  0.00  0.00    -0.375 OA
ENDBRANCH  32  33
ENDBRANCH   5  32
TORSDOF 8
