REMARK  Name = ZINC12868808
REMARK  12 active torsions:
REMARK  status: ('A' for Active; 'I' for Inactive)
REMARK    1  A    between atoms: C_1  and  C_2
REMARK    2  A    between atoms: C_13  and  C_14
REMARK    3  A    between atoms: C_13  and  O_15
REMARK    4  A    between atoms: N_21  and  O_22
REMARK    5  A    between atoms: O_22  and  C_23
REMARK    6  A    between atoms: C_23  and  C_24
REMARK    7  A    between atoms: N_26  and  C_27
REMARK    8  A    between atoms: C_27  and  C_29
REMARK    9  A    between atoms: C_27  and  C_38
REMARK   10  A    between atoms: C_29  and  C_31
REMARK   11  A    between atoms: C_29  and  O_37
REMARK   12  A    between atoms: C_42  and  C_43
REMARK                            x       y       z     vdW  Elec       q    Type
REMARK                         _______ _______ _______ _____ _____    ______ ____
ROOT
ATOM      1  C   UNK A   0      -2.829   5.301  -8.883  0.00  0.00    +0.014 C 
ATOM      2  C   UNK A   0      -3.099   4.108  -7.963  0.00  0.00    -0.000 C 
ATOM      3  C   UNK A   0      -3.213   4.585  -6.529  0.00  0.00    +0.010 C 
ATOM      4  C   UNK A   0      -1.930   5.368  -6.201  0.00  0.00    +0.005 C 
ATOM      5  C   UNK A   0      -0.687   4.503  -6.410  0.00  0.00    +0.006 C 
ATOM      6  C   UNK A   0      -0.667   3.928  -7.830  0.00  0.00    -0.003 C 
ATOM      7  C   UNK A   0      -1.907   3.114  -8.031  0.00  0.00    +0.001 C 
ATOM      8  C   UNK A   0      -2.096   2.501  -9.422  0.00  0.00    +0.007 C 
ATOM      9  C   UNK A   0      -3.633   2.287  -9.502  0.00  0.00    +0.035 C 
ATOM     10  C   UNK A   0      -4.266   3.294  -8.510  0.00  0.00    +0.069 C 
ATOM     11  C   UNK A   0      -4.971   2.549  -7.375  0.00  0.00    +0.042 C 
ATOM     12  C   UNK A   0       0.562   3.027  -7.978  0.00  0.00    +0.008 C 
ATOM     13  C   UNK A   0       0.353   1.762  -7.166  0.00  0.00    +0.032 C 
ATOM     14  C   UNK A   0      -0.094   2.100  -5.774  0.00  0.00    -0.058 C 
ATOM     15  C   UNK A   0      -0.085   1.120  -4.846  0.00  0.00    +0.031 C 
ATOM     16  C   UNK A   0      -0.646   1.512  -3.518  0.00  0.00    +0.102 C 
ATOM     17  N   UNK A   0      -0.106   1.142  -2.389  0.00  0.00    -0.085 NA
ATOM     18  C   UNK A   0      -1.878   2.356  -3.584  0.00  0.00    +0.027 C 
ATOM     19  C   UNK A   0      -1.852   3.323  -4.525  0.00  0.00    -0.014 C 
ATOM     20  C   UNK A   0      -0.604   3.435  -5.356  0.00  0.00    +0.011 C 
ATOM     21  C   UNK A   0       0.451   3.958  -4.379  0.00  0.00    +0.020 C 
ENDROOT
BRANCH  10  22
ATOM     22  O   UNK A   0      -5.189   4.147  -9.191  0.00  0.00    -0.388 OA
ATOM     23  H   UNK A   0      -5.953   3.684  -9.561  0.00  0.00    +0.210 HD
ENDBRANCH  10  22
BRANCH  17  24
ATOM     24  O   UNK A   0      -0.685   1.546  -1.161  0.00  0.00    -0.384 OA
BRANCH  24  25
ATOM     25  C   UNK A   0       0.009   1.070  -0.007  0.00  0.00    +0.358 C 
BRANCH  25  26
ATOM     26  C   UNK A   0      -0.690   1.557   1.236  0.00  0.00    +0.254 C 
ATOM     27  O   UNK A   0      -1.685   2.244   1.143  0.00  0.00    -0.272 OA
ATOM     28  N   UNK A   1      -0.210   1.228   2.452  0.00  0.00    -0.297 N 
ATOM     29  H   UNK A   1       0.586   0.678   2.527  0.00  0.00    +0.150 HD
BRANCH  28  30
ATOM     30  C   UNK A   1      -0.889   1.702   3.660  0.00  0.00    +0.220 C 
BRANCH  30  31
ATOM     31  C   UNK A   1      -2.012   0.758   4.008  0.00  0.00    +0.379 C 
ATOM     32  O   UNK A   1      -2.222  -0.211   3.318  0.00  0.00    -0.244 OA
ATOM     33  O   UNK A   1      -2.777   0.993   5.085  0.00  0.00    -0.244 OA
ENDBRANCH  30  31
BRANCH  30  34
ATOM     34  C   UNK A   1       0.109   1.756   4.819  0.00  0.00    +0.176 C 
BRANCH  34  35
ATOM     35  C   UNK A   1       1.231   2.700   4.471  0.00  0.00    -0.017 A 
ATOM     36  C   UNK A   1       2.262   2.277   3.654  0.00  0.00    +0.006 A 
ATOM     37  C   UNK A   1       3.289   3.144   3.332  0.00  0.00    +0.000 A 
ATOM     38  C   UNK A   1       3.289   4.432   3.834  0.00  0.00    +0.000 A 
ATOM     39  C   UNK A   1       2.260   4.854   4.654  0.00  0.00    +0.000 A 
ATOM     40  C   UNK A   1       1.231   3.988   4.973  0.00  0.00    +0.006 A 
ENDBRANCH  34  35
BRANCH  34  41
ATOM     41  O   UNK A   1       0.640   0.450   5.052  0.00  0.00    -0.385 OA
ATOM     42  H   UNK A   1       1.105   0.073   4.292  0.00  0.00    +0.210 HD
ENDBRANCH  34  41
ENDBRANCH  30  34
ENDBRANCH  28  30
ENDBRANCH  25  26
ENDBRANCH  24  25
ENDBRANCH  17  24
TORSDOF 9
