REMARK  Name = ZINC04513356
REMARK  6 active torsions:
REMARK  status: ('A' for Active; 'I' for Inactive)
REMARK    1  A    between atoms: C_3  and  C_11
REMARK    2  A    between atoms: C_6  and  N_7
REMARK    3  A    between atoms: C_14  and  C_16
REMARK    4  A    between atoms: N_17  and  N_18
REMARK    5  A    between atoms: C_19  and  C_21
REMARK    6  A    between atoms: C_21  and  C_22
REMARK                            x       y       z     vdW  Elec       q    Type
REMARK                         _______ _______ _______ _____ _____    ______ ____
ROOT
ATOM      1  C   UNL     1       1.244   1.814  -0.000  0.00  0.00    +0.137 A 
ATOM      2  C   UNL     1       2.165   0.679  -0.015  0.00  0.00    +0.050 A 
ATOM      3  C   UNL     1       1.404  -0.445  -0.014  0.00  0.00    +0.051 A 
ATOM      4  C   UNL     1       0.002  -0.004   0.002  0.00  0.00    +0.148 A 
ATOM      5  O   UNL     1      -0.016   1.345   0.009  0.00  0.00    -0.454 OA
ENDROOT
BRANCH   1   8
ATOM      6  C   UNL     1       2.921   4.973   0.925  0.00  0.00    +0.033 A 
ATOM      7  C   UNL     1       2.563   3.655   0.932  0.00  0.00    +0.015 A 
ATOM      8  C   UNL     1       1.617   3.180   0.004  0.00  0.00    +0.031 A 
ATOM      9  C   UNL     1       1.039   4.077  -0.919  0.00  0.00    +0.031 A 
ATOM     10  C   UNL     1       1.412   5.403  -0.903  0.00  0.00    +0.048 A 
ATOM     11  C   UNL     1       2.349   5.851   0.015  0.00  0.00    +0.127 A 
ATOM     12 BR   UNL     1      -0.239   3.463  -2.170  0.00  0.00    -0.049 Br
BRANCH  11  13
ATOM     13  N   UNL     1       2.744   7.278   0.026  0.00  0.00    +0.056 N 
ATOM     14  O   UNL     1       2.204   8.116  -0.835  0.00  0.00    -0.126 OA
ATOM     15  O   UNL     1       3.634   7.709   0.896  0.00  0.00    -0.126 OA
ENDBRANCH  11  13
ENDBRANCH   1   8
BRANCH   4  16
ATOM     16  C   UNL     1      -1.112  -0.833   0.008  0.00  0.00    +0.176 C 
ATOM     17  N   UNL     1      -2.330  -0.307   0.023  0.00  0.00    -0.185 NA
BRANCH  17  18
ATOM     18  N   UNL     1      -3.365  -1.078   0.029  0.00  0.00    -0.206 N 
ATOM     19  C   UNL     1      -4.603  -0.543   0.044  0.00  0.00    +0.246 C 
ATOM     20  O   UNL     1      -4.743   0.656   0.052  0.00  0.00    -0.273 OA
ATOM     21  H   UNL     1      -3.253  -2.041   0.022  0.00  0.00    +0.177 HD
BRANCH  19  22
ATOM     22  C   UNL     1      -5.812  -1.443   0.051  0.00  0.00    +0.215 C 
BRANCH  22  23
ATOM     23  C   UNL     1      -7.034  -0.623   0.068  0.00  0.00    +0.072 C 
ATOM     24  N   UNL     1      -7.977   0.010   0.080  0.00  0.00    -0.196 NA
ENDBRANCH  22  23
ENDBRANCH  19  22
ENDBRANCH  17  18
ENDBRANCH   4  16
TORSDOF 6
