REMARK  Name = ZINC14953467
REMARK  12 active torsions:
REMARK  status: ('A' for Active; 'I' for Inactive)
REMARK    1  A    between atoms: C_1  and  C_2
REMARK    2  A    between atoms: C_3  and  C_7
REMARK    3  A    between atoms: C_7  and  N_8
REMARK    4  A    between atoms: N_8  and  C_9
REMARK    5  A    between atoms: C_10  and  C_12
REMARK    6  A    between atoms: C_15  and  S_26
REMARK    7  A    between atoms: C_18  and  C_19
REMARK    8  A    between atoms: C_18  and  N_61
REMARK    9  A    between atoms: C_22  and  O_25
REMARK   10  A    between atoms: S_26  and  C_27
REMARK   11  A    between atoms: C_30  and  O_33
REMARK   12  A    between atoms: O_33  and  C_34
REMARK                            x       y       z     vdW  Elec       q    Type
REMARK                         _______ _______ _______ _____ _____    ______ ____
ROOT
ATOM      1  C   UNL     1      -0.013   1.086   0.008  0.00  0.00    +0.021 C 
ATOM      2  C   UNL     1       1.427   1.644  -0.003  0.00  0.00    +0.006 C 
ATOM      3  C   UNL     1       1.740   1.916  -1.488  0.00  0.00    +0.034 C 
ATOM      4  C   UNL     1       0.464   1.500  -2.250  0.00  0.00    -0.063 C 
ATOM      5  N   UNL     1      -0.588   1.599  -1.240  0.00  0.00    +0.391 N 
ATOM      6  H   UNL     1      -0.867   2.580  -1.122  0.00  0.00    -0.080 HD
ENDROOT
BRANCH   1   9
ATOM      7  N   UNL     1      -0.349   1.268   2.452  0.00  0.00    -0.300 N 
ATOM      8  C   UNL     1       0.833   0.421   2.630  0.00  0.00    +0.132 C 
ATOM      9  C   UNL     1      -0.764   1.594   1.212  0.00  0.00    +0.202 C 
ATOM     10  O   UNL     1      -1.743   2.295   1.064  0.00  0.00    -0.277 OA
BRANCH   7  11
ATOM     11  C   UNL     1      -1.080   1.762   3.622  0.00  0.00    +0.168 C 
BRANCH  11  14
ATOM     12  C   UNL     1      -4.038   1.793   2.536  0.00  0.00    +0.071 C 
ATOM     13  C   UNL     1      -3.478   0.789   3.510  0.00  0.00    +0.106 A 
ATOM     14  C   UNL     1      -2.155   0.775   3.996  0.00  0.00    +0.124 A 
ATOM     15  N   UNL     1      -2.009  -0.219   4.820  0.00  0.00    -0.052 NA
ATOM     16  O   UNL     1      -3.253  -0.897   4.893  0.00  0.00    -0.242 OA
ATOM     17  N   UNL     1      -4.139  -0.202   4.030  0.00  0.00    -0.054 NA
ENDBRANCH  11  14
ENDBRANCH   7  11
ENDBRANCH   1   9
BRANCH   5  18
ATOM     18  C   UNL     1      -1.784   0.792  -1.637  0.00  0.00    -0.042 C 
BRANCH  18  19
ATOM     19  C   UNL     1      -2.521   1.479  -2.757  0.00  0.00    -0.064 A 
ATOM     20  C   UNL     1      -3.539   2.369  -2.470  0.00  0.00    +0.005 A 
ATOM     21  C   UNL     1      -4.212   3.005  -3.496  0.00  0.00    +0.045 A 
ATOM     22  C   UNL     1      -3.873   2.741  -4.815  0.00  0.00    +0.117 A 
ATOM     23  C   UNL     1      -2.855   1.842  -5.100  0.00  0.00    +0.045 A 
ATOM     24  C   UNL     1      -2.181   1.214  -4.071  0.00  0.00    +0.005 A 
BRANCH  22  25
ATOM     25  O   UNL     1      -4.537   3.361  -5.825  0.00  0.00    -0.507 OA
ATOM     26  H   UNL     1      -5.316   2.881  -6.137  0.00  0.00    +0.292 HD
ENDBRANCH  22  25
ENDBRANCH  18  19
ENDBRANCH   5  18
BRANCH   3  27
ATOM     27  S   UNL     1       3.152   0.913  -2.029  0.00  0.00    -0.124 S 
BRANCH  27  28
ATOM     28  C   UNL     1       3.454   1.456  -3.677  0.00  0.00    +0.008 A 
ATOM     29  C   UNL     1       2.657   2.444  -4.241  0.00  0.00    +0.018 A 
ATOM     30  C   UNL     1       2.898   2.872  -5.532  0.00  0.00    +0.047 A 
ATOM     31  C   UNL     1       3.929   2.309  -6.269  0.00  0.00    +0.120 A 
ATOM     32  C   UNL     1       4.723   1.319  -5.708  0.00  0.00    +0.047 A 
ATOM     33  C   UNL     1       4.487   0.892  -4.416  0.00  0.00    +0.018 A 
BRANCH  31  34
ATOM     34  O   UNL     1       4.163   2.728  -7.541  0.00  0.00    -0.495 OA
ATOM     35  C   UNL     1       3.307   3.751  -8.055  0.00  0.00    +0.277 C 
ENDBRANCH  31  34
ENDBRANCH  27  28
ENDBRANCH   3  27
TORSDOF 9
