REMARK  Name = ZINC50062008
REMARK  11 active torsions:
REMARK  status: ('A' for Active; 'I' for Inactive)
REMARK    1  A    between atoms: C_1  and  C_2
REMARK    2  A    between atoms: C_2  and  N_3
REMARK    3  A    between atoms: N_3  and  C_4
REMARK    4  A    between atoms: N_3  and  C_6
REMARK    5  A    between atoms: C_4  and  C_5
REMARK    6  A    between atoms: C_6  and  C_8
REMARK    7  A    between atoms: C_6  and  C_25
REMARK    8  A    between atoms: C_8  and  N_9
REMARK    9  A    between atoms: N_12  and  C_13
REMARK   10  A    between atoms: N_19  and  C_24
REMARK   11  A    between atoms: N_22  and  C_23
REMARK                            x       y       z     vdW  Elec       q    Type
REMARK                         _______ _______ _______ _____ _____    ______ ____
ROOT
ATOM      1  N   UNL     1       0.836  -1.620   1.646  0.00  0.00    -0.300 N 
ATOM      2  C   UNL     1       1.535  -1.805   2.783  0.00  0.00    +0.304 C 
ATOM      3  O   UNL     1       1.155  -2.616   3.606  0.00  0.00    -0.253 OA
ATOM      4  N   UNL     1       2.656  -1.091   3.009  0.00  0.00    -0.269 N 
ATOM      5  H   UNL     1       1.139  -0.973   0.990  0.00  0.00    +0.150 HD
ATOM      6  H   UNL     1       2.926  -0.401   2.383  0.00  0.00    +0.156 HD
ENDROOT
BRANCH   4   7
ATOM      7  C   UNL     1       3.432  -1.347   4.147  0.00  0.00    +0.037 A 
ATOM      8  C   UNL     1       4.814  -1.206   4.090  0.00  0.00    +0.025 A 
ATOM      9  C   UNL     1       5.584  -1.456   5.208  0.00  0.00    +0.030 A 
ATOM     10  C   UNL     1       4.979  -1.849   6.392  0.00  0.00    +0.070 A 
ATOM     11  C   UNL     1       3.591  -1.992   6.452  0.00  0.00    +0.071 A 
ATOM     12  C   UNL     1       2.820  -1.735   5.329  0.00  0.00    +0.051 A 
ATOM     13  N   UNL     1       3.283  -2.390   7.751  0.00  0.00    -0.295 N 
ATOM     14  C   UNL     1       4.429  -2.487   8.450  0.00  0.00    +0.330 A 
ATOM     15  O   UNL     1       4.512  -2.813   9.619  0.00  0.00    -0.246 OA
ATOM     16  N   UNL     1       5.471  -2.167   7.658  0.00  0.00    -0.295 N 
ATOM     17  C   UNL     1       6.880  -2.154   8.059  0.00  0.00    +0.154 C 
ATOM     18  C   UNL     1       1.939  -2.659   8.269  0.00  0.00    +0.154 C 
ENDBRANCH   4   7
BRANCH   1  19
ATOM     19  C   UNL     1      -0.382  -2.396   1.401  0.00  0.00    +0.098 C 
BRANCH  19  20
ATOM     20  C   UNL     1      -1.073  -1.875   0.139  0.00  0.00    +0.016 C 
BRANCH  20  21
ATOM     21  C   UNL     1      -2.074  -2.893  -0.343  0.00  0.00    +0.093 A 
ATOM     22  C   UNL     1      -1.884  -3.770  -1.345  0.00  0.00    +0.043 A 
ATOM     23  C   UNL     1      -3.072  -4.528  -1.456  0.00  0.00    +0.041 A 
ATOM     24  C   UNL     1      -3.917  -4.070  -0.515  0.00  0.00    +0.195 A 
ATOM     25  O   UNL     1      -3.305  -3.084   0.160  0.00  0.00    -0.469 OA
ENDBRANCH  20  21
BRANCH  20  26
ATOM     26  N   UNL     1      -1.764  -0.615   0.444  0.00  0.00    +0.387 N 
ATOM     27  H   UNL     1      -2.532  -0.796   1.073  0.00  0.00    -0.081 HD
BRANCH  26  29
ATOM     28  C   UNL     1      -1.561   1.603   1.462  0.00  0.00    -0.017 C 
ATOM     29  C   UNL     1      -0.823   0.319   1.076  0.00  0.00    -0.081 C 
ENDBRANCH  26  29
BRANCH  26  30
ATOM     30  C   UNL     1      -2.279  -0.025  -0.800  0.00  0.00    -0.081 C 
ATOM     31  C   UNL     1      -3.401  -0.905  -1.355  0.00  0.00    -0.017 C 
ENDBRANCH  26  30
ENDBRANCH  20  26
ENDBRANCH  19  20
ENDBRANCH   1  19
TORSDOF 7
