REMARK  Name = ZINC12493506
REMARK  6 active torsions:
REMARK  status: ('A' for Active; 'I' for Inactive)
REMARK    1  A    between atoms: C_10  and  C_11
REMARK    2  A    between atoms: C_11  and  N_12
REMARK    3  A    between atoms: C_14  and  C_19
REMARK    4  A    between atoms: N_21  and  C_22
REMARK    5  A    between atoms: C_25  and  N_30
REMARK    6  A    between atoms: C_27  and  C_28
REMARK                            x       y       z     vdW  Elec       q    Type
REMARK                         _______ _______ _______ _____ _____    ______ ____
ROOT
ATOM      1  N   UNL     1       4.918  -2.973   0.355  0.00  0.00    -0.310 N 
ATOM      2  C   UNL     1       3.744  -2.321   0.268  0.00  0.00    +0.102 A 
ATOM      3  C   UNL     1       3.713  -0.945   0.172  0.00  0.00    +0.053 A 
ATOM      4  C   UNL     1       4.930  -0.220   0.160  0.00  0.00    +0.020 A 
ATOM      5  C   UNL     1       6.104  -0.900   0.256  0.00  0.00    +0.071 A 
ATOM      6  C   UNL     1       6.085  -2.304   0.351  0.00  0.00    +0.252 A 
ATOM      7  O   UNL     1       7.136  -2.919   0.431  0.00  0.00    -0.268 OA
ENDROOT
BRANCH   3   8
ATOM      8  C   UNL     1       2.425  -0.235   0.077  0.00  0.00    +0.250 C 
ATOM      9  O   UNL     1       1.383  -0.862   0.083  0.00  0.00    -0.270 OA
ATOM     10  N   UNL     1       2.401   1.109  -0.017  0.00  0.00    -0.280 N 
ATOM     11  H   UNL     1       3.231   1.604  -0.103  0.00  0.00    +0.155 HD
BRANCH  10  12
ATOM     12  C   UNL     1       1.185   1.788   0.009  0.00  0.00    +0.051 A 
ATOM     13  C   UNL     1       0.080   1.216   0.623  0.00  0.00    +0.027 A 
ATOM     14  C   UNL     1      -1.126   1.887   0.643  0.00  0.00    +0.034 A 
ATOM     15  C   UNL     1      -1.241   3.140   0.061  0.00  0.00    +0.128 A 
ATOM     16  C   UNL     1      -0.154   3.724  -0.554  0.00  0.00    +0.053 A 
ATOM     17  C   UNL     1       1.071   3.054  -0.587  0.00  0.00    +0.075 A 
BRANCH  15  18
ATOM     18  N   UNL     1      -2.539   3.851   0.094  0.00  0.00    +0.056 N 
ATOM     19  O   UNL     1      -2.644   4.950  -0.421  0.00  0.00    -0.126 OA
ATOM     20  O   UNL     1      -3.501   3.338   0.637  0.00  0.00    -0.126 OA
ENDBRANCH  15  18
BRANCH  17  21
ATOM     21  C   UNL     1       2.204   3.655  -1.223  0.00  0.00    +0.101 C 
ATOM     22  N   UNL     1       3.103   4.132  -1.728  0.00  0.00    -0.191 NA
ENDBRANCH  17  21
ENDBRANCH  10  12
ENDBRANCH   3   8
BRANCH   1  23
ATOM     23  C   UNL     1       4.926  -4.434   0.457  0.00  0.00    +0.160 C 
BRANCH  23  33
ATOM     24  C   UNL     1       5.537  -9.158  -1.419  0.00  0.00    +0.001 A 
ATOM     25  C   UNL     1       5.376  -8.623  -0.142  0.00  0.00    +0.001 A 
ATOM     26  C   UNL     1       5.233  -7.282   0.043  0.00  0.00    +0.009 A 
ATOM     27  C   UNL     1       5.252  -6.421  -1.067  0.00  0.00    -0.013 A 
ATOM     28  C   UNL     1       5.411  -6.965  -2.366  0.00  0.00    -0.018 A 
ATOM     29  C   UNL     1       5.556  -8.355  -2.518  0.00  0.00    +0.008 A 
ATOM     30  C   UNL     1       5.426  -6.104  -3.476  0.00  0.00    +0.008 A 
ATOM     31  C   UNL     1       5.282  -4.763  -3.291  0.00  0.00    +0.001 A 
ATOM     32  C   UNL     1       5.121  -4.229  -2.014  0.00  0.00    +0.006 A 
ATOM     33  C   UNL     1       5.101  -5.032  -0.915  0.00  0.00    -0.020 A 
ENDBRANCH  23  33
ENDBRANCH   1  23
TORSDOF 6
