REMARK  Name = ZINC49274751
REMARK  4 active torsions:
REMARK  status: ('A' for Active; 'I' for Inactive)
REMARK    1  A    between atoms: C_4  and  N_18
REMARK    2  A    between atoms: C_6  and  C_7
REMARK    3  A    between atoms: N_8  and  C_9
REMARK    4  A    between atoms: C_9  and  C_10
REMARK                            x       y       z     vdW  Elec       q    Type
REMARK                         _______ _______ _______ _____ _____    ______ ____
ROOT
ATOM      1  C   UNL     1      -0.017   1.408  -0.000  0.00  0.00    +0.033 A 
ATOM      2  C   UNL     1       1.153   2.101  -0.008  0.00  0.00    +0.044 A 
ATOM      3  C   UNL     1       2.384   1.450  -0.015  0.00  0.00    +0.056 A 
ATOM      4  C   UNL     1       2.471   0.091  -0.014  0.00  0.00    +0.175 A 
ATOM      5  C   UNL     1       1.301  -0.688  -0.006  0.00  0.00    +0.217 A 
ATOM      6  C   UNL     1       0.002  -0.004   0.001  0.00  0.00    +0.041 A 
ATOM      7  O   UNL     1       1.364  -1.910  -0.005  0.00  0.00    -0.285 OA
ATOM      8 CL   UNL     1       1.112   3.837  -0.010  0.00  0.00    -0.083 Cl
ENDROOT
BRANCH   6   9
ATOM      9  C   UNL     1      -1.189  -0.734   0.010  0.00  0.00    +0.090 C 
ATOM     10  N   UNL     1      -1.157  -2.071  -0.099  0.00  0.00    -0.389 N 
ATOM     11  H   UNL     1      -0.306  -2.536  -0.110  0.00  0.00    +0.159 HD
BRANCH  10  12
ATOM     12  C   UNL     1      -2.408  -2.828  -0.201  0.00  0.00    +0.116 C 
BRANCH  12  13
ATOM     13  C   UNL     1      -2.484  -3.504  -1.571  0.00  0.00    +0.012 C 
ATOM     14  C   UNL     1      -3.841  -4.202  -1.726  0.00  0.00    +0.009 C 
ATOM     15  C   UNL     1      -3.960  -4.714  -3.163  0.00  0.00    +0.027 C 
ATOM     16  C   UNL     1      -2.725  -5.478  -3.545  0.00  0.00    -0.031 C 
ATOM     17  C   UNL     1      -1.602  -5.406  -2.905  0.00  0.00    -0.031 C 
ATOM     18  C   UNL     1      -1.377  -4.554  -1.689  0.00  0.00    +0.032 C 
ENDBRANCH  12  13
ENDBRANCH  10  12
ENDBRANCH   6   9
BRANCH   4  19
ATOM     19  N   UNL     1       3.797  -0.566  -0.022  0.00  0.00    +0.060 N 
ATOM     20  O   UNL     1       4.804   0.104  -0.030  0.00  0.00    -0.126 OA
ATOM     21  O   UNL     1       3.874  -1.773  -0.022  0.00  0.00    -0.126 OA
ENDBRANCH   4  19
TORSDOF 4
