REMARK  Name = ZINC50934098
REMARK  8 active torsions:
REMARK  status: ('A' for Active; 'I' for Inactive)
REMARK    1  A    between atoms: C_1  and  C_2
REMARK    2  A    between atoms: C_2  and  C_3
REMARK    3  A    between atoms: C_3  and  C_4
REMARK    4  A    between atoms: C_4  and  C_6
REMARK    5  A    between atoms: C_4  and  N_7
REMARK    6  A    between atoms: C_8  and  C_10
REMARK    7  A    between atoms: N_15  and  C_17
REMARK    8  A    between atoms: C_18  and  N_25
REMARK                            x       y       z     vdW  Elec       q    Type
REMARK                         _______ _______ _______ _____ _____    ______ ____
ROOT
ATOM      1  C   UNL     1       0.394  -4.278   2.539  0.00  0.00    +0.092 C 
ATOM      2  C   UNL     1       1.494  -3.313   2.989  0.00  0.00    +0.016 C 
ATOM      3  C   UNL     1       2.087  -3.795   4.315  0.00  0.00    +0.020 C 
ATOM      4  C   UNL     1       2.710  -5.181   4.117  0.00  0.00    +0.106 C 
ATOM      5  N   UNL     1       1.696  -6.079   3.548  0.00  0.00    -0.311 N 
ATOM      6  C   UNL     1       0.997  -5.669   2.322  0.00  0.00    +0.119 C 
ENDROOT
BRANCH   5   7
ATOM      7  C   UNL     1       1.400  -7.304   4.164  0.00  0.00    +0.172 A 
ATOM      8  C   UNL     1       2.049  -7.835   5.221  0.00  0.00    +0.242 A 
ATOM      9  N   UNL     1       1.441  -9.058   5.519  0.00  0.00    -0.273 N 
ATOM     10  C   UNL     1       1.584 -10.081   6.430  0.00  0.00    +0.102 A 
ATOM     11  C   UNL     1       0.776 -11.140   6.399  0.00  0.00    +0.067 A 
ATOM     12  S   UNL     1      -0.291 -10.749   5.022  0.00  0.00    -0.058 S 
ATOM     13  C   UNL     1       0.439  -9.185   4.595  0.00  0.00    +0.181 A 
ATOM     14  N   UNL     1       0.417  -8.149   3.805  0.00  0.00    -0.204 NA
BRANCH   8  15
ATOM     15  N   UNL     1       3.201  -7.228   5.939  0.00  0.00    +0.077 N 
ATOM     16  O   UNL     1       4.331  -7.468   5.581  0.00  0.00    -0.125 OA
ATOM     17  O   UNL     1       3.009  -6.495   6.881  0.00  0.00    -0.125 OA
ENDBRANCH   8  15
ENDBRANCH   5   7
BRANCH   1  19
ATOM     18  N   UNL     1      -0.803  -2.575   1.203  0.00  0.00    -0.312 N 
ATOM     19  C   UNL     1      -0.212  -3.785   1.250  0.00  0.00    +0.218 C 
ATOM     20  O   UNL     1      -0.167  -4.478   0.256  0.00  0.00    -0.275 OA
ATOM     21  H   UNL     1      -0.839  -2.021   1.998  0.00  0.00    +0.149 HD
BRANCH  18  22
ATOM     22  C   UNL     1      -1.391  -2.096  -0.051  0.00  0.00    +0.070 C 
ATOM     23  C   UNL     1      -2.817  -2.635  -0.183  0.00  0.00    +0.028 C 
BRANCH  22  24
ATOM     24  C   UNL     1      -1.423  -0.567  -0.047  0.00  0.00    +0.022 C 
BRANCH  24  26
ATOM     25  C   UNL     1      -0.022   1.502  -0.038  0.00  0.00    +0.004 C 
ATOM     26  C   UNL     1       0.009  -0.027  -0.041  0.00  0.00    -0.002 C 
ENDBRANCH  24  26
ENDBRANCH  22  24
ENDBRANCH  18  22
ENDBRANCH   1  19
TORSDOF 6
