REMARK  Name = ZINC14196464
REMARK  4 active torsions:
REMARK  status: ('A' for Active; 'I' for Inactive)
REMARK    1  A    between atoms: C_3  and  S_14
REMARK    2  A    between atoms: C_9  and  C_10
REMARK    3  A    between atoms: S_14  and  C_15
REMARK    4  A    between atoms: N_20  and  C_21
REMARK                            x       y       z     vdW  Elec       q    Type
REMARK                         _______ _______ _______ _____ _____    ______ ____
ROOT
ATOM      1  S   UNL     1       1.054   3.835   0.012  0.00  0.00    -0.040 S 
ENDROOT
BRANCH   1   4
ATOM      2  C   UNL     1       2.402   0.056  -0.020  0.00  0.00    +0.053 A 
ATOM      3  C   UNL     1       2.350   1.414  -0.012  0.00  0.00    +0.040 A 
ATOM      4  C   UNL     1       1.105   2.074   0.003  0.00  0.00    +0.124 A 
ATOM      5  N   UNL     1      -0.017   1.392   0.010  0.00  0.00    -0.156 NA
ATOM      6  N   UNL     1       0.002  -0.004   0.002  0.00  0.00    -0.188 N 
ATOM      7  C   UNL     1       1.199  -0.676  -0.013  0.00  0.00    +0.178 A 
ATOM      8  N   UNL     1       0.914  -1.968  -0.018  0.00  0.00    -0.128 NA
ATOM      9  N   UNL     1      -0.364  -2.120  -0.007  0.00  0.00    -0.123 NA
ATOM     10  C   UNL     1      -0.958  -0.953   0.005  0.00  0.00    +0.258 A 
BRANCH  10  11
ATOM     11  C   UNL     1      -2.446  -0.712   0.020  0.00  0.00    +0.454 C 
ATOM     12  F   UNL     1      -3.107  -1.897   0.361  0.00  0.00    -0.163 F 
ATOM     13  F   UNL     1      -2.749   0.278   0.961  0.00  0.00    -0.163 F 
ATOM     14  F   UNL     1      -2.863  -0.293  -1.248  0.00  0.00    -0.163 F 
ENDBRANCH  10  11
ENDBRANCH   1   4
BRANCH   1  15
ATOM     15  C   UNL     1      -0.667   4.211   0.030  0.00  0.00    +0.166 A 
ATOM     16  N   UNL     1      -1.702   3.393   0.036  0.00  0.00    -0.133 NA
ATOM     17  N   UNL     1      -2.979   3.904   0.050  0.00  0.00    -0.125 NA
ATOM     18  C   UNL     1      -3.163   5.210   0.058  0.00  0.00    +0.183 A 
ATOM     19  S   UNL     1      -1.478   5.803   0.053  0.00  0.00    -0.024 S 
ATOM     20  N   UNL     1      -4.351   5.931   0.073  0.00  0.00    -0.319 N 
ATOM     21  H   UNL     1      -4.329   6.901   0.077  0.00  0.00    +0.148 HD
BRANCH  20  22
ATOM     22  C   UNL     1      -5.635   5.228   0.081  0.00  0.00    +0.072 C 
ATOM     23  C   UNL     1      -6.035   4.879  -1.354  0.00  0.00    +0.022 C 
ATOM     24  C   UNL     1      -7.377   4.144  -1.345  0.00  0.00    +0.002 C 
ATOM     25  C   UNL     1      -8.447   5.043  -0.722  0.00  0.00    +0.000 C 
ATOM     26  C   UNL     1      -8.047   5.391   0.714  0.00  0.00    +0.002 C 
ATOM     27  C   UNL     1      -6.705   6.126   0.705  0.00  0.00    +0.022 C 
ENDBRANCH  20  22
ENDBRANCH   1  15
TORSDOF 4
