REMARK  Name = ZINC66960719
REMARK  3 active torsions:
REMARK  status: ('A' for Active; 'I' for Inactive)
REMARK    1  A    between atoms: C_2  and  N_12
REMARK    2  A    between atoms: C_6  and  N_7
REMARK    3  A    between atoms: C_13  and  C_15
REMARK                            x       y       z     vdW  Elec       q    Type
REMARK                         _______ _______ _______ _____ _____    ______ ____
ROOT
ATOM      1  N   UNL     1       1.159   3.488   0.009  0.00  0.00    -0.283 N 
ATOM      2  C   UNL     1      -0.013   4.148  -0.078  0.00  0.00    +0.223 C 
ATOM      3  O   UNL     1      -1.058   3.533  -0.072  0.00  0.00    -0.275 OA
ATOM      4  H   UNL     1       1.990   3.983   0.085  0.00  0.00    +0.155 HD
ENDROOT
BRANCH   2   5
ATOM      5  C   UNL     1      -0.025   5.652  -0.184  0.00  0.00    +0.048 C 
ATOM      6  C   UNL     1       0.735   6.080  -1.440  0.00  0.00    +0.019 C 
ATOM      7  C   UNL     1       0.723   7.607  -1.548  0.00  0.00    -0.009 C 
ATOM      8  C   UNL     1      -0.723   8.100  -1.633  0.00  0.00    +0.007 C 
ATOM      9  C   UNL     1      -1.483   7.671  -0.377  0.00  0.00    -0.009 C 
ATOM     10  C   UNL     1      -1.471   6.145  -0.269  0.00  0.00    +0.019 C 
ATOM     11  C   UNL     1      -0.810   8.275   0.858  0.00  0.00    +0.007 C 
ATOM     12  C   UNL     1       0.636   7.781   0.943  0.00  0.00    -0.009 C 
ATOM     13  C   UNL     1       1.396   8.210  -0.314  0.00  0.00    +0.007 C 
ATOM     14  C   UNL     1       0.648   6.255   1.050  0.00  0.00    +0.019 C 
ENDBRANCH   2   5
BRANCH   1  16
ATOM     15  C   UNL     1       0.141   1.387  -0.611  0.00  0.00    +0.061 A 
ATOM     16  C   UNL     1       1.177   2.087  -0.009  0.00  0.00    +0.071 A 
ATOM     17  C   UNL     1       2.233   1.397   0.575  0.00  0.00    +0.147 A 
ATOM     18  C   UNL     1       2.248   0.014   0.555  0.00  0.00    +0.081 A 
ATOM     19  C   UNL     1       1.213  -0.681  -0.047  0.00  0.00    +0.156 A 
ATOM     20  C   UNL     1       0.160   0.005  -0.628  0.00  0.00    +0.163 A 
ATOM     21  F   UNL     1       1.230  -2.032  -0.067  0.00  0.00    -0.203 F 
ATOM     22  F   UNL     1       3.243   2.076   1.161  0.00  0.00    -0.203 F 
BRANCH  20  23
ATOM     23  N   UNL     1      -0.945  -0.742  -1.270  0.00  0.00    +0.059 N 
ATOM     24  O   UNL     1      -1.864  -0.143  -1.778  0.00  0.00    -0.126 OA
ATOM     25  O   UNL     1      -0.929  -1.950  -1.286  0.00  0.00    -0.126 OA
ENDBRANCH  20  23
ENDBRANCH   1  16
TORSDOF 3
