REMARK  Name = ZINC63408077
REMARK  6 active torsions:
REMARK  status: ('A' for Active; 'I' for Inactive)
REMARK    1  A    between atoms: C_1  and  C_2
REMARK    2  A    between atoms: C_2  and  O_3
REMARK    3  A    between atoms: O_3  and  C_4
REMARK    4  A    between atoms: N_14  and  C_15
REMARK    5  A    between atoms: N_18  and  C_21
REMARK    6  A    between atoms: C_21  and  C_22
REMARK                            x       y       z     vdW  Elec       q    Type
REMARK                         _______ _______ _______ _____ _____    ______ ____
ROOT
ATOM      1  C   UNL     1       0.802  -1.808   1.306  0.00  0.00    +0.403 C 
ATOM      2  O   UNL     1       0.326  -2.550   0.470  0.00  0.00    -0.226 OA
ATOM      3  N   UNL     1       1.442  -2.320   2.376  0.00  0.00    -0.264 N 
ATOM      4  C   UNL     1       2.017  -1.435   3.398  0.00  0.00    +0.130 C 
ATOM      5  C   UNL     1       1.444  -1.827   4.765  0.00  0.00    +0.128 C 
ATOM      6  N   UNL     1       1.579  -3.281   4.931  0.00  0.00    -0.283 N 
ATOM      7  C   UNL     1       1.003  -4.167   3.908  0.00  0.00    +0.128 C 
ATOM      8  C   UNL     1       1.571  -3.774   2.544  0.00  0.00    +0.130 C 
ATOM      9  C   UNL     1       2.218  -3.794   6.000  0.00  0.00    +0.303 C 
ATOM     10  O   UNL     1       2.772  -3.053   6.790  0.00  0.00    -0.253 OA
ATOM     11  N   UNL     1       2.244  -5.127   6.196  0.00  0.00    -0.297 N 
ATOM     12  H   UNL     1       1.865  -5.722   5.530  0.00  0.00    +0.151 HD
ENDROOT
BRANCH  11  13
ATOM     13  C   UNL     1       2.844  -5.678   7.413  0.00  0.00    +0.071 C 
ATOM     14  C   UNL     1       1.802  -5.691   8.536  0.00  0.00    +0.004 C 
ATOM     15  C   UNL     1       2.411  -6.340   9.781  0.00  0.00    -0.077 C 
ATOM     16  N   UNL     1       2.816  -7.716   9.472  0.00  0.00    +0.380 N 
ATOM     17  C   UNL     1       3.866  -7.707   8.446  0.00  0.00    -0.077 C 
ATOM     18  C   UNL     1       3.313  -7.111   7.150  0.00  0.00    +0.004 C 
ATOM     19  H   UNL     1       2.018  -8.232   9.131  0.00  0.00    -0.082 HD
BRANCH  16  20
ATOM     20  C   UNL     1       3.327  -8.360  10.689  0.00  0.00    -0.075 C 
BRANCH  20  21
ATOM     21  C   UNL     1       3.633  -9.831  10.398  0.00  0.00    -0.028 C 
ATOM     22  C   UNL     1       2.323 -10.600  10.132  0.00  0.00    +0.002 C 
ATOM     23  C   UNL     1       2.557 -11.986  10.782  0.00  0.00    +0.000 C 
ATOM     24  C   UNL     1       3.350 -11.632  12.065  0.00  0.00    +0.000 C 
ATOM     25  C   UNL     1       4.286 -10.487  11.627  0.00  0.00    +0.002 C 
ENDBRANCH  20  21
ENDBRANCH  16  20
ENDBRANCH  11  13
BRANCH   1  26
ATOM     26  O   UNL     1       0.691  -0.473   1.163  0.00  0.00    -0.451 OA
BRANCH  26  28
ATOM     27  C   UNL     1      -0.026   1.530   0.017  0.00  0.00    +0.048 C 
ATOM     28  C   UNL     1      -0.000   0.000   0.005  0.00  0.00    +0.230 C 
ENDBRANCH  26  28
ENDBRANCH   1  26
TORSDOF 5
