REMARK  Name = ZINC12943915
REMARK  9 active torsions:
REMARK  status: ('A' for Active; 'I' for Inactive)
REMARK    1  A    between atoms: C_1  and  C_2
REMARK    2  A    between atoms: C_2  and  C_3
REMARK    3  A    between atoms: C_6  and  O_9
REMARK    4  A    between atoms: O_9  and  C_10
REMARK    5  A    between atoms: C_10  and  C_11
REMARK    6  A    between atoms: C_11  and  C_13
REMARK    7  A    between atoms: C_11  and  O_33
REMARK    8  A    between atoms: C_13  and  N_14
REMARK    9  A    between atoms: C_17  and  N_30
REMARK                            x       y       z     vdW  Elec       q    Type
REMARK                         _______ _______ _______ _____ _____    ______ ____
ROOT
ATOM      1  N   UNL     1       1.245  -2.063  -0.021  0.00  0.00    -0.301 N 
ATOM      2  C   UNL     1       1.218  -0.680  -0.013  0.00  0.00    +0.073 A 
ATOM      3  C   UNL     1       0.002  -0.004   0.002  0.00  0.00    +0.060 A 
ATOM      4  C   UNL     1      -0.017   1.374   0.010  0.00  0.00    +0.128 A 
ATOM      5  C   UNL     1       1.170   2.094   0.002  0.00  0.00    +0.035 A 
ATOM      6  C   UNL     1       2.374   1.451  -0.013  0.00  0.00    +0.032 A 
ATOM      7  C   UNL     1       2.420   0.049  -0.021  0.00  0.00    +0.090 A 
ATOM      8  N   UNL     1       3.610  -0.586  -0.035  0.00  0.00    -0.225 NA
ATOM      9  C   UNL     1       3.676  -1.893  -0.043  0.00  0.00    +0.188 A 
ATOM     10  C   UNL     1       2.439  -2.696  -0.036  0.00  0.00    +0.292 A 
ATOM     11  O   UNL     1       2.492  -3.912  -0.044  0.00  0.00    -0.264 OA
ATOM     12  N   UNL     1       4.908  -2.522  -0.058  0.00  0.00    -0.311 N 
ATOM     13  C   UNL     1       5.130  -3.228  -1.346  0.00  0.00    +0.107 C 
ATOM     14  C   UNL     1       6.670  -3.396  -1.397  0.00  0.00    +0.020 C 
ATOM     15  C   UNL     1       7.183  -2.075  -0.780  0.00  0.00    +0.020 C 
ATOM     16  C   UNL     1       6.007  -1.539   0.058  0.00  0.00    +0.107 C 
ENDROOT
BRANCH   4  17
ATOM     17  N   UNL     1      -1.311   2.091   0.020  0.00  0.00    +0.056 N 
ATOM     18  O   UNL     1      -2.355   1.464   0.021  0.00  0.00    -0.126 OA
ATOM     19  O   UNL     1      -1.333   3.309   0.026  0.00  0.00    -0.126 OA
ENDBRANCH   4  17
BRANCH   1  20
ATOM     20  C   UNL     1      -0.002  -2.831  -0.013  0.00  0.00    +0.160 C 
BRANCH  20  21
ATOM     21  C   UNL     1      -0.450  -3.091  -1.452  0.00  0.00    +0.172 C 
BRANCH  21  22
ATOM     22  O   UNL     1       0.506  -3.929  -2.104  0.00  0.00    -0.387 OA
ATOM     23  H   UNL     1       0.625  -4.791  -1.683  0.00  0.00    +0.210 HD
ENDBRANCH  21  22
BRANCH  21  24
ATOM     24  C   UNL     1      -1.815  -3.783  -1.445  0.00  0.00    +0.262 C 
BRANCH  24  25
ATOM     25  O   UNL     1      -2.286  -3.921  -2.787  0.00  0.00    -0.489 OA
BRANCH  25  29
ATOM     26  C   UNL     1      -5.952  -5.739  -3.306  0.00  0.00    -0.047 A 
ATOM     27  C   UNL     1      -5.240  -5.296  -4.405  0.00  0.00    +0.007 A 
ATOM     28  C   UNL     1      -4.012  -4.687  -4.234  0.00  0.00    +0.046 A 
ATOM     29  C   UNL     1      -3.494  -4.520  -2.958  0.00  0.00    +0.121 A 
ATOM     30  C   UNL     1      -4.208  -4.971  -1.857  0.00  0.00    +0.046 A 
ATOM     31  C   UNL     1      -5.438  -5.574  -2.034  0.00  0.00    +0.007 A 
BRANCH  26  33
ATOM     32  C   UNL     1      -7.095  -7.912  -3.657  0.00  0.00    +0.009 C 
ATOM     33  C   UNL     1      -7.292  -6.404  -3.496  0.00  0.00    +0.032 C 
ENDBRANCH  26  33
ENDBRANCH  25  29
ENDBRANCH  24  25
ENDBRANCH  21  24
ENDBRANCH  20  21
ENDBRANCH   1  20
TORSDOF 8
