REMARK  Name = ZINC45681904
REMARK  11 active torsions:
REMARK  status: ('A' for Active; 'I' for Inactive)
REMARK    1  A    between atoms: C_1  and  C_2
REMARK    2  A    between atoms: C_2  and  O_3
REMARK    3  A    between atoms: O_3  and  C_4
REMARK    4  A    between atoms: C_4  and  C_6
REMARK    5  A    between atoms: C_7  and  C_21
REMARK    6  A    between atoms: C_12  and  C_14
REMARK    7  A    between atoms: C_21  and  N_22
REMARK    8  A    between atoms: N_25  and  C_28
REMARK    9  A    between atoms: C_28  and  C_30
REMARK   10  A    between atoms: C_28  and  C_31
REMARK   11  A    between atoms: N_33  and  C_34
REMARK                            x       y       z     vdW  Elec       q    Type
REMARK                         _______ _______ _______ _____ _____    ______ ____
ROOT
ATOM      1  C   UNL     1      -5.355  -3.616   0.948  0.00  0.00    +0.079 C 
ATOM      2  C   UNL     1      -5.064  -4.904   0.667  0.00  0.00    +0.038 C 
ATOM      3  N   UNL     1      -6.028  -5.871   0.717  0.00  0.00    -0.271 N 
ATOM      4  C   UNL     1      -7.305  -5.631   1.039  0.00  0.00    +0.304 C 
ATOM      5  O   UNL     1      -8.091  -6.557   1.057  0.00  0.00    -0.252 OA
ATOM      6  N   UNL     1      -7.747  -4.395   1.345  0.00  0.00    -0.288 N 
ATOM      7  C   UNL     1      -6.784  -3.281   1.326  0.00  0.00    +0.144 C 
ATOM      8  H   UNL     1      -5.772  -6.783   0.507  0.00  0.00    +0.156 HD
ATOM      9  H   UNL     1      -8.677  -4.243   1.575  0.00  0.00    +0.151 HD
ENDROOT
BRANCH   7  10
ATOM     10  C   UNL     1      -6.767  -2.652   2.695  0.00  0.00    -0.022 A 
ATOM     11  C   UNL     1      -6.666  -3.448   3.820  0.00  0.00    +0.007 A 
ATOM     12  C   UNL     1      -6.651  -2.872   5.076  0.00  0.00    +0.020 A 
ATOM     13  C   UNL     1      -6.736  -1.497   5.207  0.00  0.00    +0.041 A 
ATOM     14  C   UNL     1      -6.836  -0.700   4.080  0.00  0.00    +0.020 A 
ATOM     15  C   UNL     1      -6.846  -1.278   2.825  0.00  0.00    +0.007 A 
ATOM     16 CL   UNL     1      -6.717  -0.772   6.784  0.00  0.00    -0.084 Cl
ENDBRANCH   7  10
BRANCH   1  17
ATOM     17  C   UNL     1      -4.358  -2.614   0.897  0.00  0.00    +0.339 C 
ATOM     18  O   UNL     1      -3.835  -2.223   1.924  0.00  0.00    -0.245 OA
BRANCH  17  19
ATOM     19  O   UNL     1      -3.987  -2.091  -0.291  0.00  0.00    -0.462 OA
BRANCH  19  21
ATOM     20  C   UNL     1      -2.689  -0.614  -1.696  0.00  0.00    +0.048 C 
ATOM     21  C   UNL     1      -2.974  -1.083  -0.268  0.00  0.00    +0.229 C 
ENDBRANCH  19  21
ENDBRANCH  17  19
ENDBRANCH   1  17
BRANCH   2  22
ATOM     22  C   UNL     1      -3.655  -5.282   0.292  0.00  0.00    +0.135 C 
BRANCH  22  23
ATOM     23  N   UNL     1      -3.091  -6.161   1.325  0.00  0.00    -0.300 NA
ATOM     24  C   UNL     1      -2.929  -5.443   2.596  0.00  0.00    +0.066 C 
ATOM     25  C   UNL     1      -2.397  -6.407   3.659  0.00  0.00    -0.062 C 
ATOM     26  N   UNL     1      -1.109  -6.958   3.220  0.00  0.00    +0.389 N 
ATOM     27  C   UNL     1      -1.292  -7.694   1.962  0.00  0.00    -0.062 C 
ATOM     28  C   UNL     1      -1.814  -6.740   0.885  0.00  0.00    +0.066 C 
ATOM     29  H   UNL     1      -0.452  -6.205   3.077  0.00  0.00    -0.081 HD
BRANCH  26  30
ATOM     30  C   UNL     1      -0.590  -7.870   4.248  0.00  0.00    +0.016 C 
ATOM     31  C   UNL     1       0.774  -8.408   3.812  0.00  0.00    -0.004 C 
BRANCH  30  32
ATOM     32  C   UNL     1      -0.443  -7.127   5.551  0.00  0.00    +0.199 C 
ATOM     33  O   UNL     1      -0.232  -5.932   5.547  0.00  0.00    -0.278 OA
ATOM     34  N   UNL     1      -0.547  -7.789   6.720  0.00  0.00    -0.314 N 
ATOM     35  H   UNL     1      -0.716  -8.744   6.723  0.00  0.00    +0.149 HD
BRANCH  34  36
ATOM     36  C   UNL     1      -0.404  -7.066   7.987  0.00  0.00    +0.073 C 
ATOM     37  C   UNL     1       0.444  -7.718   9.081  0.00  0.00    +0.024 C 
ATOM     38  C   UNL     1      -1.079  -7.666   9.222  0.00  0.00    +0.024 C 
ENDBRANCH  34  36
ENDBRANCH  30  32
ENDBRANCH  26  30
ENDBRANCH  22  23
ENDBRANCH   2  22
TORSDOF 9
