REMARK  Name = ZINC40024127
REMARK  6 active torsions:
REMARK  status: ('A' for Active; 'I' for Inactive)
REMARK    1  A    between atoms: C_1  and  C_2
REMARK    2  A    between atoms: C_2  and  C_4
REMARK    3  A    between atoms: C_2  and  N_14
REMARK    4  A    between atoms: N_17  and  C_18
REMARK    5  A    between atoms: C_18  and  C_20
REMARK    6  A    between atoms: C_18  and  C_21
REMARK                            x       y       z     vdW  Elec       q    Type
REMARK                         _______ _______ _______ _____ _____    ______ ____
ROOT
ATOM      1  N   UNL     1      -1.372  -0.511   0.012  0.00  0.00    -0.293 N 
ATOM      2  C   UNL     1      -2.029  -0.655   1.181  0.00  0.00    +0.301 C 
ATOM      3  O   UNL     1      -1.480  -0.364   2.226  0.00  0.00    -0.253 OA
ATOM      4  N   UNL     1      -3.293  -1.122   1.190  0.00  0.00    -0.293 N 
ATOM      5  H   UNL     1      -1.810  -0.743  -0.822  0.00  0.00    +0.151 HD
ATOM      6  H   UNL     1      -3.731  -1.354   0.356  0.00  0.00    +0.151 HD
ENDROOT
BRANCH   1   8
ATOM      7  C   UNL     1      -0.019   1.526   0.010  0.00  0.00    +0.033 C 
ATOM      8  C   UNL     1       0.002  -0.004   0.002  0.00  0.00    +0.102 C 
BRANCH   8   9
ATOM      9  C   UNL     1       0.707  -0.490  -1.238  0.00  0.00    -0.024 A 
ATOM     10  C   UNL     1       0.036  -0.521  -2.446  0.00  0.00    +0.009 A 
ATOM     11  C   UNL     1       0.679  -0.967  -3.585  0.00  0.00    +0.050 A 
ATOM     12  C   UNL     1       2.000  -1.385  -3.519  0.00  0.00    +0.162 A 
ATOM     13  C   UNL     1       2.676  -1.352  -2.305  0.00  0.00    +0.162 A 
ATOM     14  C   UNL     1       2.026  -0.899  -1.166  0.00  0.00    +0.055 A 
ATOM     15  O   UNL     1       3.974  -1.750  -2.219  0.00  0.00    -0.485 OA
ATOM     16  C   UNL     1       4.478  -2.540  -3.301  0.00  0.00    +0.270 C 
ATOM     17  C   UNL     1       4.050  -1.880  -4.619  0.00  0.00    +0.270 C 
ATOM     18  O   UNL     1       2.619  -1.826  -4.648  0.00  0.00    -0.485 OA
ENDBRANCH   8   9
ENDBRANCH   1   8
BRANCH   4  19
ATOM     19  C   UNL     1      -4.006  -1.278   2.460  0.00  0.00    +0.102 C 
ATOM     20  C   UNL     1      -3.657  -2.634   3.078  0.00  0.00    +0.033 C 
BRANCH  19  21
ATOM     21  C   UNL     1      -5.492  -1.206   2.214  0.00  0.00    -0.024 A 
ATOM     22  C   UNL     1      -6.038  -1.820   1.103  0.00  0.00    +0.009 A 
ATOM     23  C   UNL     1      -7.399  -1.755   0.874  0.00  0.00    +0.050 A 
ATOM     24  C   UNL     1      -8.221  -1.072   1.758  0.00  0.00    +0.162 A 
ATOM     25  C   UNL     1      -7.672  -0.457   2.877  0.00  0.00    +0.162 A 
ATOM     26  C   UNL     1      -6.306  -0.530   3.103  0.00  0.00    +0.055 A 
ATOM     27  O   UNL     1      -8.461   0.211   3.762  0.00  0.00    -0.485 OA
ATOM     28  C   UNL     1      -9.770   0.575   3.310  0.00  0.00    +0.270 C 
ATOM     29  C   UNL     1     -10.396  -0.644   2.618  0.00  0.00    +0.270 C 
ATOM     30  O   UNL     1      -9.559  -1.013   1.517  0.00  0.00    -0.485 OA
ENDBRANCH  19  21
ENDBRANCH   4  19
TORSDOF 4
