REMARK  Name = ZINC12047088
REMARK  11 active torsions:
REMARK  status: ('A' for Active; 'I' for Inactive)
REMARK    1  A    between atoms: C_1  and  C_2
REMARK    2  A    between atoms: C_2  and  C_3
REMARK    3  A    between atoms: C_3  and  C_4
REMARK    4  A    between atoms: C_4  and  C_5
REMARK    5  A    between atoms: C_5  and  N_6
REMARK    6  A    between atoms: C_19  and  S_20
REMARK    7  A    between atoms: S_20  and  C_21
REMARK    8  A    between atoms: C_21  and  C_22
REMARK    9  A    between atoms: N_27  and  C_28
REMARK   10  A    between atoms: C_28  and  C_29
REMARK   11  A    between atoms: C_28  and  C_30
REMARK                            x       y       z     vdW  Elec       q    Type
REMARK                         _______ _______ _______ _____ _____    ______ ____
ROOT
ATOM      1  N   UNL     1      -0.675   1.545   3.712  0.00  0.00    -0.277 N 
ATOM      2  C   UNL     1      -0.317   2.724   4.260  0.00  0.00    +0.263 A 
ATOM      3  O   UNL     1       0.568   3.395   3.762  0.00  0.00    -0.267 OA
ATOM      4  C   UNL     1      -1.020   3.189   5.469  0.00  0.00    +0.064 A 
ATOM      5  C   UNL     1      -0.696   4.402   6.074  0.00  0.00    +0.015 A 
ATOM      6  C   UNL     1      -1.373   4.801   7.207  0.00  0.00    +0.001 A 
ATOM      7  C   UNL     1      -2.371   4.002   7.745  0.00  0.00    +0.002 A 
ATOM      8  C   UNL     1      -2.701   2.798   7.154  0.00  0.00    +0.027 A 
ATOM      9  C   UNL     1      -2.030   2.382   6.014  0.00  0.00    +0.064 A 
ATOM     10  N   UNL     1      -2.344   1.172   5.399  0.00  0.00    -0.256 N 
ATOM     11  C   UNL     1      -1.677   0.770   4.274  0.00  0.00    +0.240 A 
ATOM     12  N   UNL     1      -2.170  -0.393   3.910  0.00  0.00    -0.109 NA
ATOM     13  N   UNL     1      -3.174  -0.745   4.820  0.00  0.00    -0.120 NA
ATOM     14  C   UNL     1      -3.266   0.210   5.712  0.00  0.00    +0.198 A 
ENDROOT
BRANCH   1  15
ATOM     15  C   UNL     1       0.011   1.072   2.506  0.00  0.00    +0.128 C 
BRANCH  15  16
ATOM     16  C   UNL     1      -0.729   1.579   1.267  0.00  0.00    +0.022 C 
BRANCH  16  17
ATOM     17  C   UNL     1      -0.013   1.086   0.008  0.00  0.00    +0.001 C 
BRANCH  17  19
ATOM     18  C   UNL     1      -0.037   1.099  -2.490  0.00  0.00    +0.004 C 
ATOM     19  C   UNL     1      -0.753   1.593  -1.232  0.00  0.00    -0.003 C 
ENDBRANCH  17  19
ENDBRANCH  16  17
ENDBRANCH  15  16
ENDBRANCH   1  15
BRANCH  14  20
ATOM     20  S   UNL     1      -4.382   0.249   7.075  0.00  0.00    -0.076 S 
BRANCH  20  21
ATOM     21  C   UNL     1      -5.316  -1.298   6.923  0.00  0.00    +0.173 C 
BRANCH  21  22
ATOM     22  C   UNL     1      -6.320  -1.392   8.043  0.00  0.00    +0.231 C 
ATOM     23  O   UNL     1      -6.398  -0.503   8.863  0.00  0.00    -0.274 OA
ATOM     24  N   UNL     1      -7.131  -2.465   8.133  0.00  0.00    -0.239 N 
ATOM     25  C   UNL     1      -8.029  -2.548   9.135  0.00  0.00    +0.306 C 
ATOM     26  O   UNL     1      -8.107  -1.657   9.957  0.00  0.00    -0.252 OA
ATOM     27  N   UNL     1      -8.840  -3.621   9.225  0.00  0.00    -0.297 N 
ATOM     28  H   UNL     1      -7.069  -3.176   7.477  0.00  0.00    +0.159 HD
ATOM     29  H   UNL     1      -8.778  -4.332   8.569  0.00  0.00    +0.151 HD
BRANCH  27  30
ATOM     30  C   UNL     1      -9.816  -3.712  10.314  0.00  0.00    +0.068 C 
ATOM     31  C   UNL     1     -11.091  -2.964   9.920  0.00  0.00    +0.027 C 
ATOM     32  C   UNL     1     -10.148  -5.182  10.579  0.00  0.00    +0.027 C 
ENDBRANCH  27  30
ENDBRANCH  21  22
ENDBRANCH  20  21
ENDBRANCH  14  20
TORSDOF 8
