REMARK  Name = ZINC57241286
REMARK  6 active torsions:
REMARK  status: ('A' for Active; 'I' for Inactive)
REMARK    1  A    between atoms: C_1  and  C_2
REMARK    2  A    between atoms: C_2  and  C_4
REMARK    3  A    between atoms: C_2  and  N_18
REMARK    4  A    between atoms: N_6  and  C_7
REMARK    5  A    between atoms: C_10  and  C_13
REMARK    6  A    between atoms: N_21  and  C_22
REMARK                            x       y       z     vdW  Elec       q    Type
REMARK                         _______ _______ _______ _____ _____    ______ ____
ROOT
ATOM      1  C   UNL     1       0.712  -0.151   1.327  0.00  0.00    +0.237 C 
ATOM      2  O   UNL     1       0.209  -0.984   2.050  0.00  0.00    -0.273 OA
ATOM      3  N   UNL     1       1.951   0.311   1.589  0.00  0.00    -0.284 N 
ATOM      4  H   UNL     1       2.379   0.926   0.975  0.00  0.00    +0.155 HD
ENDROOT
BRANCH   3   5
ATOM      5  C   UNL     1       2.618  -0.099   2.749  0.00  0.00    +0.033 A 
ATOM      6  C   UNL     1       2.460  -1.397   3.219  0.00  0.00    +0.024 A 
ATOM      7  C   UNL     1       3.117  -1.802   4.361  0.00  0.00    +0.012 A 
ATOM      8  C   UNL     1       3.941  -0.909   5.044  0.00  0.00    +0.003 A 
ATOM      9  C   UNL     1       4.099   0.392   4.571  0.00  0.00    +0.012 A 
ATOM     10  C   UNL     1       3.443   0.792   3.425  0.00  0.00    +0.024 A 
BRANCH   8  11
ATOM     11  C   UNL     1       4.649  -1.344   6.274  0.00  0.00    +0.102 A 
ATOM     12  C   UNL     1       5.466  -0.511   6.990  0.00  0.00    +0.097 A 
ATOM     13  S   UNL     1       5.976  -1.511   8.239  0.00  0.00    +0.029 S 
ATOM     14  N   UNL     1       5.188  -2.865   7.839  0.00  0.00    -0.110 NA
ATOM     15  N   UNL     1       4.536  -2.566   6.771  0.00  0.00    -0.141 NA
ENDBRANCH   8  11
ENDBRANCH   3   5
BRANCH   1  17
ATOM     16  C   UNL     1      -0.239   1.882   0.271  0.00  0.00    +0.038 C 
ATOM     17  C   UNL     1      -0.049   0.370   0.135  0.00  0.00    +0.158 C 
BRANCH  17  18
ATOM     18  N   UNL     1      -1.359  -0.283   0.069  0.00  0.00    -0.288 N 
ATOM     19  C   UNL     1      -2.001  -0.387  -1.112  0.00  0.00    +0.304 C 
ATOM     20  O   UNL     1      -1.493   0.060  -2.122  0.00  0.00    -0.252 OA
ATOM     21  N   UNL     1      -3.206  -0.987  -1.173  0.00  0.00    -0.269 N 
ATOM     22  H   UNL     1      -1.764  -0.640   0.874  0.00  0.00    +0.151 HD
ATOM     23  H   UNL     1      -3.645  -1.278  -0.358  0.00  0.00    +0.156 HD
BRANCH  21  24
ATOM     24  C   UNL     1      -3.824  -1.192  -2.412  0.00  0.00    +0.035 A 
ATOM     25  C   UNL     1      -5.207  -1.131  -2.518  0.00  0.00    +0.023 A 
ATOM     26  C   UNL     1      -5.814  -1.333  -3.742  0.00  0.00    +0.002 A 
ATOM     27  C   UNL     1      -5.046  -1.596  -4.861  0.00  0.00    +0.000 A 
ATOM     28  C   UNL     1      -3.668  -1.658  -4.758  0.00  0.00    +0.002 A 
ATOM     29  C   UNL     1      -3.055  -1.451  -3.538  0.00  0.00    +0.023 A 
ENDBRANCH  21  24
ENDBRANCH  17  18
ENDBRANCH   1  17
TORSDOF 5
