REMARK  Name = ZINC21602132
REMARK  14 active torsions:
REMARK  status: ('A' for Active; 'I' for Inactive)
REMARK    1  A    between atoms: C_1  and  C_2
REMARK    2  A    between atoms: C_2  and  C_4
REMARK    3  A    between atoms: C_2  and  O_13
REMARK    4  A    between atoms: N_9  and  C_10
REMARK    5  A    between atoms: C_10  and  C_11
REMARK    6  A    between atoms: C_10  and  C_12
REMARK    7  A    between atoms: O_13  and  C_14
REMARK    8  A    between atoms: C_14  and  C_16
REMARK    9  A    between atoms: C_17  and  C_18
REMARK   10  A    between atoms: C_21  and  S_24
REMARK   11  A    between atoms: S_24  and  N_27
REMARK   12  A    between atoms: N_27  and  C_28
REMARK   13  A    between atoms: C_31  and  O_34
REMARK   14  A    between atoms: O_34  and  C_35
REMARK                            x       y       z     vdW  Elec       q    Type
REMARK                         _______ _______ _______ _____ _____    ______ ____
ROOT
ATOM      1  C   UNL     1      -6.395   0.538  -4.422  0.00  0.00    -0.025 A 
ATOM      2  C   UNL     1      -6.266  -0.043  -3.156  0.00  0.00    +0.010 A 
ATOM      3  C   UNL     1      -7.101  -1.076  -2.787  0.00  0.00    +0.029 A 
ATOM      4  C   UNL     1      -8.065  -1.539  -3.665  0.00  0.00    +0.109 A 
ATOM      5  C   UNL     1      -8.200  -0.970  -4.919  0.00  0.00    +0.029 A 
ATOM      6  C   UNL     1      -7.376   0.068  -5.301  0.00  0.00    +0.010 A 
ENDROOT
BRANCH   4   7
ATOM      7  S   UNL     1      -9.127  -2.861  -3.184  0.00  0.00    +0.072 S 
ATOM      8  O   UNL     1      -9.480  -3.552  -4.374  0.00  0.00    -0.150 OA
ATOM      9  O   UNL     1      -8.498  -3.507  -2.086  0.00  0.00    -0.150 OA
BRANCH   7  10
ATOM     10  N   UNL     1     -10.519  -2.182  -2.599  0.00  0.00    -0.216 N 
ATOM     11  H   UNL     1     -11.364  -2.348  -3.046  0.00  0.00    +0.174 HD
BRANCH  10  12
ATOM     12  C   UNL     1     -10.477  -1.368  -1.462  0.00  0.00    +0.048 A 
ATOM     13  C   UNL     1     -10.321  -1.939  -0.205  0.00  0.00    +0.028 A 
ATOM     14  C   UNL     1     -10.279  -1.135   0.917  0.00  0.00    +0.047 A 
ATOM     15  C   UNL     1     -10.394   0.241   0.790  0.00  0.00    +0.120 A 
ATOM     16  C   UNL     1     -10.551   0.812  -0.465  0.00  0.00    +0.047 A 
ATOM     17  C   UNL     1     -10.587   0.010  -1.589  0.00  0.00    +0.028 A 
BRANCH  15  18
ATOM     18  O   UNL     1     -10.352   1.032   1.895  0.00  0.00    -0.495 OA
ATOM     19  C   UNL     1     -10.476   2.441   1.691  0.00  0.00    +0.277 C 
ENDBRANCH  15  18
ENDBRANCH  10  12
ENDBRANCH   7  10
ENDBRANCH   4   7
BRANCH   1  21
ATOM     20  C   UNL     1      -4.564   2.091  -3.973  0.00  0.00    +0.092 C 
ATOM     21  C   UNL     1      -5.508   1.641  -4.824  0.00  0.00    +0.015 C 
BRANCH  20  22
ATOM     22  C   UNL     1      -3.682   3.188  -4.372  0.00  0.00    +0.333 C 
ATOM     23  O   UNL     1      -3.801   3.694  -5.472  0.00  0.00    -0.246 OA
BRANCH  22  24
ATOM     24  O   UNL     1      -2.737   3.638  -3.521  0.00  0.00    -0.449 OA
BRANCH  24  26
ATOM     25  C   UNL     1      -2.557   6.047  -3.600  0.00  0.00    +0.062 C 
ATOM     26  C   UNL     1      -1.912   4.712  -3.977  0.00  0.00    +0.259 C 
BRANCH  26  27
ATOM     27  C   UNL     1      -0.554   4.610  -3.332  0.00  0.00    +0.261 C 
ATOM     28  O   UNL     1      -0.344   3.763  -2.490  0.00  0.00    -0.271 OA
ATOM     29  N   UNL     1       0.428   5.461  -3.690  0.00  0.00    -0.237 N 
ATOM     30  C   UNL     1       1.642   5.371  -3.113  0.00  0.00    +0.306 C 
ATOM     31  O   UNL     1       1.853   4.521  -2.269  0.00  0.00    -0.252 OA
ATOM     32  N   UNL     1       2.624   6.222  -3.471  0.00  0.00    -0.297 N 
ATOM     33  H   UNL     1       0.260   6.139  -4.363  0.00  0.00    +0.159 HD
ATOM     34  H   UNL     1       2.457   6.900  -4.145  0.00  0.00    +0.151 HD
BRANCH  32  35
ATOM     35  C   UNL     1       3.944   6.123  -2.844  0.00  0.00    +0.068 C 
ATOM     36  C   UNL     1       4.782   5.077  -3.582  0.00  0.00    +0.027 C 
ATOM     37  C   UNL     1       4.646   7.481  -2.915  0.00  0.00    +0.027 C 
ENDBRANCH  32  35
ENDBRANCH  26  27
ENDBRANCH  24  26
ENDBRANCH  22  24
ENDBRANCH  20  22
ENDBRANCH   1  21
TORSDOF 10
