REMARK  Name = ZINC66591641
REMARK  8 active torsions:
REMARK  status: ('A' for Active; 'I' for Inactive)
REMARK    1  A    between atoms: C_1  and  C_2
REMARK    2  A    between atoms: C_2  and  C_3
REMARK    3  A    between atoms: N_5  and  C_6
REMARK    4  A    between atoms: C_6  and  C_8
REMARK    5  A    between atoms: C_6  and  C_14
REMARK    6  A    between atoms: N_16  and  N_17
REMARK    7  A    between atoms: C_18  and  C_20
REMARK    8  A    between atoms: C_21  and  C_29
REMARK                            x       y       z     vdW  Elec       q    Type
REMARK                         _______ _______ _______ _____ _____    ______ ____
ROOT
ATOM      1  C   UNL     1       2.096  -3.660  -2.416  0.00  0.00    +0.254 C 
ATOM      2  O   UNL     1       1.940  -4.193  -1.338  0.00  0.00    -0.272 OA
ATOM      3  N   UNL     1       2.773  -4.298  -3.391  0.00  0.00    -0.232 N 
ATOM      4  H   UNL     1       2.897  -3.871  -4.254  0.00  0.00    +0.173 HD
ENDROOT
BRANCH   3   5
ATOM      5  N   UNL     1       3.296  -5.576  -3.160  0.00  0.00    -0.228 N 
ATOM      6  C   UNL     1       3.974  -6.214  -4.135  0.00  0.00    +0.296 C 
ATOM      7  O   UNL     1       4.130  -5.679  -5.217  0.00  0.00    -0.265 OA
ATOM      8  H   UNL     1       3.172  -6.003  -2.297  0.00  0.00    +0.173 HD
BRANCH   6   9
ATOM      9  C   UNL     1       4.523  -7.555  -3.892  0.00  0.00    +0.195 A 
ATOM     10  C   UNL     1       5.224  -8.288  -4.795  0.00  0.00    +0.008 A 
ATOM     11  C   UNL     1       5.565  -9.541  -4.123  0.00  0.00    +0.024 A 
ATOM     12  C   UNL     1       6.263 -10.691  -4.502  0.00  0.00    +0.012 A 
ATOM     13  C   UNL     1       6.410 -11.717  -3.612  0.00  0.00    +0.001 A 
ATOM     14  C   UNL     1       5.872 -11.625  -2.336  0.00  0.00    +0.004 A 
ATOM     15  C   UNL     1       5.180 -10.500  -1.943  0.00  0.00    +0.047 A 
ATOM     16  C   UNL     1       5.017  -9.442  -2.831  0.00  0.00    +0.136 A 
ATOM     17  O   UNL     1       4.412  -8.242  -2.736  0.00  0.00    -0.450 OA
ATOM     18  C   UNL     1       5.579  -7.890  -6.205  0.00  0.00    +0.048 C 
ENDBRANCH   6   9
ENDBRANCH   3   5
BRANCH   1  19
ATOM     19  C   UNL     1       1.532  -2.285  -2.665  0.00  0.00    +0.191 C 
BRANCH  19  20
ATOM     20  C   UNL     1       0.554  -2.342  -3.809  0.00  0.00    -0.018 A 
ATOM     21  C   UNL     1      -0.737  -2.788  -3.594  0.00  0.00    +0.006 A 
ATOM     22  C   UNL     1      -1.634  -2.841  -4.644  0.00  0.00    +0.000 A 
ATOM     23  C   UNL     1      -1.242  -2.448  -5.909  0.00  0.00    +0.000 A 
ATOM     24  C   UNL     1       0.049  -2.001  -6.125  0.00  0.00    +0.000 A 
ATOM     25  C   UNL     1       0.945  -1.944  -5.074  0.00  0.00    +0.006 A 
ENDBRANCH  19  20
BRANCH  19  28
ATOM     26  C   UNL     1       0.707  -0.490  -1.238  0.00  0.00    +0.214 C 
ATOM     27  O   UNL     1       1.150   0.308  -2.036  0.00  0.00    -0.276 OA
ATOM     28  N   UNL     1       0.847  -1.812  -1.460  0.00  0.00    -0.300 N 
ATOM     29  H   UNL     1       0.493  -2.451  -0.821  0.00  0.00    +0.150 HD
BRANCH  26  31
ATOM     30  C   UNL     1      -0.019   1.526   0.010  0.00  0.00    +0.013 C 
ATOM     31  C   UNL     1       0.002  -0.004   0.002  0.00  0.00    +0.092 C 
ENDBRANCH  26  31
ENDBRANCH  19  28
ENDBRANCH   1  19
TORSDOF 6
