REMARK  Name = ZINC00059326
REMARK  6 active torsions:
REMARK  status: ('A' for Active; 'I' for Inactive)
REMARK    1  A    between atoms: C_1  and  C_2
REMARK    2  A    between atoms: C_2  and  C_3
REMARK    3  A    between atoms: C_3  and  C_23
REMARK    4  A    between atoms: C_11  and  C_14
REMARK    5  A    between atoms: C_17  and  N_20
REMARK    6  A    between atoms: C_23  and  C_24
REMARK                            x       y       z     vdW  Elec       q    Type
REMARK                         _______ _______ _______ _____ _____    ______ ____
ROOT
ATOM      1  C   UNL     1       4.741   1.378  -0.465  0.00  0.00    +0.098 C 
ATOM      2  C   UNL     1       4.803  -0.003  -1.064  0.00  0.00    +0.005 A 
ATOM      3  C   UNL     1       6.021  -0.533  -1.446  0.00  0.00    +0.008 A 
ATOM      4  C   UNL     1       6.085  -1.800  -1.994  0.00  0.00    +0.000 A 
ATOM      5  C   UNL     1       4.932  -2.546  -2.161  0.00  0.00    +0.002 A 
ATOM      6  C   UNL     1       3.711  -2.024  -1.781  0.00  0.00    +0.023 A 
ATOM      7  C   UNL     1       3.645  -0.751  -1.233  0.00  0.00    +0.035 A 
ATOM      8  N   UNL     1       2.410  -0.210  -0.853  0.00  0.00    -0.315 N 
ATOM      9  C   UNL     1       2.416   1.004  -0.022  0.00  0.00    +0.236 C 
ATOM     10  O   UNL     1       3.411   1.892  -0.548  0.00  0.00    -0.344 OA
ATOM     11  H   UNL     1       1.577  -0.624  -1.128  0.00  0.00    +0.149 HD
ENDROOT
BRANCH   9  12
ATOM     12  C   UNL     1       1.063   1.665  -0.074  0.00  0.00    -0.001 A 
ATOM     13  C   UNL     1      -0.084   0.896  -0.020  0.00  0.00    +0.010 A 
ATOM     14  C   UNL     1      -1.326   1.501  -0.074  0.00  0.00    +0.033 A 
ATOM     15  C   UNL     1      -1.420   2.877  -0.172  0.00  0.00    +0.126 A 
ATOM     16  C   UNL     1      -0.273   3.646  -0.226  0.00  0.00    +0.033 A 
ATOM     17  C   UNL     1       0.969   3.040  -0.177  0.00  0.00    +0.010 A 
BRANCH  15  18
ATOM     18  N   UNL     1      -2.749   3.526  -0.223  0.00  0.00    +0.056 N 
ATOM     19  O   UNL     1      -2.832   4.738  -0.313  0.00  0.00    -0.126 OA
ATOM     20  O   UNL     1      -3.760   2.849  -0.176  0.00  0.00    -0.126 OA
ENDBRANCH  15  18
ENDBRANCH   9  12
BRANCH   1  22
ATOM     21  C   UNL     1       5.266   2.372  -2.697  0.00  0.00    +0.007 C 
ATOM     22  C   UNL     1       5.690   2.304  -1.228  0.00  0.00    +0.036 C 
ENDBRANCH   1  22
BRANCH   1  23
ATOM     23  C   UNL     1       5.168   1.311   1.002  0.00  0.00    +0.036 C 
ATOM     24  C   UNL     1       5.108   2.711   1.615  0.00  0.00    +0.007 C 
ENDBRANCH   1  23
TORSDOF 4
