REMARK  Name = ZINC16267133
REMARK  4 active torsions:
REMARK  status: ('A' for Active; 'I' for Inactive)
REMARK    1  A    between atoms: C_4  and  C_7
REMARK    2  A    between atoms: C_10  and  C_29
REMARK    3  A    between atoms: N_12  and  C_13
REMARK    4  A    between atoms: C_16  and  C_19
REMARK                            x       y       z     vdW  Elec       q    Type
REMARK                         _______ _______ _______ _____ _____    ______ ____
ROOT
ATOM      1  C   UNL     1       3.576   1.675   0.799  0.00  0.00    +0.052 A 
ATOM      2  C   UNL     1       4.217   0.547   0.285  0.00  0.00    +0.025 A 
ATOM      3  C   UNL     1       5.550   0.589  -0.002  0.00  0.00    +0.010 A 
ATOM      4  C   UNL     1       6.280   1.766   0.232  0.00  0.00    -0.024 A 
ATOM      5  C   UNL     1       5.631   2.897   0.756  0.00  0.00    +0.010 A 
ATOM      6  C   UNL     1       4.297   2.846   1.034  0.00  0.00    +0.025 A 
ENDROOT
BRANCH   4   7
ATOM      7  C   UNL     1       7.667   1.813  -0.058  0.00  0.00    +0.026 C 
ATOM      8  C   UNL     1       8.194   2.893  -0.744  0.00  0.00    +0.100 C 
ATOM      9  C   UNL     1       7.324   3.895  -1.388  0.00  0.00    +0.256 C 
ATOM     10  O   UNL     1       6.113   3.799  -1.334  0.00  0.00    -0.270 OA
ATOM     11  N   UNL     1       7.909   4.925  -2.035  0.00  0.00    -0.236 N 
ATOM     12  C   UNL     1       9.243   5.040  -2.107  0.00  0.00    +0.313 C 
ATOM     13  O   UNL     1       9.706   5.989  -2.709  0.00  0.00    -0.252 OA
ATOM     14  N   UNL     1      10.093   4.166  -1.552  0.00  0.00    -0.236 N 
ATOM     15  C   UNL     1       9.652   3.090  -0.868  0.00  0.00    +0.256 C 
ATOM     16  O   UNL     1      10.434   2.303  -0.368  0.00  0.00    -0.270 OA
ATOM     17  H   UNL     1       7.352   5.595  -2.461  0.00  0.00    +0.159 HD
ATOM     18  H   UNL     1      11.048   4.310  -1.643  0.00  0.00    +0.159 HD
ENDBRANCH   4   7
BRANCH   1  23
ATOM     19  C   UNL     1       1.344   0.463   0.887  0.00  0.00    +0.134 C 
ATOM     20  C   UNL     1      -0.035   0.964   1.361  0.00  0.00    +0.087 C 
ATOM     21  C   UNL     1       0.222   2.392   1.784  0.00  0.00    +0.069 C 
ATOM     22  N   UNL     1       1.466   2.678   1.604  0.00  0.00    -0.183 NA
ATOM     23  N   UNL     1       2.221   1.629   1.084  0.00  0.00    -0.216 N 
BRANCH  19  27
ATOM     24  C   UNL     1       2.653  -2.825   3.278  0.00  0.00    +0.000 A 
ATOM     25  C   UNL     1       2.089  -3.054   2.037  0.00  0.00    +0.000 A 
ATOM     26  C   UNL     1       1.665  -1.990   1.263  0.00  0.00    +0.005 A 
ATOM     27  C   UNL     1       1.806  -0.697   1.730  0.00  0.00    -0.025 A 
ATOM     28  C   UNL     1       2.375  -0.467   2.969  0.00  0.00    +0.005 A 
ATOM     29  C   UNL     1       2.794  -1.532   3.745  0.00  0.00    +0.000 A 
ENDBRANCH  19  27
BRANCH  21  30
ATOM     30  C   UNL     1      -0.795   3.318   2.315  0.00  0.00    -0.002 A 
ATOM     31  C   UNL     1      -2.121   2.899   2.456  0.00  0.00    +0.010 A 
ATOM     32  C   UNL     1      -3.066   3.769   2.959  0.00  0.00    +0.001 A 
ATOM     33  C   UNL     1      -2.706   5.058   3.312  0.00  0.00    +0.000 A 
ATOM     34  C   UNL     1      -1.397   5.481   3.171  0.00  0.00    +0.001 A 
ATOM     35  C   UNL     1      -0.440   4.621   2.675  0.00  0.00    +0.010 A 
ENDBRANCH  21  30
ENDBRANCH   1  23
TORSDOF 4
