REMARK  Name = ZINC63694295
REMARK  5 active torsions:
REMARK  status: ('A' for Active; 'I' for Inactive)
REMARK    1  A    between atoms: C_1  and  C_2
REMARK    2  A    between atoms: C_7  and  N_12
REMARK    3  A    between atoms: C_15  and  C_18
REMARK    4  A    between atoms: N_23  and  C_26
REMARK    5  A    between atoms: C_26  and  C_27
REMARK                            x       y       z     vdW  Elec       q    Type
REMARK                         _______ _______ _______ _____ _____    ______ ____
ROOT
ATOM      1  N   UNL     1      -1.124  -5.094   1.940  0.00  0.00    -0.266 NA
ATOM      2  C   UNL     1      -2.352  -4.398   1.533  0.00  0.00    +0.089 C 
ATOM      3  C   UNL     1      -3.568  -5.134   2.099  0.00  0.00    +0.028 C 
ATOM      4  C   UNL     1      -3.577  -6.573   1.575  0.00  0.00    +0.078 C 
ATOM      5  C   UNL     1      -2.267  -7.260   1.971  0.00  0.00    +0.028 C 
ATOM      6  C   UNL     1      -1.089  -6.462   1.408  0.00  0.00    +0.089 C 
ENDROOT
BRANCH   1  13
ATOM      7  C   UNL     1      -0.014   1.488  -0.037  0.00  0.00    +0.044 C 
ATOM      8  C   UNL     1       0.006  -0.018  -0.036  0.00  0.00    -0.048 A 
ATOM      9  C   UNL     1       0.011  -0.694  -1.269  0.00  0.00    +0.005 A 
ATOM     10  C   UNL     1       0.029  -2.039  -1.361  0.00  0.00    +0.028 A 
ATOM     11  C   UNL     1       0.044  -2.849  -0.135  0.00  0.00    +0.061 A 
ATOM     12  N   UNL     1       0.061  -4.133   0.077  0.00  0.00    -0.351 N 
ATOM     13  C   UNL     1       0.068  -4.339   1.531  0.00  0.00    +0.252 C 
ATOM     14  N   UNL     1       0.053  -3.003   2.139  0.00  0.00    -0.351 N 
ATOM     15  C   UNL     1       0.039  -2.134   1.171  0.00  0.00    +0.061 A 
ATOM     16  C   UNL     1       0.024  -0.664   1.147  0.00  0.00    +0.030 A 
ATOM     17  H   UNL     1       0.067  -4.827  -0.601  0.00  0.00    +0.163 HD
ATOM     18  H   UNL     1       0.054  -2.804   3.089  0.00  0.00    +0.163 HD
ENDBRANCH   1  13
BRANCH   4  19
ATOM     19  C   UNL     1      -4.739  -7.321   2.177  0.00  0.00    +0.219 C 
ATOM     20  O   UNL     1      -4.577  -7.995   3.171  0.00  0.00    -0.275 OA
ATOM     21  N   UNL     1      -5.959  -7.239   1.609  0.00  0.00    -0.299 N 
ATOM     22  C   UNL     1      -6.156  -6.518   0.343  0.00  0.00    +0.123 C 
ATOM     23  C   UNL     1      -7.312  -5.529   0.520  0.00  0.00    +0.103 C 
ATOM     24  N   UNL     1      -8.494  -6.246   1.017  0.00  0.00    -0.295 NA
ATOM     25  C   UNL     1      -8.247  -6.827   2.343  0.00  0.00    +0.103 C 
ATOM     26  C   UNL     1      -7.128  -7.875   2.237  0.00  0.00    +0.123 C 
BRANCH  24  27
ATOM     27  C   UNL     1      -9.672  -5.369   1.038  0.00  0.00    +0.119 C 
BRANCH  27  28
ATOM     28  C   UNL     1     -10.906  -6.190   1.313  0.00  0.00    -0.033 A 
ATOM     29  C   UNL     1     -11.616  -6.743   0.264  0.00  0.00    +0.005 A 
ATOM     30  C   UNL     1     -12.748  -7.497   0.517  0.00  0.00    +0.000 A 
ATOM     31  C   UNL     1     -13.168  -7.697   1.819  0.00  0.00    +0.000 A 
ATOM     32  C   UNL     1     -12.456  -7.145   2.867  0.00  0.00    +0.000 A 
ATOM     33  C   UNL     1     -11.323  -6.396   2.615  0.00  0.00    +0.005 A 
ENDBRANCH  27  28
ENDBRANCH  24  27
ENDBRANCH   4  19
TORSDOF 4
