REMARK  Name = ZINC38337204
REMARK  8 active torsions:
REMARK  status: ('A' for Active; 'I' for Inactive)
REMARK    1  A    between atoms: C_1  and  C_2
REMARK    2  A    between atoms: C_3  and  N_37
REMARK    3  A    between atoms: C_5  and  C_28
REMARK    4  A    between atoms: C_10  and  C_27
REMARK    5  A    between atoms: C_13  and  N_26
REMARK    6  A    between atoms: C_14  and  C_17
REMARK    7  A    between atoms: C_17  and  C_19
REMARK    8  A    between atoms: C_28  and  C_30
REMARK                            x       y       z     vdW  Elec       q    Type
REMARK                         _______ _______ _______ _____ _____    ______ ____
ROOT
ATOM      1  C   UNL     1       0.539   1.734   0.123  0.00  0.00    +0.049 C 
ATOM      2  C   UNL     1       0.632   0.231   0.072  0.00  0.00    +0.015 A 
ATOM      3  C   UNL     1       0.877  -0.398  -1.138  0.00  0.00    +0.032 A 
ATOM      4  C   UNL     1       0.969  -1.788  -1.226  0.00  0.00    +0.036 A 
ATOM      5  C   UNL     1       0.816  -2.571  -0.089  0.00  0.00    +0.051 A 
ATOM      6  C   UNL     1       0.557  -1.913   1.195  0.00  0.00    +0.118 A 
ATOM      7  C   UNL     1       0.476  -0.504   1.239  0.00  0.00    +0.159 A 
ATOM      8  O   UNL     1       0.242   0.131   2.410  0.00  0.00    -0.451 OA
ATOM      9  C   UNL     1       0.092  -0.596   3.538  0.00  0.00    +0.161 A 
ATOM     10  C   UNL     1      -0.148   0.021   4.746  0.00  0.00    +0.042 A 
ATOM     11  C   UNL     1      -0.304  -0.728   5.916  0.00  0.00    +0.207 A 
ATOM     12  O   UNL     1      -0.516  -0.154   6.974  0.00  0.00    -0.286 OA
ATOM     13  C   UNL     1      -0.218  -2.196   5.891  0.00  0.00    +0.085 A 
ATOM     14  C   UNL     1       0.023  -2.856   4.690  0.00  0.00    +0.073 A 
ATOM     15  C   UNL     1       0.187  -2.059   3.464  0.00  0.00    +0.120 A 
ATOM     16  N   UNL     1       0.405  -2.645   2.301  0.00  0.00    -0.239 NA
ATOM     17  C   UNL     1      -0.243   1.524   4.806  0.00  0.00    +0.052 C 
ENDROOT
BRANCH  13  18
ATOM     18  N   UNL     1      -0.374  -2.916   7.053  0.00  0.00    -0.354 N 
ATOM     19  H   UNL     1      -0.610  -2.461   7.877  0.00  0.00    +0.142 HD
ATOM     20  H   UNL     1      -0.248  -3.877   7.049  0.00  0.00    +0.142 HD
ENDBRANCH  13  18
BRANCH   3  21
ATOM     21  N   UNL     1       1.033   0.370  -2.285  0.00  0.00    -0.358 N 
ATOM     22  H   UNL     1       0.970   1.336  -2.234  0.00  0.00    +0.142 HD
ATOM     23  H   UNL     1       1.205  -0.061  -3.137  0.00  0.00    +0.142 HD
ENDBRANCH   3  21
BRANCH  14  24
ATOM     24  C   UNL     1       0.113  -4.314   4.647  0.00  0.00    +0.196 C 
ATOM     25  O   UNL     1       1.028  -4.883   5.206  0.00  0.00    -0.289 OA
BRANCH  24  26
ATOM     26  C   UNL     1      -0.931  -5.112   3.908  0.00  0.00    +0.189 C 
ATOM     27  C   UNL     1      -2.209  -5.183   4.749  0.00  0.00    +0.040 C 
ATOM     28  C   UNL     1      -3.243  -6.045   4.019  0.00  0.00    +0.005 C 
ATOM     29  C   UNL     1      -2.643  -7.430   3.755  0.00  0.00    +0.028 C 
ATOM     30  C   UNL     1      -1.349  -7.272   2.953  0.00  0.00    +0.161 C 
ATOM     31  O   UNL     1      -0.443  -6.434   3.674  0.00  0.00    -0.369 OA
ENDBRANCH  24  26
ENDBRANCH  14  24
BRANCH   5  32
ATOM     32  C   UNL     1       0.911  -4.035  -0.172  0.00  0.00    +0.194 C 
ATOM     33  O   UNL     1       0.872  -4.704   0.839  0.00  0.00    -0.289 OA
BRANCH  32  34
ATOM     34  C   UNL     1       1.058  -4.706  -1.514  0.00  0.00    +0.189 C 
ATOM     35  C   UNL     1       2.517  -4.624  -1.969  0.00  0.00    +0.040 C 
ATOM     36  C   UNL     1       2.669  -5.359  -3.304  0.00  0.00    +0.005 C 
ATOM     37  C   UNL     1       2.194  -6.806  -3.134  0.00  0.00    +0.028 C 
ATOM     38  C   UNL     1       0.747  -6.803  -2.634  0.00  0.00    +0.161 C 
ATOM     39  O   UNL     1       0.670  -6.077  -1.406  0.00  0.00    -0.369 OA
ENDBRANCH  32  34
ENDBRANCH   5  32
TORSDOF 6
