REMARK  Name = ZINC63695883
REMARK  4 active torsions:
REMARK  status: ('A' for Active; 'I' for Inactive)
REMARK    1  A    between atoms: C_3  and  C_6
REMARK    2  A    between atoms: C_6  and  N_7
REMARK    3  A    between atoms: C_8  and  C_10
REMARK    4  A    between atoms: N_15  and  C_17
REMARK                            x       y       z     vdW  Elec       q    Type
REMARK                         _______ _______ _______ _____ _____    ______ ____
ROOT
ATOM      1  C   UNL     1       5.944   0.555   2.996  0.00  0.00    +0.089 C 
ATOM      2  C   UNL     1       5.472   1.814   3.729  0.00  0.00    +0.015 C 
ATOM      3  C   UNL     1       6.050   1.817   5.147  0.00  0.00    +0.016 C 
ATOM      4  C   UNL     1       7.577   1.747   5.070  0.00  0.00    +0.088 C 
ATOM      5  N   UNL     1       7.978   0.526   4.361  0.00  0.00    -0.265 NA
ATOM      6  C   UNL     1       7.474   0.522   2.981  0.00  0.00    +0.100 C 
ENDROOT
BRANCH   5   7
ATOM      7  C   UNL     1       9.437   0.356   4.388  0.00  0.00    +0.252 C 
ATOM      8  N   UNL     1       9.910   0.288   5.777  0.00  0.00    -0.351 N 
ATOM      9  C   UNL     1      10.730   1.282   5.959  0.00  0.00    +0.061 A 
ATOM     10  C   UNL     1      11.510   1.733   7.120  0.00  0.00    +0.029 A 
ATOM     11  C   UNL     1      12.294   2.824   7.011  0.00  0.00    +0.022 A 
ATOM     12  C   UNL     1      12.403   3.564   5.818  0.00  0.00    +0.043 A 
ATOM     13  C   UNL     1      11.731   3.235   4.695  0.00  0.00    +0.047 A 
ATOM     14  C   UNL     1      10.846   2.063   4.697  0.00  0.00    +0.063 A 
ATOM     15  N   UNL     1      10.092   1.522   3.783  0.00  0.00    -0.351 N 
ATOM     16 CL   UNL     1      13.444   4.953   5.791  0.00  0.00    -0.083 Cl
ATOM     17  H   UNL     1       9.656  -0.375   6.438  0.00  0.00    +0.163 HD
ATOM     18  H   UNL     1       9.983   1.831   2.870  0.00  0.00    +0.163 HD
ENDBRANCH   5   7
BRANCH   1  20
ATOM     19  N   UNL     1       4.101   0.607   1.347  0.00  0.00    -0.308 N 
ATOM     20  C   UNL     1       5.428   0.575   1.580  0.00  0.00    +0.218 C 
ATOM     21  O   UNL     1       6.207   0.561   0.650  0.00  0.00    -0.275 OA
ATOM     22  H   UNL     1       3.478   0.617   2.090  0.00  0.00    +0.149 HD
BRANCH  19  23
ATOM     23  C   UNL     1       3.599   0.625  -0.029  0.00  0.00    +0.178 C 
BRANCH  23  26
ATOM     24  C   UNL     1      -0.016   1.341   0.009  0.00  0.00    +0.041 A 
ATOM     25  C   UNL     1       1.331   1.769  -0.001  0.00  0.00    +0.046 A 
ATOM     26  C   UNL     1       2.092   0.660  -0.014  0.00  0.00    +0.122 A 
ATOM     27  O   UNL     1       1.282  -0.411  -0.012  0.00  0.00    -0.466 OA
ATOM     28  C   UNL     1       0.002  -0.004   0.002  0.00  0.00    +0.195 A 
ENDBRANCH  23  26
ENDBRANCH  19  23
ENDBRANCH   1  20
TORSDOF 4
