REMARK  Name = ZINC16867122
REMARK  10 active torsions:
REMARK  status: ('A' for Active; 'I' for Inactive)
REMARK    1  A    between atoms: C_1  and  C_2
REMARK    2  A    between atoms: C_5  and  C_32
REMARK    3  A    between atoms: C_6  and  N_8
REMARK    4  A    between atoms: C_13  and  C_15
REMARK    5  A    between atoms: C_15  and  O_17
REMARK    6  A    between atoms: O_17  and  C_18
REMARK    7  A    between atoms: C_18  and  C_20
REMARK    8  A    between atoms: C_18  and  C_21
REMARK    9  A    between atoms: N_23  and  C_24
REMARK   10  A    between atoms: C_25  and  C_29
REMARK                            x       y       z     vdW  Elec       q    Type
REMARK                         _______ _______ _______ _____ _____    ______ ____
ROOT
ATOM      1  C   UNL     1      -1.692   0.779  -1.663  0.00  0.00    +0.356 C 
ATOM      2  O   UNL     1      -1.949  -0.281  -1.126  0.00  0.00    -0.244 OA
ENDROOT
BRANCH   1   8
ATOM      3  N   UNL     1      -2.859   2.769  -4.547  0.00  0.00    -0.160 N 
ATOM      4  C   UNL     1      -4.061   2.243  -4.851  0.00  0.00    +0.240 C 
ATOM      5  O   UNL     1      -4.664   2.628  -5.830  0.00  0.00    -0.273 OA
ATOM      6  C   UNL     1      -4.656   1.175  -3.968  0.00  0.00    +0.104 C 
ATOM      7  C   UNL     1      -3.527   0.311  -3.396  0.00  0.00    +0.074 C 
ATOM      8  C   UNL     1      -2.443   1.201  -2.849  0.00  0.00    +0.144 C 
ATOM      9  N   UNL     1      -2.161   2.334  -3.416  0.00  0.00    -0.170 NA
BRANCH   3  15
ATOM     10  C   UNL     1      -1.415   4.242  -9.011  0.00  0.00    +0.044 C 
ATOM     11  C   UNL     1      -1.593   4.497  -7.537  0.00  0.00    -0.049 A 
ATOM     12  C   UNL     1      -1.207   5.710  -6.994  0.00  0.00    +0.004 A 
ATOM     13  C   UNL     1      -1.369   5.949  -5.642  0.00  0.00    +0.005 A 
ATOM     14  C   UNL     1      -1.920   4.978  -4.829  0.00  0.00    -0.027 A 
ATOM     15  C   UNL     1      -2.304   3.757  -5.369  0.00  0.00    +0.063 A 
ATOM     16  C   UNL     1      -2.140   3.521  -6.728  0.00  0.00    +0.029 A 
ATOM     17  C   UNL     1      -2.102   5.241  -3.356  0.00  0.00    +0.046 C 
ENDBRANCH   3  15
ENDBRANCH   1   8
BRANCH   1  18
ATOM     18  O   UNL     1      -0.715   1.567  -1.168  0.00  0.00    -0.448 OA
BRANCH  18  19
ATOM     19  C   UNL     1      -0.013   1.086   0.008  0.00  0.00    +0.259 C 
ATOM     20  C   UNL     1      -0.729   1.579   1.267  0.00  0.00    +0.062 C 
BRANCH  19  21
ATOM     21  C   UNL     1       1.401   1.607  -0.003  0.00  0.00    +0.258 C 
ATOM     22  O   UNL     1       1.753   2.387  -0.862  0.00  0.00    -0.271 OA
ATOM     23  N   UNL     1       2.274   1.208   0.943  0.00  0.00    -0.276 N 
ATOM     24  H   UNL     1       1.992   0.584   1.631  0.00  0.00    +0.155 HD
BRANCH  23  25
ATOM     25  C   UNL     1       3.575   1.687   0.933  0.00  0.00    +0.084 A 
ATOM     26  C   UNL     1       4.608   1.400   1.817  0.00  0.00    +0.065 A 
ATOM     27  C   UNL     1       5.875   2.043   1.566  0.00  0.00    +0.022 A 
ATOM     28  C   UNL     1       5.945   2.871   0.508  0.00  0.00    +0.048 A 
ATOM     29  S   UNL     1       4.304   2.796  -0.179  0.00  0.00    -0.081 S 
BRANCH  26  30
ATOM     30  C   UNL     1       4.421   0.484   2.947  0.00  0.00    +0.244 C 
ATOM     31  O   UNL     1       3.340  -0.045   3.129  0.00  0.00    -0.270 OA
ATOM     32  N   UNL     1       5.446   0.229   3.784  0.00  0.00    -0.325 N 
ATOM     33  H   UNL     1       6.307   0.650   3.639  0.00  0.00    +0.145 HD
ATOM     34  H   UNL     1       5.322  -0.377   4.532  0.00  0.00    +0.145 HD
ENDBRANCH  26  30
ENDBRANCH  23  25
ENDBRANCH  19  21
ENDBRANCH  18  19
ENDBRANCH   1  18
TORSDOF 7
