REMARK  Name = ZINC30712758
REMARK  6 active torsions:
REMARK  status: ('A' for Active; 'I' for Inactive)
REMARK    1  A    between atoms: C_1  and  C_2
REMARK    2  A    between atoms: C_2  and  C_3
REMARK    3  A    between atoms: C_2  and  C_4
REMARK    4  A    between atoms: C_2  and  C_5
REMARK    5  A    between atoms: C_8  and  C_11
REMARK    6  A    between atoms: C_11  and  N_13
REMARK                            x       y       z     vdW  Elec       q    Type
REMARK                         _______ _______ _______ _____ _____    ______ ____
ROOT
ATOM      1  C   UNL     1       2.697  -1.861  -4.735  0.00  0.00    +0.270 C 
ATOM      2  O   UNL     1       2.105  -2.562  -5.538  0.00  0.00    -0.268 OA
ENDROOT
BRANCH   1   3
ATOM      3  N   UNL     1       3.968  -1.524  -4.954  0.00  0.00    -0.141 NA
ATOM      4  C   UNL     1       4.593  -1.955  -6.051  0.00  0.00    +0.223 A 
ATOM      5  N   UNL     1       4.060  -2.727  -7.019  0.00  0.00    -0.246 N 
ATOM      6  N   UNL     1       5.052  -2.944  -7.984  0.00  0.00    -0.153 NA
ATOM      7  C   UNL     1       6.142  -2.320  -7.599  0.00  0.00    +0.160 A 
ATOM      8  N   UNL     1       5.885  -1.689  -6.399  0.00  0.00    -0.271 N 
ATOM      9  C   UNL     1       6.868  -0.957  -5.782  0.00  0.00    +0.096 A 
ATOM     10  C   UNL     1       8.089  -0.842  -6.337  0.00  0.00    +0.018 A 
ATOM     11  C   UNL     1       8.380  -1.471  -7.563  0.00  0.00    +0.005 A 
ATOM     12  C   UNL     1       7.426  -2.206  -8.188  0.00  0.00    +0.048 A 
ATOM     13  H   UNL     1       3.153  -3.069  -7.043  0.00  0.00    +0.192 HD
ENDBRANCH   1   3
BRANCH   1  17
ATOM     14  C   UNL     1       0.707  -0.490  -1.238  0.00  0.00    -0.042 A 
ATOM     15  C   UNL     1       0.033  -1.285  -2.147  0.00  0.00    +0.005 A 
ATOM     16  C   UNL     1       0.673  -1.733  -3.284  0.00  0.00    +0.013 A 
ATOM     17  C   UNL     1       2.003  -1.383  -3.516  0.00  0.00    +0.039 A 
ATOM     18  C   UNL     1       2.678  -0.581  -2.596  0.00  0.00    +0.013 A 
ATOM     19  C   UNL     1       2.025  -0.135  -1.465  0.00  0.00    +0.005 A 
BRANCH  14  21
ATOM     20  C   UNL     1      -0.019   1.526   0.010  0.00  0.00    +0.015 C 
ATOM     21  C   UNL     1       0.002  -0.004   0.002  0.00  0.00    -0.013 C 
ATOM     22  C   UNL     1       0.742  -0.511   1.242  0.00  0.00    +0.015 C 
ATOM     23  C   UNL     1      -1.433  -0.534   0.013  0.00  0.00    +0.015 C 
ENDBRANCH  14  21
ENDBRANCH   1  17
TORSDOF 3
