REMARK  Name = ZINC22439184
REMARK  6 active torsions:
REMARK  status: ('A' for Active; 'I' for Inactive)
REMARK    1  A    between atoms: C_1  and  C_2
REMARK    2  A    between atoms: C_5  and  C_8
REMARK    3  A    between atoms: C_5  and  N_23
REMARK    4  A    between atoms: N_12  and  C_13
REMARK    5  A    between atoms: N_23  and  C_24
REMARK    6  A    between atoms: C_24  and  C_25
REMARK                            x       y       z     vdW  Elec       q    Type
REMARK                         _______ _______ _______ _____ _____    ______ ____
ROOT
ATOM      1  C   UNL     1      -4.685   1.916   5.002  0.00  0.00    +0.007 C 
ATOM      2  C   UNL     1      -4.705   2.922   3.849  0.00  0.00    -0.014 C 
ATOM      3  C   UNL     1      -5.959   2.702   3.002  0.00  0.00    +0.002 C 
ATOM      4  C   UNL     1      -5.949   1.280   2.437  0.00  0.00    -0.004 C 
ATOM      5  C   UNL     1      -4.705   1.085   1.567  0.00  0.00    -0.005 C 
ATOM      6  C   UNL     1      -3.451   1.306   2.415  0.00  0.00    -0.004 C 
ATOM      7  C   UNL     1      -3.461   2.727   2.980  0.00  0.00    +0.002 C 
ENDROOT
BRANCH   5   8
ATOM      8  C   UNL     1      -4.696  -0.316   1.011  0.00  0.00    +0.146 A 
ATOM      9  N   UNL     1      -4.172  -1.371   1.578  0.00  0.00    -0.114 NA
ATOM     10  N   UNL     1      -4.330  -2.408   0.837  0.00  0.00    -0.023 NA
ATOM     11  N   UNL     1      -4.964  -2.093  -0.241  0.00  0.00    -0.039 NA
ATOM     12  N   UNL     1      -5.228  -0.714  -0.164  0.00  0.00    -0.198 N 
BRANCH  12  13
ATOM     13  C   UNL     1      -5.897   0.079  -1.109  0.00  0.00    +0.073 A 
ATOM     14  C   UNL     1      -6.691   1.138  -0.690  0.00  0.00    +0.032 A 
ATOM     15  C   UNL     1      -7.353   1.916  -1.619  0.00  0.00    +0.051 A 
ATOM     16  C   UNL     1      -7.223   1.647  -2.973  0.00  0.00    +0.162 A 
ATOM     17  C   UNL     1      -6.427   0.588  -3.396  0.00  0.00    +0.164 A 
ATOM     18  C   UNL     1      -5.766  -0.195  -2.463  0.00  0.00    +0.077 A 
ATOM     19  O   UNL     1      -6.285   0.309  -4.721  0.00  0.00    -0.485 OA
ATOM     20  C   UNL     1      -7.257   0.877  -5.605  0.00  0.00    +0.270 C 
ATOM     21  C   UNL     1      -7.439   2.355  -5.233  0.00  0.00    +0.270 C 
ATOM     22  O   UNL     1      -7.884   2.424  -3.874  0.00  0.00    -0.485 OA
ENDBRANCH  12  13
ENDBRANCH   5   8
BRANCH   5  23
ATOM     23  N   UNL     1      -4.725   2.051   0.461  0.00  0.00    +0.390 N 
ATOM     24  H   UNL     1      -5.565   1.822  -0.211  0.00  0.00    -0.084 HD
ATOM     25  H   UNL     1      -4.845   3.067   0.864  0.00  0.00    -0.084 HD
BRANCH  23  26
ATOM     26  C   UNL     1      -3.475   1.994  -0.309  0.00  0.00    -0.045 C 
BRANCH  26  27
ATOM     27  C   UNL     1      -3.458   3.112  -1.320  0.00  0.00    -0.064 A 
ATOM     28  C   UNL     1      -3.971   2.906  -2.587  0.00  0.00    +0.002 A 
ATOM     29  C   UNL     1      -3.959   3.933  -3.513  0.00  0.00    +0.000 A 
ATOM     30  C   UNL     1      -3.424   5.162  -3.175  0.00  0.00    +0.000 A 
ATOM     31  C   UNL     1      -2.905   5.366  -1.910  0.00  0.00    +0.000 A 
ATOM     32  C   UNL     1      -2.922   4.341  -0.983  0.00  0.00    +0.002 A 
ENDBRANCH  26  27
ENDBRANCH  23  26
ENDBRANCH   5  23
TORSDOF 5
