REMARK  Name = ZINC40086908
REMARK  4 active torsions:
REMARK  status: ('A' for Active; 'I' for Inactive)
REMARK    1  A    between atoms: C_1  and  C_2
REMARK    2  A    between atoms: C_3  and  N_25
REMARK    3  A    between atoms: C_5  and  C_7
REMARK    4  A    between atoms: N_9  and  C_10
REMARK                            x       y       z     vdW  Elec       q    Type
REMARK                         _______ _______ _______ _____ _____    ______ ____
ROOT
ATOM      1  C   UNL     1       1.742  -3.651  -1.110  0.00  0.00    +0.251 C 
ATOM      2  O   UNL     1       1.611  -4.360  -2.091  0.00  0.00    -0.270 OA
ATOM      3  N   UNL     1       2.413  -4.108  -0.034  0.00  0.00    -0.308 N 
ATOM      4  H   UNL     1       2.518  -3.543   0.748  0.00  0.00    +0.149 HD
ENDROOT
BRANCH   3   5
ATOM      5  C   UNL     1       2.984  -5.457  -0.044  0.00  0.00    +0.077 C 
ATOM      6  C   UNL     1       3.246  -5.935   1.409  0.00  0.00    +0.026 C 
ATOM      7  C   UNL     1       4.827  -5.868   1.503  0.00  0.00    -0.006 C 
ATOM      8  C   UNL     1       5.109  -6.545   0.095  0.00  0.00    +0.009 C 
ATOM      9  C   UNL     1       4.349  -5.447  -0.761  0.00  0.00    +0.013 C 
ATOM     10  C   UNL     1       5.208  -4.265  -0.336  0.00  0.00    -0.003 C 
ATOM     11  C   UNL     1       5.026  -4.406   1.246  0.00  0.00    -0.004 C 
ATOM     12  C   UNL     1       5.727  -3.265   1.846  0.00  0.00    +0.004 C 
ATOM     13  C   UNL     1       5.469  -2.117   0.811  0.00  0.00    +0.001 C 
ATOM     14  C   UNL     1       4.742  -2.821  -0.478  0.00  0.00    +0.004 C 
ENDBRANCH   3   5
BRANCH   1  19
ATOM     15  C   UNL     1       0.013   1.516  -0.039  0.00  0.00    +0.054 C 
ATOM     16  C   UNL     1       0.357   0.151  -0.575  0.00  0.00    +0.018 A 
ATOM     17  C   UNL     1       0.044  -0.372  -1.787  0.00  0.00    +0.137 A 
ATOM     18  C   UNL     1       0.454  -1.648  -2.090  0.00  0.00    +0.053 A 
ATOM     19  C   UNL     1       1.171  -2.301  -1.099  0.00  0.00    +0.076 A 
ATOM     20  S   UNL     1       1.223  -1.070   0.188  0.00  0.00    -0.087 S 
BRANCH  17  21
ATOM     21  N   UNL     1      -0.729   0.421  -2.768  0.00  0.00    +0.057 N 
ATOM     22  O   UNL     1      -1.004  -0.053  -3.846  0.00  0.00    -0.126 OA
ATOM     23  O   UNL     1      -1.086   1.543  -2.493  0.00  0.00    -0.126 OA
ENDBRANCH  17  21
ENDBRANCH   1  19
TORSDOF 3
