REMARK  Name = ZINC17447236
REMARK  5 active torsions:
REMARK  status: ('A' for Active; 'I' for Inactive)
REMARK    1  A    between atoms: C_1  and  C_2
REMARK    2  A    between atoms: C_5  and  C_8
REMARK    3  A    between atoms: N_10  and  N_11
REMARK    4  A    between atoms: C_17  and  C_20
REMARK    5  A    between atoms: N_22  and  C_23
REMARK                            x       y       z     vdW  Elec       q    Type
REMARK                         _______ _______ _______ _____ _____    ______ ____
ROOT
ATOM      1  N   UNL     1       6.998   8.505   2.354  0.00  0.00    -0.218 N 
ATOM      2  C   UNL     1       6.097   8.849   1.413  0.00  0.00    +0.319 C 
ATOM      3  O   UNL     1       5.785  10.015   1.267  0.00  0.00    -0.251 OA
ATOM      4  N   UNL     1       5.542   7.900   0.633  0.00  0.00    -0.284 N 
ATOM      5  C   UNL     1       4.646   8.268  -0.472  0.00  0.00    +0.110 C 
ATOM      6  C   UNL     1       3.329   7.502  -0.316  0.00  0.00    +0.032 C 
ATOM      7  C   UNL     1       3.624   6.004  -0.218  0.00  0.00    +0.078 C 
ATOM      8  C   UNL     1       4.490   5.731   1.013  0.00  0.00    +0.032 C 
ATOM      9  C   UNL     1       5.821   6.477   0.872  0.00  0.00    +0.110 C 
ATOM     10  H   UNL     1       7.194   7.570   2.519  0.00  0.00    +0.174 HD
ENDROOT
BRANCH   1  13
ATOM     11  C   UNL     1       8.626   9.162   3.962  0.00  0.00    +0.260 C 
ATOM     12  O   UNL     1       8.938   7.996   4.103  0.00  0.00    -0.269 OA
ATOM     13  N   UNL     1       7.652   9.499   3.094  0.00  0.00    -0.229 N 
ATOM     14  H   UNL     1       7.403  10.430   2.982  0.00  0.00    +0.173 HD
BRANCH  11  19
ATOM     15  C   UNL     1      11.310  13.245   7.002  0.00  0.00    +0.044 C 
ATOM     16  C   UNL     1      10.607  12.176   6.206  0.00  0.00    -0.050 A 
ATOM     17  C   UNL     1      10.964  10.849   6.369  0.00  0.00    +0.004 A 
ATOM     18  C   UNL     1      10.325   9.865   5.643  0.00  0.00    +0.013 A 
ATOM     19  C   UNL     1       9.315  10.211   4.743  0.00  0.00    +0.038 A 
ATOM     20  C   UNL     1       8.964  11.552   4.580  0.00  0.00    +0.013 A 
ATOM     21  C   UNL     1       9.607  12.525   5.316  0.00  0.00    +0.004 A 
ENDBRANCH  11  19
ENDBRANCH   1  13
BRANCH   7  22
ATOM     22  C   UNL     1       2.328   5.244  -0.098  0.00  0.00    +0.220 C 
ATOM     23  O   UNL     1       1.273   5.842  -0.091  0.00  0.00    -0.275 OA
ATOM     24  N   UNL     1       2.341   3.900   0.001  0.00  0.00    -0.285 N 
ATOM     25  H   UNL     1       3.185   3.427   0.070  0.00  0.00    +0.155 HD
BRANCH  24  26
ATOM     26  C   UNL     1       1.137   3.187   0.005  0.00  0.00    +0.033 A 
ATOM     27  C   UNL     1       0.055   3.644  -0.735  0.00  0.00    +0.023 A 
ATOM     28  C   UNL     1      -1.132   2.938  -0.729  0.00  0.00    +0.002 A 
ATOM     29  C   UNL     1      -1.245   1.779   0.017  0.00  0.00    +0.000 A 
ATOM     30  C   UNL     1      -0.167   1.318   0.751  0.00  0.00    +0.002 A 
ATOM     31  C   UNL     1       1.022   2.020   0.749  0.00  0.00    +0.023 A 
ENDBRANCH  24  26
ENDBRANCH   7  22
TORSDOF 4
