REMARK  Name = ZINC16045596
REMARK  9 active torsions:
REMARK  status: ('A' for Active; 'I' for Inactive)
REMARK    1  A    between atoms: C_1  and  C_2
REMARK    2  A    between atoms: C_3  and  C_7
REMARK    3  A    between atoms: C_10  and  S_13
REMARK    4  A    between atoms: N_11  and  C_12
REMARK    5  A    between atoms: S_13  and  C_14
REMARK    6  A    between atoms: C_14  and  C_15
REMARK    7  A    between atoms: N_17  and  N_18
REMARK    8  A    between atoms: C_21  and  C_25
REMARK    9  A    between atoms: C_21  and  C_26
REMARK                            x       y       z     vdW  Elec       q    Type
REMARK                         _______ _______ _______ _____ _____    ______ ____
ROOT
ATOM      1  C   UNL     1      -2.062   2.101   1.406  0.00  0.00    +0.240 C 
ATOM      2  O   UNL     1      -1.407   1.985   2.420  0.00  0.00    -0.273 OA
ATOM      3  N   UNL     1      -1.782   1.338   0.331  0.00  0.00    -0.223 N 
ATOM      4  H   UNL     1      -2.306   1.431  -0.479  0.00  0.00    +0.174 HD
ENDROOT
BRANCH   3   5
ATOM      5  N   UNL     1      -0.734   0.410   0.385  0.00  0.00    -0.137 N 
ATOM      6  C   UNL     1      -0.907  -0.922   0.498  0.00  0.00    +0.267 C 
ATOM      7  O   UNL     1      -1.958  -1.520   0.574  0.00  0.00    -0.271 OA
ATOM      8  C   UNL     1       0.488  -1.516   0.510  0.00  0.00    +0.137 C 
ATOM      9  N   UNL     1       1.367  -0.340   0.392  0.00  0.00    -0.280 N 
ATOM     10  C   UNL     1       0.562   0.736   0.325  0.00  0.00    +0.327 C 
ATOM     11  O   UNL     1       0.968   1.877   0.222  0.00  0.00    -0.251 OA
ATOM     12  C   UNL     1       0.683  -2.456  -0.682  0.00  0.00    +0.047 C 
ATOM     13  H   UNL     1       2.336  -0.341   0.366  0.00  0.00    +0.152 HD
BRANCH   8  14
ATOM     14  C   UNL     1       0.744  -2.241   1.806  0.00  0.00    -0.015 A 
ATOM     15  C   UNL     1      -0.306  -2.827   2.489  0.00  0.00    +0.006 A 
ATOM     16  C   UNL     1      -0.070  -3.496   3.675  0.00  0.00    +0.000 A 
ATOM     17  C   UNL     1       1.213  -3.571   4.184  0.00  0.00    +0.000 A 
ATOM     18  C   UNL     1       2.261  -2.980   3.504  0.00  0.00    +0.000 A 
ATOM     19  C   UNL     1       2.027  -2.316   2.315  0.00  0.00    +0.006 A 
ENDBRANCH   8  14
ENDBRANCH   3   5
BRANCH   1  20
ATOM     20  C   UNL     1      -3.190   3.100   1.348  0.00  0.00    +0.174 C 
BRANCH  20  21
ATOM     21  S   UNL     1      -3.313   3.962   2.935  0.00  0.00    -0.077 S 
BRANCH  21  25
ATOM     22  C   UNL     1      -6.242   6.543   2.756  0.00  0.00    +0.168 A 
ATOM     23  N   UNL     1      -6.264   5.998   1.562  0.00  0.00    -0.128 NA
ATOM     24  N   UNL     1      -5.335   5.115   1.466  0.00  0.00    -0.122 NA
ATOM     25  C   UNL     1      -4.669   5.035   2.595  0.00  0.00    +0.192 A 
ATOM     26  N   UNL     1      -5.221   5.943   3.455  0.00  0.00    -0.305 N 
ATOM     27  C   UNL     1      -4.809   6.220   4.833  0.00  0.00    +0.153 C 
BRANCH  22  30
ATOM     28  C   UNL     1      -9.360   6.625   2.439  0.00  0.00    +0.087 C 
ATOM     29  C   UNL     1      -8.500   7.653   3.128  0.00  0.00    +0.112 A 
ATOM     30  C   UNL     1      -7.147   7.601   3.256  0.00  0.00    +0.060 A 
ATOM     31  C   UNL     1      -6.770   8.817   3.988  0.00  0.00    +0.053 A 
ATOM     32  C   UNL     1      -7.916   9.473   4.232  0.00  0.00    +0.196 A 
ATOM     33  O   UNL     1      -8.939   8.773   3.720  0.00  0.00    -0.467 OA
ENDBRANCH  22  30
ENDBRANCH  21  25
ENDBRANCH  20  21
ENDBRANCH   1  20
TORSDOF 6
