REMARK  Name = ZINC33145666
REMARK  11 active torsions:
REMARK  status: ('A' for Active; 'I' for Inactive)
REMARK    1  A    between atoms: C_1  and  C_2
REMARK    2  A    between atoms: C_7  and  O_8
REMARK    3  A    between atoms: O_8  and  C_9
REMARK    4  A    between atoms: C_9  and  C_10
REMARK    5  A    between atoms: C_10  and  C_12
REMARK    6  A    between atoms: C_10  and  O_35
REMARK    7  A    between atoms: C_12  and  N_13
REMARK    8  A    between atoms: N_18  and  N_19
REMARK    9  A    between atoms: C_20  and  C_21
REMARK   10  A    between atoms: N_27  and  C_34
REMARK   11  A    between atoms: N_30  and  C_33
REMARK                            x       y       z     vdW  Elec       q    Type
REMARK                         _______ _______ _______ _____ _____    ______ ____
ROOT
ATOM      1  N   UNL     1       2.556   1.743   1.027  0.00  0.00    -0.302 N 
ATOM      2  C   UNL     1       1.217   1.984   0.753  0.00  0.00    +0.153 A 
ATOM      3  C   UNL     1       1.164   3.216   0.110  0.00  0.00    +0.170 A 
ATOM      4  N   UNL     1       2.413   3.673   0.012  0.00  0.00    -0.195 NA
ATOM      5  C   UNL     1       3.251   2.811   0.551  0.00  0.00    +0.218 A 
ATOM      6  N   UNL     1       4.617   2.967   0.622  0.00  0.00    -0.206 N 
ATOM      7  N   UNL     1      -0.069   3.711  -0.283  0.00  0.00    -0.280 N 
ATOM      8  C   UNL     1      -1.188   3.003  -0.042  0.00  0.00    +0.333 A 
ATOM      9  O   UNL     1      -2.262   3.452  -0.393  0.00  0.00    -0.246 OA
ATOM     10  N   UNL     1      -1.148   1.809   0.575  0.00  0.00    -0.262 N 
ATOM     11  C   UNL     1       0.023   1.279   0.986  0.00  0.00    +0.282 A 
ATOM     12  O   UNL     1       0.045   0.197   1.547  0.00  0.00    -0.265 OA
ATOM     13  C   UNL     1      -2.394   1.076   0.810  0.00  0.00    +0.157 C 
ATOM     14  C   UNL     1      -0.155   5.006  -0.963  0.00  0.00    +0.155 C 
ATOM     15  H   UNL     1       5.236   2.189   1.093  0.00  0.00    +0.177 HD
ENDROOT
BRANCH   6  16
ATOM     16  N   UNL     1       5.219   4.116   0.093  0.00  0.00    -0.188 NA
ATOM     17  C   UNL     1       6.513   4.213   0.059  0.00  0.00    +0.138 C 
BRANCH  17  18
ATOM     18  C   UNL     1       7.345   2.995   0.046  0.00  0.00    -0.005 A 
ATOM     19  C   UNL     1       8.725   3.086   0.237  0.00  0.00    +0.009 A 
ATOM     20  C   UNL     1       9.496   1.942   0.230  0.00  0.00    +0.001 A 
ATOM     21  C   UNL     1       8.906   0.708   0.022  0.00  0.00    +0.000 A 
ATOM     22  C   UNL     1       7.539   0.611  -0.174  0.00  0.00    +0.001 A 
ATOM     23  C   UNL     1       6.756   1.746  -0.163  0.00  0.00    +0.009 A 
ENDBRANCH  17  18
ENDBRANCH   6  16
BRANCH   1  24
ATOM     24  C   UNL     1       3.113   0.566   1.698  0.00  0.00    +0.160 C 
BRANCH  24  25
ATOM     25  C   UNL     1       3.449  -0.504   0.656  0.00  0.00    +0.172 C 
BRANCH  25  26
ATOM     26  O   UNL     1       4.491  -0.027  -0.197  0.00  0.00    -0.387 OA
ATOM     27  H   UNL     1       4.340   0.885  -0.793  0.00  0.00    +0.210 HD
ENDBRANCH  25  26
BRANCH  25  28
ATOM     28  C   UNL     1       3.913  -1.778   1.365  0.00  0.00    +0.262 C 
BRANCH  28  29
ATOM     29  O   UNL     1       4.115  -2.813   0.401  0.00  0.00    -0.489 OA
BRANCH  29  36
ATOM     30  C   UNL     1       4.520  -4.873  -1.489  0.00  0.00    +0.047 C 
ATOM     31  C   UNL     1       4.747  -5.069  -0.012  0.00  0.00    -0.009 A 
ATOM     32  C   UNL     1       5.171  -6.294   0.466  0.00  0.00    +0.007 A 
ATOM     33  C   UNL     1       5.379  -6.474   1.820  0.00  0.00    +0.000 A 
ATOM     34  C   UNL     1       5.165  -5.429   2.700  0.00  0.00    +0.004 A 
ATOM     35  C   UNL     1       4.747  -4.201   2.227  0.00  0.00    +0.046 A 
ATOM     36  C   UNL     1       4.532  -4.019   0.869  0.00  0.00    +0.124 A 
ENDBRANCH  29  36
ENDBRANCH  28  29
ENDBRANCH  25  28
ENDBRANCH  24  25
ENDBRANCH   1  24
TORSDOF 8
