REMARK  Name = ZINC35632243
REMARK  8 active torsions:
REMARK  status: ('A' for Active; 'I' for Inactive)
REMARK    1  A    between atoms: C_1  and  C_2
REMARK    2  A    between atoms: C_5  and  O_9
REMARK    3  A    between atoms: C_7  and  C_8
REMARK    4  A    between atoms: O_9  and  C_10
REMARK    5  A    between atoms: C_13  and  C_19
REMARK    6  A    between atoms: C_15  and  N_16
REMARK    7  A    between atoms: C_19  and  C_21
REMARK    8  A    between atoms: C_19  and  O_22
REMARK                            x       y       z     vdW  Elec       q    Type
REMARK                         _______ _______ _______ _____ _____    ______ ____
ROOT
ATOM      1  C   UNL     1      -0.043  -4.761  -1.219  0.00  0.00    +0.159 A 
ATOM      2  C   UNL     1      -0.051  -4.025  -2.395  0.00  0.00    +0.049 A 
ATOM      3  C   UNL     1      -0.155  -4.670  -3.612  0.00  0.00    +0.010 A 
ATOM      4  C   UNL     1      -0.251  -6.049  -3.659  0.00  0.00    -0.017 A 
ATOM      5  C   UNL     1      -0.243  -6.785  -2.489  0.00  0.00    +0.042 A 
ATOM      6  C   UNL     1      -0.133  -6.145  -1.269  0.00  0.00    +0.168 A 
ENDROOT
BRANCH   6   7
ATOM      7  N   UNL     1      -0.118  -6.934  -0.017  0.00  0.00    +0.060 N 
ATOM      8  O   UNL     1      -0.197  -8.140  -0.062  0.00  0.00    -0.126 OA
ATOM      9  O   UNL     1      -0.027  -6.373   1.050  0.00  0.00    -0.126 OA
ENDBRANCH   6   7
BRANCH   4  10
ATOM     10  C   UNL     1      -0.364  -6.750  -4.988  0.00  0.00    +0.141 C 
ATOM     11  C   UNL     1       1.034  -6.973  -5.568  0.00  0.00    +0.043 C 
BRANCH  10  12
ATOM     12  O   UNL     1      -1.130  -5.946  -5.887  0.00  0.00    -0.387 OA
ATOM     13  H   UNL     1      -0.748  -5.073  -6.057  0.00  0.00    +0.210 HD
ENDBRANCH  10  12
ENDBRANCH   4  10
BRANCH   1  14
ATOM     14  O   UNL     1       0.059  -4.129  -0.021  0.00  0.00    -0.454 OA
BRANCH  14  19
ATOM     15  C   UNL     1      -0.099   1.501   0.019  0.00  0.00    +0.044 C 
ATOM     16  C   UNL     1      -0.056  -0.005   0.008  0.00  0.00    -0.047 A 
ATOM     17  C   UNL     1       1.111  -0.666   0.347  0.00  0.00    +0.007 A 
ATOM     18  C   UNL     1       1.152  -2.046   0.338  0.00  0.00    +0.046 A 
ATOM     19  C   UNL     1       0.021  -2.771  -0.011  0.00  0.00    +0.129 A 
ATOM     20  C   UNL     1      -1.149  -2.106  -0.350  0.00  0.00    +0.050 A 
ATOM     21  C   UNL     1      -1.186  -0.725  -0.334  0.00  0.00    -0.044 A 
ATOM     22  C   UNL     1      -2.458  -0.002  -0.697  0.00  0.00    +0.044 C 
ENDBRANCH  14  19
ENDBRANCH   1  14
TORSDOF 5
