REMARK  Name = ZINC59166861
REMARK  9 active torsions:
REMARK  status: ('A' for Active; 'I' for Inactive)
REMARK    1  A    between atoms: C_4  and  N_7
REMARK    2  A    between atoms: C_8  and  C_10
REMARK    3  A    between atoms: C_10  and  S_11
REMARK    4  A    between atoms: S_11  and  C_12
REMARK    5  A    between atoms: C_12  and  C_13
REMARK    6  A    between atoms: N_15  and  N_16
REMARK    7  A    between atoms: N_24  and  C_27
REMARK    8  A    between atoms: C_27  and  C_28
REMARK    9  A    between atoms: C_31  and  N_34
REMARK                            x       y       z     vdW  Elec       q    Type
REMARK                         _______ _______ _______ _____ _____    ______ ____
ROOT
ATOM      1  N   UNL     1       7.232  -8.870   0.659  0.00  0.00    -0.175 NA
ATOM      2  C   UNL     1       8.310  -9.593   0.846  0.00  0.00    +0.153 C 
ATOM      3  C   UNL     1       9.715  -9.124   0.885  0.00  0.00    +0.028 A 
ATOM      4  C   UNL     1      10.306  -7.873   0.749  0.00  0.00    +0.012 A 
ATOM      5  C   UNL     1      11.678  -7.751   0.835  0.00  0.00    +0.001 A 
ATOM      6  C   UNL     1      12.462  -8.871   1.057  0.00  0.00    +0.002 A 
ATOM      7  C   UNL     1      11.885 -10.117   1.194  0.00  0.00    +0.024 A 
ATOM      8  C   UNL     1      10.504 -10.260   1.109  0.00  0.00    +0.046 A 
ATOM      9  N   UNL     1       9.683 -11.378   1.209  0.00  0.00    -0.261 N 
ATOM     10  C   UNL     1       8.387 -11.051   1.069  0.00  0.00    +0.272 C 
ATOM     11  O   UNL     1       7.445 -11.819   1.116  0.00  0.00    -0.268 OA
ENDROOT
BRANCH   1  14
ATOM     12  C   UNL     1       6.240  -6.735   0.307  0.00  0.00    +0.242 C 
ATOM     13  O   UNL     1       5.183  -7.280   0.073  0.00  0.00    -0.273 OA
ATOM     14  N   UNL     1       7.326  -7.473   0.613  0.00  0.00    -0.206 N 
ATOM     15  H   UNL     1       8.171  -7.037   0.800  0.00  0.00    +0.177 HD
BRANCH  12  16
ATOM     16  C   UNL     1       6.340  -5.232   0.258  0.00  0.00    +0.167 C 
BRANCH  16  17
ATOM     17  S   UNL     1       4.724  -4.532  -0.177  0.00  0.00    -0.142 S 
BRANCH  17  18
ATOM     18  C   UNL     1       5.011  -2.741  -0.195  0.00  0.00    +0.165 C 
BRANCH  18  20
ATOM     19  N   UNL     1       3.705  -0.685  -0.620  0.00  0.00    -0.285 N 
ATOM     20  C   UNL     1       3.730  -2.030  -0.547  0.00  0.00    +0.227 C 
ATOM     21  O   UNL     1       2.723  -2.669  -0.765  0.00  0.00    -0.275 OA
ATOM     22  H   UNL     1       4.526  -0.178  -0.522  0.00  0.00    +0.155 HD
BRANCH  19  26
ATOM     23  C   UNL     1       0.098   1.298  -1.268  0.00  0.00    +0.000 A 
ATOM     24  C   UNL     1       0.121   0.133  -0.524  0.00  0.00    +0.002 A 
ATOM     25  C   UNL     1       1.315  -0.527  -0.307  0.00  0.00    +0.023 A 
ATOM     26  C   UNL     1       2.493  -0.019  -0.838  0.00  0.00    +0.033 A 
ATOM     27  C   UNL     1       2.467   1.151  -1.586  0.00  0.00    +0.023 A 
ATOM     28  C   UNL     1       1.270   1.806  -1.799  0.00  0.00    +0.002 A 
ENDBRANCH  19  26
ENDBRANCH  18  20
ENDBRANCH  17  18
ENDBRANCH  16  17
ENDBRANCH  12  16
ENDBRANCH   1  14
BRANCH   9  29
ATOM     29  C   UNL     1      10.170 -12.740   1.443  0.00  0.00    +0.149 C 
BRANCH  29  30
ATOM     30  C   UNL     1      10.230 -13.004   2.926  0.00  0.00    -0.030 A 
ATOM     31  C   UNL     1      11.381 -12.713   3.634  0.00  0.00    +0.007 A 
ATOM     32  C   UNL     1      11.436 -12.955   4.993  0.00  0.00    +0.033 A 
ATOM     33  C   UNL     1      10.339 -13.488   5.646  0.00  0.00    +0.126 A 
ATOM     34  C   UNL     1       9.188 -13.778   4.938  0.00  0.00    +0.033 A 
ATOM     35  C   UNL     1       9.132 -13.531   3.579  0.00  0.00    +0.007 A 
BRANCH  33  36
ATOM     36  N   UNL     1      10.399 -13.748   7.101  0.00  0.00    +0.056 N 
ATOM     37  O   UNL     1      11.406 -13.495   7.720  0.00  0.00    -0.126 OA
ATOM     38  O   UNL     1       9.440 -14.213   7.672  0.00  0.00    -0.126 OA
ENDBRANCH  33  36
ENDBRANCH  29  30
ENDBRANCH   9  29
TORSDOF 9
