REMARK  Name = ZINC03511345
REMARK  13 active torsions:
REMARK  status: ('A' for Active; 'I' for Inactive)
REMARK    1  A    between atoms: C_1  and  C_2
REMARK    2  A    between atoms: C_2  and  O_3
REMARK    3  A    between atoms: O_3  and  C_4
REMARK    4  A    between atoms: C_4  and  C_6
REMARK    5  A    between atoms: C_7  and  C_29
REMARK    6  A    between atoms: C_8  and  C_28
REMARK    7  A    between atoms: C_10  and  N_11
REMARK    8  A    between atoms: C_12  and  C_14
REMARK    9  A    between atoms: C_14  and  O_15
REMARK   10  A    between atoms: O_15  and  C_16
REMARK   11  A    between atoms: C_16  and  C_18
REMARK   12  A    between atoms: C_21  and  C_27
REMARK   13  A    between atoms: C_22  and  N_24
REMARK                            x       y       z     vdW  Elec       q    Type
REMARK                         _______ _______ _______ _____ _____    ______ ____
ROOT
ATOM      1  N   UNL     1       1.121   1.945   0.353  0.00  0.00    -0.277 N 
ATOM      2  C   UNL     1      -0.036   1.254   0.366  0.00  0.00    +0.255 C 
ATOM      3  O   UNL     1      -0.029   0.063   0.593  0.00  0.00    -0.272 OA
ATOM      4  H   UNL     1       1.115   3.026   0.148  0.00  0.00    +0.155 HD
ENDROOT
BRANCH   1   9
ATOM      5  C   UNL     1       3.604   1.828   0.629  0.00  0.00    +0.091 A 
ATOM      6  C   UNL     1       4.682   0.911   0.914  0.00  0.00    -0.025 A 
ATOM      7  C   UNL     1       4.354  -0.376   1.124  0.00  0.00    -0.008 A 
ATOM      8  S   UNL     1       2.582  -0.381   0.951  0.00  0.00    -0.078 S 
ATOM      9  C   UNL     1       2.320   1.294   0.599  0.00  0.00    +0.086 A 
ATOM     10  C   UNL     1       5.266  -1.534   1.438  0.00  0.00    +0.052 C 
ATOM     11  C   UNL     1       6.114   1.376   0.971  0.00  0.00    +0.045 C 
BRANCH   5  12
ATOM     12  C   UNL     1       3.849   3.251   0.384  0.00  0.00    +0.342 C 
ATOM     13  O   UNL     1       3.847   4.037   1.312  0.00  0.00    -0.245 OA
BRANCH  12  14
ATOM     14  O   UNL     1       4.079   3.689  -0.871  0.00  0.00    -0.461 OA
BRANCH  14  16
ATOM     15  C   UNL     1       4.554   5.417  -2.519  0.00  0.00    +0.048 C 
ATOM     16  C   UNL     1       4.315   5.112  -1.040  0.00  0.00    +0.229 C 
ENDBRANCH  14  16
ENDBRANCH  12  14
ENDBRANCH   5  12
ENDBRANCH   1   9
BRANCH   2  17
ATOM     17  C   UNL     1      -1.338   1.961   0.093  0.00  0.00    +0.328 C 
BRANCH  17  18
ATOM     18  O   UNL     1      -2.430   1.006   0.157  0.00  0.00    -0.452 OA
BRANCH  18  19
ATOM     19  C   UNL     1      -3.671   1.480  -0.066  0.00  0.00    +0.340 C 
ATOM     20  O   UNL     1      -3.837   2.659  -0.307  0.00  0.00    -0.245 OA
BRANCH  19  21
ATOM     21  C   UNL     1      -4.831   0.566  -0.017  0.00  0.00    +0.061 A 
ATOM     22  C   UNL     1      -4.643  -0.791   0.254  0.00  0.00    +0.015 A 
ATOM     23  C   UNL     1      -5.731  -1.637   0.304  0.00  0.00    +0.006 A 
ATOM     24  C   UNL     1      -7.005  -1.147   0.075  0.00  0.00    -0.020 A 
ATOM     25  C   UNL     1      -7.197   0.195  -0.200  0.00  0.00    +0.130 A 
ATOM     26  C   UNL     1      -6.118   1.054  -0.247  0.00  0.00    +0.048 A 
ATOM     27  C   UNL     1      -8.188  -2.079   0.126  0.00  0.00    +0.046 C 
BRANCH  25  28
ATOM     28  N   UNL     1      -8.563   0.711  -0.444  0.00  0.00    +0.057 N 
ATOM     29  O   UNL     1      -8.748   1.908  -0.570  0.00  0.00    -0.126 OA
ATOM     30  O   UNL     1      -9.501  -0.062  -0.519  0.00  0.00    -0.126 OA
ENDBRANCH  25  28
ENDBRANCH  19  21
ENDBRANCH  18  19
ENDBRANCH  17  18
ENDBRANCH   2  17
TORSDOF 9
