REMARK  Name = ZINC08820564
REMARK  10 active torsions:
REMARK  status: ('A' for Active; 'I' for Inactive)
REMARK    1  A    between atoms: C_1  and  C_2
REMARK    2  A    between atoms: C_2  and  C_10
REMARK    3  A    between atoms: C_3  and  C_4
REMARK    4  A    between atoms: N_14  and  C_18
REMARK    5  A    between atoms: C_18  and  C_19
REMARK    6  A    between atoms: C_19  and  C_20
REMARK    7  A    between atoms: C_20  and  C_21
REMARK    8  A    between atoms: N_23  and  C_24
REMARK    9  A    between atoms: C_27  and  N_31
REMARK   10  A    between atoms: C_29  and  O_30
REMARK                            x       y       z     vdW  Elec       q    Type
REMARK                         _______ _______ _______ _____ _____    ______ ____
ROOT
ATOM      1  C   UNL     1       1.373   3.897   0.349  0.00  0.00    +0.115 C 
ENDROOT
BRANCH   1   6
ATOM      2  C   UNL     1       5.772   5.113  -1.607  0.00  0.00    +0.023 C 
ATOM      3  C   UNL     1       4.881   4.772  -0.633  0.00  0.00    +0.077 C 
ATOM      4  C   UNL     1       3.436   4.494  -0.736  0.00  0.00    +0.258 C 
ATOM      5  O   UNL     1       2.849   4.549  -1.802  0.00  0.00    -0.269 OA
ATOM      6  N   UNL     1       2.809   4.183   0.386  0.00  0.00    -0.255 N 
ATOM      7  C   UNL     1       3.462   4.129   1.565  0.00  0.00    +0.121 C 
ATOM      8  S   UNL     1       2.833   3.755   3.113  0.00  0.00    -0.027 S 
ATOM      9  S   UNL     1       5.142   4.538   1.120  0.00  0.00    -0.061 S 
BRANCH   2  11
ATOM     10  C   UNL     1       7.649   4.766   0.048  0.00  0.00    +0.044 C 
ATOM     11  C   UNL     1       7.147   5.192  -1.308  0.00  0.00    -0.049 C 
ATOM     12  C   UNL     1       8.017   5.651  -2.238  0.00  0.00    +0.011 C 
BRANCH  12  13
ATOM     13  C   UNL     1       9.421   5.892  -1.876  0.00  0.00    -0.025 A 
ATOM     14  C   UNL     1       9.744   6.404  -0.614  0.00  0.00    +0.008 A 
ATOM     15  C   UNL     1      11.064   6.622  -0.280  0.00  0.00    +0.001 A 
ATOM     16  C   UNL     1      12.067   6.347  -1.193  0.00  0.00    +0.000 A 
ATOM     17  C   UNL     1      11.756   5.846  -2.445  0.00  0.00    +0.001 A 
ATOM     18  C   UNL     1      10.442   5.617  -2.793  0.00  0.00    +0.008 A 
ENDBRANCH  12  13
ENDBRANCH   2  11
ENDBRANCH   1   6
BRANCH   1  19
ATOM     19  C   UNL     1       1.157   2.401   0.107  0.00  0.00    +0.029 C 
BRANCH  19  20
ATOM     20  C   UNL     1      -0.343   2.102   0.069  0.00  0.00    +0.097 C 
BRANCH  20  21
ATOM     21  C   UNL     1      -0.555   0.630  -0.169  0.00  0.00    +0.217 C 
ATOM     22  O   UNL     1       0.399  -0.108  -0.295  0.00  0.00    -0.275 OA
ATOM     23  N   UNL     1      -1.806   0.132  -0.242  0.00  0.00    -0.283 N 
ATOM     24  H   UNL     1      -2.568   0.710  -0.079  0.00  0.00    +0.155 HD
BRANCH  23  25
ATOM     25  C   UNL     1      -2.006  -1.219  -0.554  0.00  0.00    +0.075 A 
ATOM     26  C   UNL     1      -1.067  -2.167  -0.172  0.00  0.00    +0.029 A 
ATOM     27  C   UNL     1      -1.268  -3.500  -0.476  0.00  0.00    +0.035 A 
ATOM     28  C   UNL     1      -2.399  -3.891  -1.170  0.00  0.00    +0.130 A 
ATOM     29  C   UNL     1      -3.336  -2.952  -1.558  0.00  0.00    +0.080 A 
ATOM     30  C   UNL     1      -3.144  -1.614  -1.252  0.00  0.00    +0.140 A 
BRANCH  28  31
ATOM     31  N   UNL     1      -2.606  -5.319  -1.498  0.00  0.00    +0.057 N 
ATOM     32  O   UNL     1      -3.602  -5.666  -2.108  0.00  0.00    -0.126 OA
ATOM     33  O   UNL     1      -1.782  -6.149  -1.156  0.00  0.00    -0.126 OA
ENDBRANCH  28  31
BRANCH  30  34
ATOM     34  O   UNL     1      -4.065  -0.689  -1.634  0.00  0.00    -0.505 OA
ATOM     35  H   UNL     1      -3.901  -0.308  -2.507  0.00  0.00    +0.292 HD
ENDBRANCH  30  34
ENDBRANCH  23  25
ENDBRANCH  20  21
ENDBRANCH  19  20
ENDBRANCH   1  19
TORSDOF 9
