REMARK  Name = ZINC00704234
REMARK  9 active torsions:
REMARK  status: ('A' for Active; 'I' for Inactive)
REMARK    1  A    between atoms: C_1  and  N_2
REMARK    2  A    between atoms: N_2  and  C_3
REMARK    3  A    between atoms: N_2  and  C_4
REMARK    4  A    between atoms: C_7  and  C_10
REMARK    5  A    between atoms: C_11  and  C_12
REMARK    6  A    between atoms: C_11  and  C_14
REMARK    7  A    between atoms: N_16  and  N_17
REMARK    8  A    between atoms: C_18  and  C_19
REMARK    9  A    between atoms: C_24  and  N_25
REMARK                            x       y       z     vdW  Elec       q    Type
REMARK                         _______ _______ _______ _____ _____    ______ ____
ROOT
ATOM      1  C   UNL     1      -4.955   0.576  -0.431  0.00  0.00    +0.274 C 
ATOM      2  O   UNL     1      -5.182   1.768  -0.351  0.00  0.00    -0.268 OA
ATOM      3  N   UNL     1      -3.683   0.130  -0.418  0.00  0.00    -0.202 N 
ATOM      4  H   UNL     1      -3.502  -0.821  -0.482  0.00  0.00    +0.178 HD
ENDROOT
BRANCH   1   6
ATOM      5  C   UNL     1      -7.369   0.077  -0.554  0.00  0.00    +0.032 C 
ATOM      6  C   UNL     1      -6.068  -0.379  -0.541  0.00  0.00    +0.115 C 
BRANCH   5  10
ATOM      7  C   UNL     1     -10.575  -2.673  -0.401  0.00  0.00    +0.029 A 
ATOM      8  C   UNL     1     -10.743  -1.445  -1.038  0.00  0.00    +0.023 A 
ATOM      9  C   UNL     1      -9.711  -0.553  -1.090  0.00  0.00    +0.010 A 
ATOM     10  C   UNL     1      -8.479  -0.875  -0.501  0.00  0.00    -0.024 A 
ATOM     11  C   UNL     1      -8.313  -2.115   0.135  0.00  0.00    +0.010 A 
ATOM     12  C   UNL     1      -9.353  -2.997   0.186  0.00  0.00    +0.023 A 
BRANCH   7  14
ATOM     13  C   UNL     1     -12.869  -3.297  -1.078  0.00  0.00    +0.129 C 
ATOM     14  N   UNL     1     -11.628  -3.577  -0.351  0.00  0.00    -0.336 N 
ATOM     15  C   UNL     1     -11.498  -4.811   0.428  0.00  0.00    +0.129 C 
ENDBRANCH   7  14
ENDBRANCH   5  10
BRANCH   6  16
ATOM     16  C   UNL     1      -5.800  -1.783  -0.635  0.00  0.00    +0.104 C 
ATOM     17  N   UNL     1      -5.588  -2.896  -0.710  0.00  0.00    -0.191 NA
ENDBRANCH   6  16
ENDBRANCH   1   6
BRANCH   3  18
ATOM     18  N   UNL     1      -2.623   1.039  -0.314  0.00  0.00    -0.187 NA
ATOM     19  C   UNL     1      -1.398   0.610  -0.302  0.00  0.00    +0.140 C 
BRANCH  19  20
ATOM     20  C   UNL     1      -0.282   1.567  -0.191  0.00  0.00    +0.025 A 
ATOM     21  C   UNL     1      -0.539   2.922   0.033  0.00  0.00    +0.012 A 
ATOM     22  C   UNL     1       0.510   3.811   0.141  0.00  0.00    +0.001 A 
ATOM     23  C   UNL     1       1.815   3.364   0.022  0.00  0.00    +0.002 A 
ATOM     24  C   UNL     1       2.076   2.025  -0.204  0.00  0.00    +0.033 A 
ATOM     25  C   UNL     1       1.037   1.124  -0.315  0.00  0.00    +0.135 A 
BRANCH  25  26
ATOM     26  N   UNL     1       1.319  -0.308  -0.558  0.00  0.00    +0.057 N 
ATOM     27  O   UNL     1       2.459  -0.675  -0.778  0.00  0.00    -0.126 OA
ATOM     28  O   UNL     1       0.411  -1.120  -0.537  0.00  0.00    -0.126 OA
ENDBRANCH  25  26
ENDBRANCH  19  20
ENDBRANCH   3  18
TORSDOF 7
