REMARK  Name = ZINC36597654
REMARK  11 active torsions:
REMARK  status: ('A' for Active; 'I' for Inactive)
REMARK    1  A    between atoms: C_1  and  C_2
REMARK    2  A    between atoms: C_5  and  C_7
REMARK    3  A    between atoms: C_7  and  N_8
REMARK    4  A    between atoms: N_8  and  C_9
REMARK    5  A    between atoms: C_9  and  C_11
REMARK    6  A    between atoms: C_9  and  C_18
REMARK    7  A    between atoms: C_15  and  O_17
REMARK    8  A    between atoms: N_20  and  C_21
REMARK    9  A    between atoms: C_27  and  C_29
REMARK   10  A    between atoms: C_33  and  O_36
REMARK   11  A    between atoms: C_34  and  O_35
REMARK                            x       y       z     vdW  Elec       q    Type
REMARK                         _______ _______ _______ _____ _____    ______ ____
ROOT
ATOM      1  N   UNL     1       1.804  -3.154  -2.120  0.00  0.00    -0.275 N 
ATOM      2  C   UNL     1       1.569  -4.022  -1.116  0.00  0.00    +0.252 C 
ATOM      3  O   UNL     1       0.516  -4.629  -1.071  0.00  0.00    -0.270 OA
ENDROOT
BRANCH   2   4
ATOM      4  C   UNL     1       2.588  -4.236  -0.071  0.00  0.00    +0.082 A 
ATOM      5  C   UNL     1       3.837  -3.615  -0.171  0.00  0.00    +0.017 A 
ATOM      6  C   UNL     1       4.786  -3.817   0.806  0.00  0.00    +0.005 A 
ATOM      7  C   UNL     1       4.512  -4.633   1.891  0.00  0.00    +0.049 A 
ATOM      8  C   UNL     1       3.280  -5.255   2.004  0.00  0.00    +0.159 A 
ATOM      9  C   UNL     1       2.308  -5.057   1.027  0.00  0.00    +0.171 A 
BRANCH   9  10
ATOM     10  O   UNL     1       1.098  -5.660   1.137  0.00  0.00    -0.503 OA
ATOM     11  H   UNL     1       1.055  -6.534   0.725  0.00  0.00    +0.292 HD
ENDBRANCH   9  10
BRANCH   8  12
ATOM     12  O   UNL     1       3.018  -6.056   3.071  0.00  0.00    -0.503 OA
ATOM     13  H   UNL     1       2.631  -5.591   3.826  0.00  0.00    +0.292 HD
ENDBRANCH   8  12
ENDBRANCH   2   4
BRANCH   1  14
ATOM     14  C   UNL     1       0.899  -3.103  -3.271  0.00  0.00    +0.183 C 
BRANCH  14  19
ATOM     15  C   UNL     1       3.647  -3.093  -7.500  0.00  0.00    +0.086 C 
ATOM     16  C   UNL     1       2.818  -3.581  -6.340  0.00  0.00    +0.102 A 
ATOM     17  C   UNL     1       2.466  -4.858  -6.107  0.00  0.00    +0.045 A 
ATOM     18  C   UNL     1       1.696  -4.861  -4.921  0.00  0.00    +0.046 A 
ATOM     19  C   UNL     1       1.623  -3.585  -4.501  0.00  0.00    +0.122 A 
ATOM     20  O   UNL     1       2.309  -2.815  -5.362  0.00  0.00    -0.463 OA
ENDBRANCH  14  19
ENDBRANCH   1  14
BRANCH   1  21
ATOM     21  C   UNL     1       2.965  -2.262  -2.060  0.00  0.00    +0.193 C 
BRANCH  21  22
ATOM     22  C   UNL     1       4.172  -2.971  -2.618  0.00  0.00    -0.015 A 
ATOM     23  C   UNL     1       4.009  -4.080  -3.428  0.00  0.00    +0.006 A 
ATOM     24  C   UNL     1       5.115  -4.732  -3.941  0.00  0.00    +0.004 A 
ATOM     25  C   UNL     1       6.386  -4.278  -3.645  0.00  0.00    +0.045 A 
ATOM     26  C   UNL     1       6.551  -3.166  -2.833  0.00  0.00    +0.117 A 
ATOM     27  C   UNL     1       5.440  -2.509  -2.324  0.00  0.00    +0.051 A 
BRANCH  26  28
ATOM     28  O   UNL     1       7.800  -2.717  -2.540  0.00  0.00    -0.507 OA
ATOM     29  H   UNL     1       8.141  -2.064  -3.167  0.00  0.00    +0.292 HD
ENDBRANCH  26  28
ENDBRANCH  21  22
BRANCH  21  30
ATOM     30  C   UNL     1       2.689  -1.024  -2.874  0.00  0.00    +0.238 C 
ATOM     31  O   UNL     1       1.574  -0.816  -3.303  0.00  0.00    -0.273 OA
ATOM     32  N   UNL     1       3.682  -0.147  -3.124  0.00  0.00    -0.311 N 
ATOM     33  H   UNL     1       4.573  -0.313  -2.780  0.00  0.00    +0.149 HD
BRANCH  32  34
ATOM     34  C   UNL     1       3.414   1.056  -3.915  0.00  0.00    +0.073 C 
ATOM     35  C   UNL     1       3.530   0.725  -5.404  0.00  0.00    +0.022 C 
ATOM     36  C   UNL     1       3.250   1.982  -6.230  0.00  0.00    +0.002 C 
ATOM     37  C   UNL     1       4.267   3.067  -5.868  0.00  0.00    +0.000 C 
ATOM     38  C   UNL     1       4.151   3.398  -4.379  0.00  0.00    +0.002 C 
ATOM     39  C   UNL     1       4.430   2.141  -3.553  0.00  0.00    +0.022 C 
ENDBRANCH  32  34
ENDBRANCH  21  30
ENDBRANCH   1  21
TORSDOF 10
