REMARK  Name = ZINC39592359
REMARK  3 active torsions:
REMARK  status: ('A' for Active; 'I' for Inactive)
REMARK    1  A    between atoms: C_6  and  C_7
REMARK    2  A    between atoms: C_9  and  C_13
REMARK    3  A    between atoms: C_20  and  C_22
REMARK                            x       y       z     vdW  Elec       q    Type
REMARK                         _______ _______ _______ _____ _____    ______ ____
ROOT
ATOM      1  C   UNL     1      -3.282  -3.138  -1.234  0.00  0.00    +0.230 C 
ATOM      2  N   UNL     1      -2.642  -4.461  -1.268  0.00  0.00    -0.242 N 
ATOM      3  N   UNL     1      -3.683  -5.397  -1.250  0.00  0.00    -0.161 NA
ATOM      4  C   UNL     1      -4.829  -4.816  -1.211  0.00  0.00    +0.201 C 
ATOM      5  N   UNL     1      -4.738  -3.427  -1.199  0.00  0.00    -0.175 N 
ATOM      6  N   UNL     1      -5.941  -2.729  -1.159  0.00  0.00    -0.168 NA
ATOM      7  C   UNL     1      -7.086  -3.350  -1.136  0.00  0.00    +0.130 C 
ATOM      8  S   UNL     1      -6.592  -5.072  -1.165  0.00  0.00    -0.029 S 
ATOM      9  H   UNL     1      -1.690  -4.648  -1.296  0.00  0.00    +0.170 HD
ENDROOT
BRANCH   7  10
ATOM     10  C   UNL     1      -8.448  -2.777  -1.093  0.00  0.00    +0.009 A 
ATOM     11  C   UNL     1      -8.626  -1.393  -1.078  0.00  0.00    +0.012 A 
ATOM     12  C   UNL     1      -9.900  -0.864  -1.038  0.00  0.00    +0.020 A 
ATOM     13  C   UNL     1     -11.000  -1.704  -1.013  0.00  0.00    +0.041 A 
ATOM     14  C   UNL     1     -10.830  -3.078  -1.027  0.00  0.00    +0.020 A 
ATOM     15  C   UNL     1      -9.562  -3.618  -1.073  0.00  0.00    +0.012 A 
ATOM     16 CL   UNL     1     -12.600  -1.031  -0.962  0.00  0.00    -0.084 Cl
ENDBRANCH   7  10
BRANCH   1  19
ATOM     17  C   UNL     1      -1.271  -0.765   0.011  0.00  0.00    +0.091 C 
ATOM     18  C   UNL     1      -1.363  -2.109   0.010  0.00  0.00    +0.035 C 
ATOM     19  C   UNL     1      -2.859  -2.372   0.020  0.00  0.00    +0.194 C 
ATOM     20  N   UNL     1      -3.437  -1.018   0.026  0.00  0.00    -0.176 NA
ATOM     21  N   UNL     1      -2.509  -0.205   0.026  0.00  0.00    -0.154 NA
BRANCH  17  27
ATOM     22  C   UNL     1      -0.017   1.389   0.010  0.00  0.00    +0.013 A 
ATOM     23  C   UNL     1       1.170   2.094   0.002  0.00  0.00    +0.039 A 
ATOM     24  C   UNL     1       2.379   1.417  -0.013  0.00  0.00    +0.123 A 
ATOM     25  C   UNL     1       2.402   0.032  -0.022  0.00  0.00    +0.039 A 
ATOM     26  C   UNL     1       1.221  -0.680  -0.014  0.00  0.00    +0.013 A 
ATOM     27  C   UNL     1       0.002  -0.004   0.002  0.00  0.00    +0.002 A 
ATOM     28  F   UNL     1       3.538   2.110  -0.021  0.00  0.00    -0.205 F 
ENDBRANCH  17  27
ENDBRANCH   1  19
TORSDOF 3
