REMARK  Name = ZINC08991697
REMARK  9 active torsions:
REMARK  status: ('A' for Active; 'I' for Inactive)
REMARK    1  A    between atoms: C_1  and  C_2
REMARK    2  A    between atoms: C_2  and  N_48
REMARK    3  A    between atoms: C_3  and  C_4
REMARK    4  A    between atoms: C_3  and  N_48
REMARK    5  A    between atoms: C_5  and  C_6
REMARK    6  A    between atoms: C_5  and  N_48
REMARK    7  A    between atoms: C_6  and  N_7
REMARK    8  A    between atoms: C_13  and  C_21
REMARK    9  A    between atoms: C_14  and  C_16
REMARK                            x       y       z     vdW  Elec       q    Type
REMARK                         _______ _______ _______ _____ _____    ______ ____
ROOT
ATOM      1  N   UNL     1       0.558  -2.527   0.079  0.00  0.00    -0.320 N 
ATOM      2  C   UNL     1       1.912  -2.634   0.040  0.00  0.00    +0.204 A 
ATOM      3  N   UNL     1       2.708  -1.608   0.088  0.00  0.00    -0.202 NA
ATOM      4  C   UNL     1       2.256  -0.346   0.182  0.00  0.00    +0.233 A 
ATOM      5  C   UNL     1       0.880  -0.123   0.230  0.00  0.00    +0.091 A 
ATOM      6  C   UNL     1      -0.023  -1.275   0.176  0.00  0.00    +0.119 A 
ATOM      7  C   UNL     1       0.701   1.328   0.330  0.00  0.00    +0.079 A 
ATOM      8  C   UNL     1       1.985   1.857   0.333  0.00  0.00    +0.184 A 
ATOM      9  O   UNL     1       2.874   0.847   0.245  0.00  0.00    -0.433 OA
ATOM     10  H   UNL     1      -1.987  -1.843   0.187  0.00  0.00    +0.157 HD
ATOM     11  N   UNL     1      -1.338  -1.056   0.223  0.00  0.00    -0.384 N 
ATOM     12  H   UNL     1      -1.697  -0.097   0.295  0.00  0.00    +0.157 HD
ENDROOT
BRANCH   8  13
ATOM     13  C   UNL     1       2.319   3.281   0.417  0.00  0.00    +0.170 A 
ATOM     14  C   UNL     1       3.578   3.811   0.421  0.00  0.00    +0.053 A 
ATOM     15  C   UNL     1       3.428   5.208   0.516  0.00  0.00    +0.042 A 
ATOM     16  C   UNL     1       2.105   5.463   0.565  0.00  0.00    +0.196 A 
ATOM     17  O   UNL     1       1.437   4.298   0.499  0.00  0.00    -0.460 OA
ENDBRANCH   8  13
BRANCH   7  18
ATOM     18  C   UNL     1      -0.571   2.068   0.404  0.00  0.00    +0.139 A 
ATOM     19  C   UNL     1      -1.006   2.806   1.463  0.00  0.00    +0.050 A 
ATOM     20  C   UNL     1      -2.262   3.333   1.101  0.00  0.00    +0.042 A 
ATOM     21  C   UNL     1      -2.529   2.897  -0.145  0.00  0.00    +0.196 A 
ATOM     22  O   UNL     1      -1.503   2.138  -0.566  0.00  0.00    -0.463 OA
ENDBRANCH   7  18
BRANCH   1  23
ATOM     23  C   UNL     1      -0.279  -3.728   0.020  0.00  0.00    +0.106 C 
BRANCH  23  24
ATOM     24  C   UNL     1      -0.709  -3.979  -1.427  0.00  0.00    -0.057 C 
BRANCH  24  25
ATOM     25  N   UNL     1      -1.534  -5.204  -1.473  0.00  0.00    +0.380 N 
ATOM     26  H   UNL     1      -1.030  -5.965  -1.001  0.00  0.00    -0.082 HD
BRANCH  25  28
ATOM     27  C   UNL     1      -3.605  -3.854  -1.457  0.00  0.00    -0.017 C 
ATOM     28  C   UNL     1      -2.818  -4.975  -0.776  0.00  0.00    -0.082 C 
ENDBRANCH  25  28
BRANCH  25  29
ATOM     29  C   UNL     1      -1.784  -5.593  -2.877  0.00  0.00    -0.082 C 
ATOM     30  C   UNL     1      -2.314  -7.028  -2.903  0.00  0.00    -0.017 C 
ENDBRANCH  25  29
ENDBRANCH  24  25
ENDBRANCH  23  24
ENDBRANCH   1  23
TORSDOF 7
