REMARK  Name = ZINC20701997
REMARK  5 active torsions:
REMARK  status: ('A' for Active; 'I' for Inactive)
REMARK    1  A    between atoms: C_6  and  C_7
REMARK    2  A    between atoms: N_9  and  C_10
REMARK    3  A    between atoms: C_10  and  C_11
REMARK    4  A    between atoms: C_24  and  C_27
REMARK    5  A    between atoms: C_32  and  O_33
REMARK                            x       y       z     vdW  Elec       q    Type
REMARK                         _______ _______ _______ _____ _____    ______ ____
ROOT
ATOM      1  C   UNL     1      -1.295   3.425   0.017  0.00  0.00    +0.015 A 
ATOM      2  C   UNL     1      -1.243   2.051   0.019  0.00  0.00    +0.024 A 
ATOM      3  C   UNL     1      -0.017   1.390   0.010  0.00  0.00    +0.031 A 
ATOM      4  C   UNL     1       1.170   2.139   0.002  0.00  0.00    -0.019 A 
ATOM      5  C   UNL     1       1.120   3.511  -0.011  0.00  0.00    +0.019 A 
ATOM      6  C   UNL     1      -0.113   4.170  -0.004  0.00  0.00    +0.037 A 
ATOM      7  C   UNL     1       2.447   1.393   0.019  0.00  0.00    +0.049 C 
ATOM      8  C   UNL     1       3.699   1.962  -0.543  0.00  0.00    -0.023 C 
ATOM      9  C   UNL     1       4.444   0.968  -1.009  0.00  0.00    -0.030 C 
ATOM     10  C   UNL     1       3.716  -0.365  -0.821  0.00  0.00    +0.033 C 
ATOM     11  C   UNL     1       2.249   0.085  -0.804  0.00  0.00    +0.029 C 
ATOM     12  C   UNL     1       1.276  -0.756   0.003  0.00  0.00    +0.109 C 
ATOM     13  N   UNL     1       0.002  -0.004   0.002  0.00  0.00    -0.336 N 
ATOM     14  H   UNL     1      -0.956  -0.545  -0.005  0.00  0.00    +0.147 HD
ENDROOT
BRANCH  12  15
ATOM     15  C   UNL     1       1.086  -2.102  -0.648  0.00  0.00    +0.017 A 
ATOM     16  C   UNL     1       0.069  -2.289  -1.565  0.00  0.00    +0.029 A 
ATOM     17  C   UNL     1      -0.102  -3.522  -2.168  0.00  0.00    +0.043 A 
ATOM     18  C   UNL     1       0.738  -4.575  -1.845  0.00  0.00    +0.043 A 
ATOM     19  C   UNL     1       1.752  -4.393  -0.924  0.00  0.00    +0.084 A 
ATOM     20  C   UNL     1       1.929  -3.154  -0.323  0.00  0.00    +0.140 A 
ATOM     21 CL   UNL     1       2.805  -5.713  -0.520  0.00  0.00    -0.080 Cl
ATOM     22 CL   UNL     1      -1.375  -3.752  -3.324  0.00  0.00    -0.083 Cl
BRANCH  20  23
ATOM     23  O   UNL     1       2.926  -2.973   0.583  0.00  0.00    -0.505 OA
ATOM     24  H   UNL     1       3.593  -3.808   0.840  0.00  0.00    +0.292 HD
ENDBRANCH  20  23
ENDBRANCH  12  15
BRANCH   6  25
ATOM     25  C   UNL     1      -0.165   5.644  -0.019  0.00  0.00    +0.244 C 
ATOM     26  O   UNL     1       0.865   6.289  -0.038  0.00  0.00    -0.270 OA
ATOM     27  N   UNL     1      -1.356   6.276  -0.012  0.00  0.00    -0.309 N 
ATOM     28  H   UNL     1      -2.288   5.692   0.004  0.00  0.00    +0.149 HD
BRANCH  27  29
ATOM     29  C   UNL     1      -1.408   7.740  -0.027  0.00  0.00    +0.136 C 
BRANCH  29  30
ATOM     30  C   UNL     1      -2.868   8.198  -0.016  0.00  0.00    +0.135 C 
ATOM     31  C   UNL     1      -2.949   9.738  -0.118  0.00  0.00    +0.035 C 
ATOM     32  C   UNL     1      -4.133  10.113   0.799  0.00  0.00    +0.031 C 
ATOM     33  C   UNL     1      -4.628   8.757   1.348  0.00  0.00    +0.160 C 
ATOM     34  O   UNL     1      -3.485   7.878   1.250  0.00  0.00    -0.375 OA
ENDBRANCH  29  30
ENDBRANCH  27  29
ENDBRANCH   6  25
TORSDOF 5
