REMARK  Name = ZINC12916936
REMARK  5 active torsions:
REMARK  status: ('A' for Active; 'I' for Inactive)
REMARK    1  A    between atoms: C_3  and  N_8
REMARK    2  A    between atoms: C_9  and  C_11
REMARK    3  A    between atoms: N_17  and  S_18
REMARK    4  A    between atoms: S_18  and  C_21
REMARK    5  A    between atoms: C_24  and  N_27
REMARK                            x       y       z     vdW  Elec       q    Type
REMARK                         _______ _______ _______ _____ _____    ______ ____
ROOT
ATOM      1  C   UNL     1      -3.901   1.300   2.305  0.00  0.00    +0.166 C 
ATOM      2  C   UNL     1      -3.560   1.703   3.743  0.00  0.00    +0.030 C 
ATOM      3  C   UNL     1      -3.075   0.471   4.512  0.00  0.00    +0.003 C 
ATOM      4  C   UNL     1      -1.810  -0.079   3.852  0.00  0.00    +0.017 C 
ATOM      5  C   UNL     1      -2.134  -0.505   2.412  0.00  0.00    +0.110 C 
ATOM      6  N   UNL     1      -2.732   0.638   1.710  0.00  0.00    -0.165 NA
ENDROOT
BRANCH   1   8
ATOM      7  N   UNL     1      -5.446   2.614   0.888  0.00  0.00    -0.284 N 
ATOM      8  C   UNL     1      -4.249   2.528   1.503  0.00  0.00    +0.236 C 
ATOM      9  O   UNL     1      -3.453   3.438   1.411  0.00  0.00    -0.274 OA
ATOM     10  H   UNL     1      -6.048   1.853   0.891  0.00  0.00    +0.155 HD
BRANCH   7  13
ATOM     11  C   UNL     1      -7.008   4.929  -1.504  0.00  0.00    +0.003 A 
ATOM     12  C   UNL     1      -6.640   3.756  -0.873  0.00  0.00    +0.023 A 
ATOM     13  C   UNL     1      -5.819   3.800   0.246  0.00  0.00    +0.035 A 
ATOM     14  C   UNL     1      -5.373   5.023   0.730  0.00  0.00    +0.043 A 
ATOM     15  C   UNL     1      -5.740   6.192   0.091  0.00  0.00    +0.043 A 
ATOM     16  C   UNL     1      -6.559   6.145  -1.024  0.00  0.00    +0.020 A 
ATOM     17 CL   UNL     1      -5.179   7.721   0.692  0.00  0.00    -0.083 Cl
ENDBRANCH   7  13
ENDBRANCH   1   8
BRANCH   6  18
ATOM     18  S   UNL     1      -2.105   1.167   0.271  0.00  0.00    +0.062 S 
ATOM     19  O   UNL     1      -3.150   1.861  -0.397  0.00  0.00    -0.153 OA
ATOM     20  O   UNL     1      -1.434   0.058  -0.311  0.00  0.00    -0.153 OA
BRANCH  18  21
ATOM     21  C   UNL     1      -0.868   2.363   0.650  0.00  0.00    +0.106 A 
ATOM     22  C   UNL     1       0.345   1.960   1.176  0.00  0.00    +0.031 A 
ATOM     23  C   UNL     1       1.318   2.897   1.468  0.00  0.00    +0.034 A 
ATOM     24  C   UNL     1       1.076   4.239   1.238  0.00  0.00    +0.126 A 
ATOM     25  C   UNL     1      -0.139   4.643   0.717  0.00  0.00    +0.034 A 
ATOM     26  C   UNL     1      -1.112   3.705   0.425  0.00  0.00    +0.031 A 
BRANCH  24  27
ATOM     27  N   UNL     1       2.118   5.243   1.550  0.00  0.00    +0.056 N 
ATOM     28  O   UNL     1       3.188   4.887   2.010  0.00  0.00    -0.126 OA
ATOM     29  O   UNL     1       1.904   6.425   1.348  0.00  0.00    -0.126 OA
ENDBRANCH  24  27
ENDBRANCH  18  21
ENDBRANCH   6  18
TORSDOF 5
