REMARK  Name = ZINC24833935
REMARK  8 active torsions:
REMARK  status: ('A' for Active; 'I' for Inactive)
REMARK    1  A    between atoms: C_1  and  C_2
REMARK    2  A    between atoms: C_3  and  C_22
REMARK    3  A    between atoms: C_8  and  C_10
REMARK    4  A    between atoms: C_10  and  C_11
REMARK    5  A    between atoms: C_11  and  C_12
REMARK    6  A    between atoms: C_14  and  C_17
REMARK    7  A    between atoms: N_27  and  C_28
REMARK    8  A    between atoms: C_28  and  C_29
REMARK                            x       y       z     vdW  Elec       q    Type
REMARK                         _______ _______ _______ _____ _____    ______ ____
ROOT
ATOM      1  C   UNL     1      12.921   3.887   0.470  0.00  0.00    +0.067 C 
ATOM      2  C   UNL     1      12.034   3.622   1.658  0.00  0.00    +0.058 A 
ATOM      3  C   UNL     1      12.512   3.749   2.939  0.00  0.00    +0.081 A 
ATOM      4  S   UNL     1      11.052   3.327   3.879  0.00  0.00    -0.049 S 
ATOM      5  C   UNL     1       9.995   3.026   2.534  0.00  0.00    +0.165 A 
ATOM      6  N   UNL     1      10.781   3.261   1.499  0.00  0.00    -0.229 NA
ATOM      7  N   UNL     1       8.662   2.642   2.545  0.00  0.00    -0.265 N 
ATOM      8  C   UNL     1       8.004   2.462   1.383  0.00  0.00    +0.219 C 
ATOM      9  O   UNL     1       8.576   2.635   0.328  0.00  0.00    -0.275 OA
ATOM     10  H   UNL     1       8.142   2.485   3.501  0.00  0.00    +0.157 HD
ENDROOT
BRANCH   3  11
ATOM     11  C   UNL     1      13.854   4.132   3.407  0.00  0.00    +0.174 A 
ATOM     12  N   UNL     1      14.873   4.427   2.646  0.00  0.00    -0.128 NA
ATOM     13  N   UNL     1      15.959   4.739   3.476  0.00  0.00    -0.121 NA
ATOM     14  C   UNL     1      15.544   4.609   4.753  0.00  0.00    +0.203 A 
ATOM     15  S   UNL     1      16.493   4.870   6.154  0.00  0.00    -0.009 SA
ATOM     16  N   UNL     1      14.249   4.235   4.728  0.00  0.00    -0.297 N 
BRANCH  16  17
ATOM     17  C   UNL     1      13.406   3.982   5.899  0.00  0.00    +0.152 C 
BRANCH  17  18
ATOM     18  C   UNL     1      13.512   2.530   6.288  0.00  0.00    -0.013 C 
ATOM     19  C   UNL     1      13.859   2.203   7.508  0.00  0.00    +0.005 C 
ENDBRANCH  17  18
ENDBRANCH  16  17
ENDBRANCH   3  11
BRANCH   8  20
ATOM     20  C   UNL     1       6.555   2.045   1.394  0.00  0.00    +0.105 C 
BRANCH  20  21
ATOM     21  C   UNL     1       6.052   1.911  -0.045  0.00  0.00    +0.108 C 
BRANCH  21  22
ATOM     22  C   UNL     1       4.604   1.494  -0.034  0.00  0.00    +0.228 A 
ATOM     23  N   UNL     1       3.566   2.292  -0.025  0.00  0.00    -0.189 NA
ATOM     24  C   UNL     1       2.483   1.479  -0.014  0.00  0.00    +0.237 A 
ATOM     25  N   UNL     1       2.927   0.246  -0.025  0.00  0.00    -0.053 NA
ATOM     26  O   UNL     1       4.139   0.240  -0.036  0.00  0.00    -0.338 OA
BRANCH  24  27
ATOM     27  C   UNL     1       1.068   1.902   0.002  0.00  0.00    +0.175 A 
ATOM     28  C   UNL     1      -0.013   1.076   0.008  0.00  0.00    +0.053 A 
ATOM     29  C   UNL     1      -1.154   1.901   0.017  0.00  0.00    +0.042 A 
ATOM     30  C   UNL     1      -0.719   3.177   0.026  0.00  0.00    +0.196 A 
ATOM     31  O   UNL     1       0.623   3.174   0.013  0.00  0.00    -0.460 OA
ENDBRANCH  24  27
ENDBRANCH  21  22
ENDBRANCH  20  21
ENDBRANCH   8  20
TORSDOF 7
