REMARK  Name = ZINC63751909
REMARK  7 active torsions:
REMARK  status: ('A' for Active; 'I' for Inactive)
REMARK    1  A    between atoms: C_1  and  C_2
REMARK    2  A    between atoms: C_2  and  C_3
REMARK    3  A    between atoms: C_3  and  C_4
REMARK    4  A    between atoms: C_4  and  C_5
REMARK    5  A    between atoms: C_11  and  S_13
REMARK    6  A    between atoms: S_13  and  C_14
REMARK    7  A    between atoms: C_14  and  C_15
REMARK                            x       y       z     vdW  Elec       q    Type
REMARK                         _______ _______ _______ _____ _____    ______ ____
ROOT
ATOM      1  S   UNL     1       4.272  -6.572   7.041  0.00  0.00    -0.094 S 
ENDROOT
BRANCH   1   8
ATOM      2  C   UNL     1       1.492  -2.540   2.454  0.00  0.00    +0.219 C 
ATOM      3  O   UNL     1       1.950  -1.750   3.252  0.00  0.00    -0.275 OA
ATOM      4  N   UNL     1       1.635  -3.864   2.659  0.00  0.00    -0.263 N 
ATOM      5  C   UNL     1       2.308  -4.326   3.787  0.00  0.00    +0.189 A 
ATOM      6  N   UNL     1       2.873  -3.651   4.775  0.00  0.00    -0.125 NA
ATOM      7  N   UNL     1       3.450  -4.230   5.736  0.00  0.00    -0.133 NA
ATOM      8  C   UNL     1       3.526  -5.551   5.814  0.00  0.00    +0.160 A 
ATOM      9  S   UNL     1       2.650  -6.001   4.319  0.00  0.00    -0.024 S 
ATOM     10  H   UNL     1       1.269  -4.496   2.020  0.00  0.00    +0.157 HD
BRANCH   2  11
ATOM     11  C   UNL     1       0.763  -2.041   1.233  0.00  0.00    +0.096 C 
BRANCH  11  12
ATOM     12  C   UNL     1       0.742  -0.511   1.242  0.00  0.00    +0.009 C 
BRANCH  12  14
ATOM     13  C   UNL     1      -0.019   1.526   0.010  0.00  0.00    +0.004 C 
ATOM     14  C   UNL     1       0.002  -0.004   0.002  0.00  0.00    -0.003 C 
ENDBRANCH  12  14
ENDBRANCH  11  12
ENDBRANCH   2  11
ENDBRANCH   1   8
BRANCH   1  15
ATOM     15  C   UNL     1       4.950  -5.393   8.241  0.00  0.00    +0.110 C 
BRANCH  15  16
ATOM     16  C   UNL     1       5.634  -6.156   9.376  0.00  0.00    +0.176 C 
ATOM     17  C   UNL     1       5.983  -5.160  10.458  0.00  0.00    +0.240 C 
ATOM     18  O   UNL     1       5.116  -4.483  10.974  0.00  0.00    -0.273 OA
ATOM     19  N   UNL     1       7.256  -5.033  10.838  0.00  0.00    -0.282 N 
ATOM     20  C   UNL     1       8.218  -5.757  10.292  0.00  0.00    +0.057 A 
ATOM     21  C   UNL     1       9.556  -5.598  10.718  0.00  0.00    +0.025 A 
ATOM     22  C   UNL     1      10.545  -6.337  10.163  0.00  0.00    +0.002 A 
ATOM     23  C   UNL     1      10.310  -7.285   9.153  0.00  0.00    +0.002 A 
ATOM     24  C   UNL     1       9.069  -7.516   8.672  0.00  0.00    +0.027 A 
ATOM     25  C   UNL     1       7.939  -6.752   9.226  0.00  0.00    +0.057 A 
ATOM     26  N   UNL     1       6.728  -6.946   8.789  0.00  0.00    -0.372 N 
ATOM     27  H   UNL     1       6.552  -7.597   8.093  0.00  0.00    +0.160 HD
ATOM     28  H   UNL     1       7.481  -4.393  11.532  0.00  0.00    +0.155 HD
ENDBRANCH  15  16
ENDBRANCH   1  15
TORSDOF 6
