REMARK  Name = ZINC64066740
REMARK  7 active torsions:
REMARK  status: ('A' for Active; 'I' for Inactive)
REMARK    1  A    between atoms: C_4  and  C_7
REMARK    2  A    between atoms: C_7  and  C_8
REMARK    3  A    between atoms: C_7  and  N_14
REMARK    4  A    between atoms: C_16  and  C_20
REMARK    5  A    between atoms: N_22  and  C_23
REMARK    6  A    between atoms: C_23  and  C_24
REMARK    7  A    between atoms: C_24  and  C_25
REMARK                            x       y       z     vdW  Elec       q    Type
REMARK                         _______ _______ _______ _____ _____    ______ ____
ROOT
ATOM      1  N   UNL     1       3.611  -1.865  -0.930  0.00  0.00    -0.223 N 
ATOM      2  C   UNL     1       4.436  -2.118  -2.127  0.00  0.00    +0.166 C 
ATOM      3  C   UNL     1       3.875  -3.462  -2.636  0.00  0.00    +0.233 C 
ATOM      4  N   UNL     1       2.817  -3.793  -1.672  0.00  0.00    -0.157 NA
ATOM      5  N   UNL     1       2.724  -2.933  -0.801  0.00  0.00    -0.082 NA
ENDROOT
BRANCH   3   6
ATOM      6  C   UNL     1       3.301  -3.305  -4.021  0.00  0.00    +0.241 C 
ATOM      7  O   UNL     1       2.103  -3.189  -4.171  0.00  0.00    -0.273 OA
ATOM      8  N   UNL     1       4.119  -3.295  -5.092  0.00  0.00    -0.313 N 
ATOM      9  H   UNL     1       5.077  -3.388  -4.971  0.00  0.00    +0.149 HD
BRANCH   8  10
ATOM     10  C   UNL     1       3.561  -3.143  -6.438  0.00  0.00    +0.108 C 
BRANCH  10  11
ATOM     11  C   UNL     1       4.695  -3.163  -7.465  0.00  0.00    +0.065 C 
BRANCH  11  12
ATOM     12  C   UNL     1       4.112  -3.004  -8.871  0.00  0.00    +0.175 C 
ATOM     13  N   UNL     1       3.238  -4.141  -9.186  0.00  0.00    -0.363 N 
ATOM     14  C   UNL     1       3.738  -4.742 -10.227  0.00  0.00    +0.060 A 
ATOM     15  C   UNL     1       3.319  -5.921 -10.997  0.00  0.00    +0.027 A 
ATOM     16  C   UNL     1       4.053  -6.320 -12.054  0.00  0.00    +0.002 A 
ATOM     17  C   UNL     1       5.221  -5.651 -12.462  0.00  0.00    +0.002 A 
ATOM     18  C   UNL     1       5.694  -4.560 -11.826  0.00  0.00    +0.027 A 
ATOM     19  C   UNL     1       4.974  -4.033 -10.659  0.00  0.00    +0.060 A 
ATOM     20  N   UNL     1       5.190  -3.022  -9.868  0.00  0.00    -0.363 N 
ATOM     21  H   UNL     1       2.435  -4.398  -8.706  0.00  0.00    +0.162 HD
ATOM     22  H   UNL     1       5.927  -2.395  -9.927  0.00  0.00    +0.162 HD
ENDBRANCH  11  12
ENDBRANCH  10  11
ENDBRANCH   8  10
ENDBRANCH   3   6
BRANCH   1  23
ATOM     23  C   UNL     1       3.711  -0.707  -0.038  0.00  0.00    +0.154 C 
BRANCH  23  27
ATOM     24  C   UNL     1      -0.017   1.378   0.010  0.00  0.00    +0.000 A 
ATOM     25  C   UNL     1       1.171   2.086   0.002  0.00  0.00    +0.000 A 
ATOM     26  C   UNL     1       2.377   1.411  -0.013  0.00  0.00    +0.006 A 
ATOM     27  C   UNL     1       2.396   0.029  -0.020  0.00  0.00    -0.021 A 
ATOM     28  C   UNL     1       1.208  -0.679  -0.012  0.00  0.00    +0.006 A 
ATOM     29  C   UNL     1       0.002  -0.004   0.002  0.00  0.00    +0.000 A 
ENDBRANCH  23  27
BRANCH  23  30
ATOM     30  C   UNL     1       4.044  -1.175   1.356  0.00  0.00    -0.021 A 
ATOM     31  C   UNL     1       3.455  -2.320   1.860  0.00  0.00    +0.006 A 
ATOM     32  C   UNL     1       3.760  -2.748   3.138  0.00  0.00    +0.000 A 
ATOM     33  C   UNL     1       4.654  -2.033   3.912  0.00  0.00    +0.000 A 
ATOM     34  C   UNL     1       5.243  -0.888   3.408  0.00  0.00    +0.000 A 
ATOM     35  C   UNL     1       4.941  -0.462   2.128  0.00  0.00    +0.006 A 
ENDBRANCH  23  30
ENDBRANCH   1  23
TORSDOF 7
