REMARK  Name = ZINC08521106
REMARK  7 active torsions:
REMARK  status: ('A' for Active; 'I' for Inactive)
REMARK    1  A    between atoms: C_1  and  C_2
REMARK    2  A    between atoms: C_2  and  C_4
REMARK    3  A    between atoms: C_2  and  O_15
REMARK    4  A    between atoms: N_6  and  C_7
REMARK    5  A    between atoms: C_8  and  C_12
REMARK    6  A    between atoms: O_15  and  C_16
REMARK    7  A    between atoms: C_16  and  C_18
REMARK                            x       y       z     vdW  Elec       q    Type
REMARK                         _______ _______ _______ _____ _____    ______ ____
ROOT
ATOM      1  C   UNL     1       2.273   6.186  -1.306  0.00  0.00    +0.062 C 
ATOM      2  C   UNL     1       2.332   5.617   0.113  0.00  0.00    +0.259 C 
ENDROOT
BRANCH   2   3
ATOM      3  C   UNL     1       3.567   6.130   0.809  0.00  0.00    +0.258 C 
ATOM      4  O   UNL     1       4.445   5.359   1.133  0.00  0.00    -0.271 OA
ATOM      5  N   UNL     1       3.694   7.446   1.072  0.00  0.00    -0.276 N 
ATOM      6  H   UNL     1       2.991   8.062   0.814  0.00  0.00    +0.155 HD
BRANCH   5   7
ATOM      7  C   UNL     1       4.830   7.918   1.713  0.00  0.00    +0.084 A 
ATOM      8  C   UNL     1       5.143   9.226   2.062  0.00  0.00    +0.065 A 
ATOM      9  C   UNL     1       6.405   9.435   2.731  0.00  0.00    +0.022 A 
ATOM     10  C   UNL     1       7.170   8.351   2.951  0.00  0.00    +0.048 A 
ATOM     11  S   UNL     1       6.204   7.021   2.265  0.00  0.00    -0.081 S 
BRANCH   8  12
ATOM     12  C   UNL     1       4.235  10.339   1.767  0.00  0.00    +0.244 C 
ATOM     13  O   UNL     1       3.177  10.129   1.204  0.00  0.00    -0.270 OA
ATOM     14  N   UNL     1       4.572  11.595   2.120  0.00  0.00    -0.325 N 
ATOM     15  H   UNL     1       5.416  11.763   2.569  0.00  0.00    +0.145 HD
ATOM     16  H   UNL     1       3.972  12.332   1.926  0.00  0.00    +0.145 HD
ENDBRANCH   8  12
ENDBRANCH   5   7
ENDBRANCH   2   3
BRANCH   2  17
ATOM     17  O   UNL     1       2.378   4.190   0.052  0.00  0.00    -0.449 OA
BRANCH  17  18
ATOM     18  C   UNL     1       1.197   3.538   0.060  0.00  0.00    +0.339 C 
ATOM     19  O   UNL     1       0.156   4.166   0.117  0.00  0.00    -0.245 OA
BRANCH  18  20
ATOM     20  C   UNL     1       1.168   2.122   0.002  0.00  0.00    +0.074 C 
ATOM     21  C   UNL     1      -0.018   1.466   0.010  0.00  0.00    +0.025 C 
ATOM     22  C   UNL     1       0.002  -0.004   0.002  0.00  0.00    +0.019 A 
ATOM     23  C   UNL     1      -1.152  -0.747  -0.242  0.00  0.00    +0.031 A 
ATOM     24  C   UNL     1      -1.085  -2.126  -0.254  0.00  0.00    +0.042 A 
ATOM     25  C   UNL     1       0.121  -2.769  -0.018  0.00  0.00    +0.023 A 
ATOM     26  C   UNL     1       1.267  -2.043   0.246  0.00  0.00    +0.048 A 
ATOM     27  C   UNL     1       1.216  -0.660   0.272  0.00  0.00    +0.128 A 
ATOM     28  O   UNL     1       2.313   0.077   0.574  0.00  0.00    -0.487 OA
ATOM     29  C   UNL     1       2.456   1.343  -0.069  0.00  0.00    +0.271 C 
ATOM     30 CL   UNL     1      -2.516  -3.058  -0.566  0.00  0.00    -0.084 Cl
ENDBRANCH  18  20
ENDBRANCH  17  18
ENDBRANCH   2  17
TORSDOF 6
