REMARK  Name = ZINC53582212
REMARK  12 active torsions:
REMARK  status: ('A' for Active; 'I' for Inactive)
REMARK    1  A    between atoms: C_1  and  C_2
REMARK    2  A    between atoms: C_5  and  C_7
REMARK    3  A    between atoms: C_7  and  C_9
REMARK    4  A    between atoms: C_7  and  N_10
REMARK    5  A    between atoms: N_10  and  C_11
REMARK    6  A    between atoms: C_14  and  C_20
REMARK    7  A    between atoms: C_16  and  N_17
REMARK    8  A    between atoms: N_22  and  C_23
REMARK    9  A    between atoms: C_23  and  C_25
REMARK   10  A    between atoms: C_23  and  C_26
REMARK   11  A    between atoms: C_26  and  O_28
REMARK   12  A    between atoms: O_28  and  C_29
REMARK                            x       y       z     vdW  Elec       q    Type
REMARK                         _______ _______ _______ _____ _____    ______ ____
ROOT
ATOM      1  C   UNL     1       2.516  -5.340  -1.546  0.00  0.00    +0.058 A 
ATOM      2  C   UNL     1       1.825  -6.500  -1.207  0.00  0.00    +0.026 A 
ATOM      3  C   UNL     1       2.200  -7.709  -1.747  0.00  0.00    +0.015 A 
ATOM      4  C   UNL     1       3.277  -7.772  -2.636  0.00  0.00    +0.039 A 
ATOM      5  C   UNL     1       3.969  -6.605  -2.975  0.00  0.00    +0.047 A 
ATOM      6  C   UNL     1       3.586  -5.398  -2.436  0.00  0.00    +0.148 A 
ENDROOT
BRANCH   4   7
ATOM      7  C   UNL     1       3.683  -9.066  -3.216  0.00  0.00    +0.245 C 
ATOM      8  O   UNL     1       4.619  -9.119  -3.990  0.00  0.00    -0.270 OA
ATOM      9  N   UNL     1       3.015 -10.190  -2.889  0.00  0.00    -0.299 N 
ATOM     10  H   UNL     1       2.268 -10.148  -2.272  0.00  0.00    +0.150 HD
BRANCH   9  11
ATOM     11  C   UNL     1       3.417 -11.475  -3.465  0.00  0.00    +0.179 C 
ATOM     12  C   UNL     1       2.752 -11.653  -4.831  0.00  0.00    +0.040 C 
BRANCH  11  13
ATOM     13  C   UNL     1       2.989 -12.592  -2.549  0.00  0.00    +0.327 C 
ATOM     14  O   UNL     1       2.408 -12.341  -1.520  0.00  0.00    -0.249 OA
BRANCH  13  15
ATOM     15  O   UNL     1       3.254 -13.867  -2.875  0.00  0.00    -0.467 OA
ATOM     16  C   UNL     1       2.820 -14.875  -1.960  0.00  0.00    +0.280 C 
ENDBRANCH  13  15
ENDBRANCH  11  13
ENDBRANCH   9  11
ENDBRANCH   4   7
BRANCH   6  17
ATOM     17  N   UNL     1       4.314  -4.162  -2.798  0.00  0.00    +0.058 N 
ATOM     18  O   UNL     1       4.716  -4.006  -3.927  0.00  0.00    -0.126 OA
ATOM     19  O   UNL     1       4.507  -3.308  -1.964  0.00  0.00    -0.126 OA
ENDBRANCH   6  17
BRANCH   1  20
ATOM     20  N   UNL     1       2.134  -4.120  -1.000  0.00  0.00    -0.335 N 
ATOM     21  H   UNL     1       2.560  -3.301  -1.296  0.00  0.00    +0.147 HD
BRANCH  20  22
ATOM     22  C   UNL     1       1.087  -4.072   0.024  0.00  0.00    +0.104 C 
ATOM     23  C   UNL     1       1.707  -4.328   1.400  0.00  0.00    +0.033 C 
BRANCH  22  28
ATOM     24  C   UNL     1      -0.448   1.378  -0.161  0.00  0.00    +0.051 C 
ATOM     25  C   UNL     1      -0.296  -0.119  -0.075  0.00  0.00    -0.013 A 
ATOM     26  C   UNL     1      -1.250  -1.065   0.109  0.00  0.00    +0.011 A 
ATOM     27  C   UNL     1      -0.875  -2.395   0.153  0.00  0.00    +0.013 A 
ATOM     28  C   UNL     1       0.435  -2.714   0.012  0.00  0.00    +0.010 A 
ATOM     29  S   UNL     1       1.185  -1.108  -0.199  0.00  0.00    -0.097 S 
ENDBRANCH  22  28
ENDBRANCH  20  22
ENDBRANCH   1  20
TORSDOF 8
