REMARK  Name = ZINC01203207
REMARK  6 active torsions:
REMARK  status: ('A' for Active; 'I' for Inactive)
REMARK    1  A    between atoms: C_10  and  C_11
REMARK    2  A    between atoms: C_11  and  C_12
REMARK    3  A    between atoms: N_14  and  N_15
REMARK    4  A    between atoms: C_16  and  C_17
REMARK    5  A    between atoms: C_20  and  O_25
REMARK    6  A    between atoms: C_22  and  O_23
REMARK                            x       y       z     vdW  Elec       q    Type
REMARK                         _______ _______ _______ _____ _____    ______ ____
ROOT
ATOM      1  C   UNL     1      -2.376   5.891  -1.360  0.00  0.00    +0.237 C 
ATOM      2  O   UNL     1      -2.293   5.109  -2.284  0.00  0.00    -0.274 OA
ATOM      3  N   UNL     1      -2.374   7.218  -1.598  0.00  0.00    -0.207 N 
ATOM      4  H   UNL     1      -2.441   7.843  -0.860  0.00  0.00    +0.177 HD
ENDROOT
BRANCH   3   5
ATOM      5  N   UNL     1      -2.277   7.693  -2.912  0.00  0.00    -0.188 NA
ATOM      6  C   UNL     1      -2.276   8.971  -3.142  0.00  0.00    +0.142 C 
BRANCH   6   7
ATOM      7  C   UNL     1      -2.174   9.472  -4.524  0.00  0.00    +0.038 A 
ATOM      8  C   UNL     1      -2.172  10.847  -4.774  0.00  0.00    +0.032 A 
ATOM      9  C   UNL     1      -2.076  11.311  -6.068  0.00  0.00    +0.061 A 
ATOM     10  C   UNL     1      -1.980  10.415  -7.127  0.00  0.00    +0.148 A 
ATOM     11  C   UNL     1      -1.980   9.048  -6.889  0.00  0.00    +0.102 A 
ATOM     12  C   UNL     1      -2.072   8.570  -5.592  0.00  0.00    +0.143 A 
ATOM     13 BR   UNL     1      -1.849   7.837  -8.335  0.00  0.00    -0.043 Br
ATOM     14 BR   UNL     1      -2.073  13.171  -6.404  0.00  0.00    -0.046 Br
BRANCH  12  15
ATOM     15  O   UNL     1      -2.067   7.232  -5.357  0.00  0.00    -0.505 OA
ATOM     16  H   UNL     1      -2.946   6.829  -5.360  0.00  0.00    +0.292 HD
ENDBRANCH  12  15
BRANCH  10  17
ATOM     17  O   UNL     1      -1.885  10.880  -8.400  0.00  0.00    -0.504 OA
ATOM     18  H   UNL     1      -0.978  11.026  -8.699  0.00  0.00    +0.292 HD
ENDBRANCH  10  17
ENDBRANCH   6   7
ENDBRANCH   3   5
BRANCH   1  19
ATOM     19  C   UNL     1      -2.480   5.380   0.054  0.00  0.00    +0.133 C 
BRANCH  19  29
ATOM     20  C   UNL     1       1.155   1.776   0.001  0.00  0.00    +0.001 A 
ATOM     21  C   UNL     1       1.155   3.170   0.008  0.00  0.00    +0.001 A 
ATOM     22  C   UNL     1      -0.011   3.871   0.023  0.00  0.00    +0.009 A 
ATOM     23  C   UNL     1      -1.236   3.183   0.031  0.00  0.00    -0.014 A 
ATOM     24  C   UNL     1      -1.237   1.766   0.018  0.00  0.00    -0.018 A 
ATOM     25  C   UNL     1      -0.013   1.076   0.008  0.00  0.00    +0.008 A 
ATOM     26  C   UNL     1      -2.462   1.078   0.019  0.00  0.00    +0.008 A 
ATOM     27  C   UNL     1      -3.629   1.779   0.029  0.00  0.00    +0.001 A 
ATOM     28  C   UNL     1      -3.628   3.173   0.036  0.00  0.00    +0.005 A 
ATOM     29  C   UNL     1      -2.460   3.873   0.045  0.00  0.00    -0.031 A 
ENDBRANCH  19  29
ENDBRANCH   1  19
TORSDOF 6
