REMARK  Name = ZINC66178316
REMARK  12 active torsions:
REMARK  status: ('A' for Active; 'I' for Inactive)
REMARK    1  A    between atoms: C_1  and  C_2
REMARK    2  A    between atoms: C_2  and  N_3
REMARK    3  A    between atoms: N_3  and  C_4
REMARK    4  A    between atoms: N_3  and  C_6
REMARK    5  A    between atoms: C_4  and  C_5
REMARK    6  A    between atoms: C_6  and  C_8
REMARK    7  A    between atoms: C_6  and  C_9
REMARK    8  A    between atoms: C_9  and  N_10
REMARK    9  A    between atoms: N_13  and  C_14
REMARK   10  A    between atoms: N_13  and  C_15
REMARK   11  A    between atoms: N_18  and  C_21
REMARK   12  A    between atoms: C_24  and  C_27
REMARK                            x       y       z     vdW  Elec       q    Type
REMARK                         _______ _______ _______ _____ _____    ______ ____
ROOT
ATOM      1  N   UNL     1       0.918  -1.466   1.326  0.00  0.00    -0.301 N 
ATOM      2  C   UNL     1       1.810  -1.675   2.314  0.00  0.00    +0.302 C 
ATOM      3  O   UNL     1       1.664  -2.610   3.077  0.00  0.00    -0.253 OA
ATOM      4  N   UNL     1       2.863  -0.846   2.457  0.00  0.00    -0.286 N 
ATOM      5  C   UNL     1       3.039   0.281   1.538  0.00  0.00    +0.134 C 
ATOM      6  H   UNL     1       1.034  -0.720   0.717  0.00  0.00    +0.150 HD
ENDROOT
BRANCH   4   7
ATOM      7  C   UNL     1       3.833  -1.073   3.532  0.00  0.00    +0.074 C 
ATOM      8  C   UNL     1       3.880   0.154   4.446  0.00  0.00    +0.004 C 
ATOM      9  C   UNL     1       4.951  -0.057   5.519  0.00  0.00    -0.077 C 
ATOM     10  N   UNL     1       6.259  -0.243   4.880  0.00  0.00    +0.382 N 
ATOM     11  C   UNL     1       6.243  -1.459   4.058  0.00  0.00    -0.077 C 
ATOM     12  C   UNL     1       5.222  -1.302   2.929  0.00  0.00    +0.004 C 
ATOM     13  H   UNL     1       6.464   0.554   4.296  0.00  0.00    -0.081 HD
BRANCH  10  14
ATOM     14  C   UNL     1       7.295  -0.367   5.915  0.00  0.00    -0.069 C 
ATOM     15  C   UNL     1       7.319   0.903   6.767  0.00  0.00    -0.015 C 
ATOM     16  C   UNL     1       8.398   0.774   7.844  0.00  0.00    +0.002 C 
ATOM     17  C   UNL     1       9.762   0.579   7.180  0.00  0.00    -0.014 C 
ATOM     18  C   UNL     1       9.737  -0.692   6.327  0.00  0.00    +0.002 C 
ATOM     19  C   UNL     1       8.659  -0.562   5.250  0.00  0.00    -0.015 C 
ATOM     20  C   UNL     1      10.072   1.784   6.290  0.00  0.00    +0.007 C 
ENDBRANCH  10  14
ENDBRANCH   4   7
BRANCH   1  21
ATOM     21  C   UNL     1      -0.227  -2.366   1.170  0.00  0.00    +0.090 C 
BRANCH  21  22
ATOM     22  C   UNL     1      -1.244  -1.739   0.214  0.00  0.00    -0.054 C 
ATOM     23  C   UNL     1      -2.156  -2.830  -0.348  0.00  0.00    -0.012 C 
BRANCH  22  24
ATOM     24  N   UNL     1      -2.052  -0.750   0.940  0.00  0.00    +0.382 N 
ATOM     25  H   UNL     1      -2.803  -0.429   0.347  0.00  0.00    -0.081 HD
BRANCH  24  27
ATOM     26  C   UNL     1      -3.616  -0.409   2.793  0.00  0.00    -0.017 C 
ATOM     27  C   UNL     1      -2.612  -1.367   2.149  0.00  0.00    -0.082 C 
ENDBRANCH  24  27
BRANCH  24  28
ATOM     28  C   UNL     1      -1.207   0.391   1.319  0.00  0.00    -0.082 C 
ATOM     29  C   UNL     1      -0.651   1.055   0.057  0.00  0.00    -0.017 C 
ENDBRANCH  24  28
ENDBRANCH  22  24
ENDBRANCH  21  22
ENDBRANCH   1  21
TORSDOF 7
