REMARK  Name = ZINC12802477
REMARK  9 active torsions:
REMARK  status: ('A' for Active; 'I' for Inactive)
REMARK    1  A    between atoms: C_1  and  C_2
REMARK    2  A    between atoms: C_3  and  C_29
REMARK    3  A    between atoms: N_9  and  C_24
REMARK    4  A    between atoms: C_10  and  S_12
REMARK    5  A    between atoms: S_12  and  C_13
REMARK    6  A    between atoms: C_13  and  C_15
REMARK    7  A    between atoms: C_13  and  C_18
REMARK    8  A    between atoms: C_15  and  C_16
REMARK    9  A    between atoms: C_15  and  C_17
REMARK                            x       y       z     vdW  Elec       q    Type
REMARK                         _______ _______ _______ _____ _____    ______ ____
ROOT
ATOM      1  C   UNL     1       2.377   5.946  -0.266  0.00  0.00    +0.045 C 
ATOM      2  C   UNL     1       3.364   4.810  -0.176  0.00  0.00    -0.026 A 
ATOM      3  C   UNL     1       4.682   5.056  -0.169  0.00  0.00    -0.008 A 
ATOM      4  S   UNL     1       5.405   3.430  -0.051  0.00  0.00    -0.073 S 
ATOM      5  C   UNL     1       3.915   2.468  -0.014  0.00  0.00    +0.117 A 
ATOM      6  C   UNL     1       2.897   3.436  -0.095  0.00  0.00    +0.075 A 
ATOM      7  C   UNL     1       1.558   2.934  -0.090  0.00  0.00    +0.263 A 
ATOM      8  O   UNL     1       0.611   3.698  -0.162  0.00  0.00    -0.267 OA
ATOM      9  N   UNL     1       1.357   1.606  -0.002  0.00  0.00    -0.284 N 
ATOM     10  C   UNL     1       2.405   0.735   0.072  0.00  0.00    +0.174 A 
ATOM     11  N   UNL     1       3.648   1.170   0.065  0.00  0.00    -0.216 NA
ATOM     12  C   UNL     1       5.384   6.387  -0.243  0.00  0.00    +0.052 C 
ENDROOT
BRANCH   9  13
ATOM     13  C   UNL     1      -0.013   1.086   0.008  0.00  0.00    +0.093 C 
ATOM     14  C   UNL     1      -0.740   1.536   1.292  0.00  0.00    +0.025 C 
ATOM     15  C   UNL     1      -1.516   2.807   0.862  0.00  0.00    +0.002 C 
ATOM     16  C   UNL     1      -1.989   2.451  -0.569  0.00  0.00    +0.002 C 
ATOM     17  C   UNL     1      -0.806   1.668  -1.175  0.00  0.00    +0.025 C 
ENDBRANCH   9  13
BRANCH  10  18
ATOM     18  S   UNL     1       2.090  -0.996   0.178  0.00  0.00    -0.075 S 
BRANCH  18  19
ATOM     19  C   UNL     1       3.787  -1.620   0.248  0.00  0.00    +0.143 C 
BRANCH  19  20
ATOM     20  C   UNL     1       3.766  -3.111   0.468  0.00  0.00    +0.234 C 
ATOM     21  O   UNL     1       2.800  -3.760   0.128  0.00  0.00    -0.274 OA
ATOM     22  N   UNL     1       4.820  -3.723   1.043  0.00  0.00    -0.239 N 
ATOM     23  C   UNL     1       4.801  -5.056   1.240  0.00  0.00    +0.303 C 
ATOM     24  O   UNL     1       3.832  -5.707   0.899  0.00  0.00    -0.253 OA
ATOM     25  N   UNL     1       5.855  -5.668   1.815  0.00  0.00    -0.313 N 
ATOM     26  H   UNL     1       5.593  -3.204   1.316  0.00  0.00    +0.159 HD
ATOM     27  H   UNL     1       6.628  -5.149   2.087  0.00  0.00    +0.146 HD
ATOM     28  H   UNL     1       5.841  -6.627   1.957  0.00  0.00    +0.146 HD
ENDBRANCH  19  20
BRANCH  19  29
ATOM     29  C   UNL     1       4.500  -1.310  -1.070  0.00  0.00    +0.005 C 
ATOM     30  C   UNL     1       5.934  -1.837  -1.011  0.00  0.00    +0.009 C 
ATOM     31  C   UNL     1       3.755  -1.985  -2.223  0.00  0.00    +0.009 C 
ENDBRANCH  19  29
ENDBRANCH  18  19
ENDBRANCH  10  18
TORSDOF 5
