REMARK  Name = ZINC19424239
REMARK  11 active torsions:
REMARK  status: ('A' for Active; 'I' for Inactive)
REMARK    1  A    between atoms: C_1  and  C_2
REMARK    2  A    between atoms: C_2  and  O_3
REMARK    3  A    between atoms: O_3  and  C_4
REMARK    4  A    between atoms: C_4  and  C_6
REMARK    5  A    between atoms: C_7  and  C_19
REMARK    6  A    between atoms: C_12  and  C_14
REMARK    7  A    between atoms: C_19  and  S_20
REMARK    8  A    between atoms: S_20  and  C_21
REMARK    9  A    between atoms: C_24  and  C_29
REMARK   10  A    between atoms: N_25  and  C_26
REMARK   11  A    between atoms: C_29  and  C_30
REMARK                            x       y       z     vdW  Elec       q    Type
REMARK                         _______ _______ _______ _____ _____    ______ ____
ROOT
ATOM      1  C   UNL     1      -0.556   1.738   3.310  0.00  0.00    +0.082 C 
ATOM      2  C   UNL     1      -0.236   1.246   4.526  0.00  0.00    +0.034 C 
ATOM      3  N   UNL     1      -0.938   1.607   5.640  0.00  0.00    -0.272 N 
ATOM      4  C   UNL     1      -1.973   2.457   5.622  0.00  0.00    +0.304 C 
ATOM      5  O   UNL     1      -2.537   2.719   6.667  0.00  0.00    -0.252 OA
ATOM      6  N   UNL     1      -2.410   3.031   4.484  0.00  0.00    -0.285 N 
ATOM      7  C   UNL     1      -1.715   2.711   3.226  0.00  0.00    +0.179 C 
ATOM      8  H   UNL     1      -0.662   1.195   6.622  0.00  0.00    +0.156 HD
ATOM      9  H   UNL     1      -3.264   3.724   4.480  0.00  0.00    +0.151 HD
ENDROOT
BRANCH   7  10
ATOM     10  C   UNL     1      -1.201   3.997   2.633  0.00  0.00    +0.130 A 
ATOM     11  C   UNL     1      -1.337   4.382   1.351  0.00  0.00    +0.047 A 
ATOM     12  C   UNL     1      -0.710   5.644   1.234  0.00  0.00    +0.041 A 
ATOM     13  C   UNL     1      -0.228   5.954   2.451  0.00  0.00    +0.195 A 
ATOM     14  O   UNL     1      -0.533   4.956   3.295  0.00  0.00    -0.466 OA
ENDBRANCH   7  10
BRANCH   1  15
ATOM     15  C   UNL     1       0.170   1.365   2.155  0.00  0.00    +0.339 C 
ATOM     16  O   UNL     1      -0.279   0.522   1.401  0.00  0.00    -0.245 OA
BRANCH  15  17
ATOM     17  O   UNL     1       1.361   1.942   1.890  0.00  0.00    -0.462 OA
BRANCH  17  19
ATOM     18  C   UNL     1       3.361   2.276   0.575  0.00  0.00    +0.048 C 
ATOM     19  C   UNL     1       2.039   1.516   0.707  0.00  0.00    +0.229 C 
ENDBRANCH  17  19
ENDBRANCH  15  17
ENDBRANCH   1  15
BRANCH   2  20
ATOM     20  C   UNL     1       0.914   0.280   4.655  0.00  0.00    +0.128 C 
BRANCH  20  21
ATOM     21  S   UNL     1       2.340   1.133   5.371  0.00  0.00    -0.080 S 
BRANCH  21  22
ATOM     22  C   UNL     1       3.502  -0.191   5.407  0.00  0.00    +0.192 A 
ATOM     23  N   UNL     1       3.295  -1.422   5.003  0.00  0.00    -0.122 NA
ATOM     24  N   UNL     1       4.359  -2.123   5.175  0.00  0.00    -0.133 NA
ATOM     25  C   UNL     1       5.300  -1.387   5.695  0.00  0.00    +0.139 A 
ATOM     26  N   UNL     1       4.790  -0.128   5.856  0.00  0.00    -0.303 N 
BRANCH  26  27
ATOM     27  C   UNL     1       5.482   1.043   6.401  0.00  0.00    +0.091 C 
ATOM     28  C   UNL     1       4.621   2.225   6.852  0.00  0.00    +0.027 C 
ATOM     29  C   UNL     1       5.454   2.329   5.571  0.00  0.00    +0.027 C 
ENDBRANCH  26  27
BRANCH  25  30
ATOM     30  C   UNL     1       6.694  -1.838   6.047  0.00  0.00    +0.118 C 
BRANCH  30  31
ATOM     31  C   UNL     1       7.602  -1.635   4.861  0.00  0.00    -0.003 A 
ATOM     32  C   UNL     1       8.340  -0.549   4.527  0.00  0.00    +0.011 A 
ATOM     33  C   UNL     1       9.112  -0.589   3.381  0.00  0.00    +0.008 A 
ATOM     34  C   UNL     1       9.100  -1.711   2.619  0.00  0.00    +0.045 A 
ATOM     35  S   UNL     1       7.979  -2.762   3.528  0.00  0.00    -0.101 S 
ENDBRANCH  30  31
ENDBRANCH  25  30
ENDBRANCH  21  22
ENDBRANCH  20  21
ENDBRANCH   2  20
TORSDOF 10
