REMARK  Name = ZINC35354266
REMARK  7 active torsions:
REMARK  status: ('A' for Active; 'I' for Inactive)
REMARK    1  A    between atoms: C_3  and  N_19
REMARK    2  A    between atoms: C_4  and  C_10
REMARK    3  A    between atoms: C_6  and  N_7
REMARK    4  A    between atoms: N_12  and  C_13
REMARK    5  A    between atoms: N_19  and  C_20
REMARK    6  A    between atoms: C_20  and  C_21
REMARK    7  A    between atoms: C_21  and  N_22
REMARK                            x       y       z     vdW  Elec       q    Type
REMARK                         _______ _______ _______ _____ _____    ______ ____
ROOT
ATOM      1  C   UNL     1      -0.079   1.255   0.021  0.00  0.00    +0.034 A 
ATOM      2  C   UNL     1       1.022   2.087  -0.009  0.00  0.00    +0.026 A 
ATOM      3  C   UNL     1       2.301   1.547  -0.036  0.00  0.00    +0.040 A 
ATOM      4  C   UNL     1       2.467   0.153  -0.033  0.00  0.00    +0.060 A 
ATOM      5  C   UNL     1       1.342  -0.675  -0.002  0.00  0.00    +0.047 A 
ATOM      6  C   UNL     1       0.081  -0.121   0.025  0.00  0.00    +0.127 A 
ENDROOT
BRANCH   4   7
ATOM      7  C   UNL     1       3.820  -0.434  -0.062  0.00  0.00    +0.246 C 
ATOM      8  O   UNL     1       4.796   0.286   0.020  0.00  0.00    -0.270 OA
ATOM      9  N   UNL     1       3.973  -1.768  -0.179  0.00  0.00    -0.308 N 
ATOM     10  H   UNL     1       3.194  -2.342  -0.244  0.00  0.00    +0.149 HD
BRANCH   9  11
ATOM     11  C   UNL     1       5.317  -2.350  -0.208  0.00  0.00    +0.073 C 
ATOM     12  C   UNL     1       5.860  -2.310  -1.638  0.00  0.00    +0.022 C 
ATOM     13  C   UNL     1       7.263  -2.919  -1.668  0.00  0.00    +0.002 C 
ATOM     14  C   UNL     1       7.200  -4.370  -1.187  0.00  0.00    +0.000 C 
ATOM     15  C   UNL     1       6.657  -4.410   0.243  0.00  0.00    +0.002 C 
ATOM     16  C   UNL     1       5.254  -3.802   0.273  0.00  0.00    +0.022 C 
ENDBRANCH   9  11
ENDBRANCH   4   7
BRANCH   6  17
ATOM     17  N   UNL     1      -1.109  -1.001   0.057  0.00  0.00    +0.056 N 
ATOM     18  O   UNL     1      -2.217  -0.518   0.081  0.00  0.00    -0.126 OA
ATOM     19  O   UNL     1      -0.973  -2.202   0.060  0.00  0.00    -0.126 OA
ENDBRANCH   6  17
BRANCH   3  20
ATOM     20  N   UNL     1       3.411   2.381  -0.067  0.00  0.00    -0.342 N 
ATOM     21  H   UNL     1       4.303   2.005  -0.004  0.00  0.00    +0.146 HD
BRANCH  20  22
ATOM     22  C   UNL     1       3.235   3.830  -0.194  0.00  0.00    +0.121 C 
BRANCH  22  23
ATOM     23  C   UNL     1       4.604   4.512  -0.203  0.00  0.00    +0.135 C 
BRANCH  23  24
ATOM     24  N   UNL     1       4.428   5.961  -0.330  0.00  0.00    -0.240 N 
ATOM     25  C   UNL     1       4.374   6.582  -1.513  0.00  0.00    +0.226 C 
ATOM     26  O   UNL     1       4.462   6.039  -2.593  0.00  0.00    -0.275 OA
ATOM     27  C   UNL     1       4.186   8.066  -1.295  0.00  0.00    +0.095 C 
ATOM     28  C   UNL     1       5.507   8.792  -1.702  0.00  0.00    +0.025 C 
ATOM     29  C   UNL     1       5.523   9.964  -0.655  0.00  0.00    +0.016 C 
ATOM     30  C   UNL     1       5.469   8.988   0.576  0.00  0.00    +0.025 C 
ATOM     31  C   UNL     1       4.138   8.196   0.256  0.00  0.00    +0.095 C 
ATOM     32  C   UNL     1       4.301   6.769   0.729  0.00  0.00    +0.226 C 
ATOM     33  O   UNL     1       4.318   6.413   1.887  0.00  0.00    -0.275 OA
ATOM     34  C   UNL     1       6.594   8.020   0.193  0.00  0.00    -0.027 C 
ATOM     35  C   UNL     1       6.616   7.895  -1.140  0.00  0.00    -0.027 C 
ENDBRANCH  23  24
ENDBRANCH  22  23
ENDBRANCH  20  22
ENDBRANCH   3  20
TORSDOF 7
