REMARK  Name = ZINC35692517
REMARK  12 active torsions:
REMARK  status: ('A' for Active; 'I' for Inactive)
REMARK    1  A    between atoms: C_1  and  C_2
REMARK    2  A    between atoms: C_3  and  C_28
REMARK    3  A    between atoms: C_4  and  C_22
REMARK    4  A    between atoms: C_7  and  C_12
REMARK    5  A    between atoms: C_13  and  N_15
REMARK    6  A    between atoms: N_15  and  C_16
REMARK    7  A    between atoms: C_16  and  C_17
REMARK    8  A    between atoms: C_28  and  O_30
REMARK    9  A    between atoms: O_30  and  C_31
REMARK   10  A    between atoms: C_31  and  C_32
REMARK   11  A    between atoms: C_32  and  O_33
REMARK   12  A    between atoms: O_33  and  C_34
REMARK                            x       y       z     vdW  Elec       q    Type
REMARK                         _______ _______ _______ _____ _____    ______ ____
ROOT
ATOM      1  C   UNL     1       0.374   1.229   0.764  0.00  0.00    +0.066 C 
ATOM      2  C   UNL     1       0.268  -0.235   0.423  0.00  0.00    +0.053 C 
ATOM      3  C   UNL     1      -0.970  -0.850   0.417  0.00  0.00    +0.082 C 
ATOM      4  C   UNL     1      -1.024  -2.321   0.068  0.00  0.00    +0.150 C 
ATOM      5  N   UNL     1       0.267  -2.991  -0.243  0.00  0.00    -0.267 N 
ATOM      6  C   UNL     1       0.455  -4.315  -0.586  0.00  0.00    +0.048 C 
ATOM      7  C   UNL     1       1.718  -4.726  -0.832  0.00  0.00    +0.072 C 
ATOM      8  S   UNL     1       2.649  -3.228  -0.577  0.00  0.00    -0.060 S 
ATOM      9  C   UNL     1       1.381  -2.202  -0.181  0.00  0.00    +0.166 C 
ATOM     10  N   UNL     1       1.359  -0.921   0.126  0.00  0.00    -0.230 NA
ENDROOT
BRANCH   4  11
ATOM     11  C   UNL     1      -1.657  -3.049   1.226  0.00  0.00    -0.022 A 
ATOM     12  C   UNL     1      -0.944  -3.239   2.395  0.00  0.00    +0.006 A 
ATOM     13  C   UNL     1      -1.524  -3.908   3.457  0.00  0.00    +0.000 A 
ATOM     14  C   UNL     1      -2.817  -4.386   3.350  0.00  0.00    +0.000 A 
ATOM     15  C   UNL     1      -3.530  -4.195   2.181  0.00  0.00    +0.000 A 
ATOM     16  C   UNL     1      -2.951  -3.523   1.120  0.00  0.00    +0.006 A 
ENDBRANCH   4  11
BRANCH   6  17
ATOM     17  C   UNL     1      -0.680  -5.245  -0.679  0.00  0.00    +0.091 C 
ATOM     18  C   UNL     1      -0.460  -6.558  -0.885  0.00  0.00    +0.239 C 
ATOM     19  O   UNL     1       0.807  -7.041  -0.882  0.00  0.00    -0.271 OA
BRANCH  18  20
ATOM     20  N   UNL     1      -1.527  -7.413  -1.099  0.00  0.00    -0.305 N 
ATOM     21  H   UNL     1      -2.436  -7.083  -1.028  0.00  0.00    +0.149 HD
BRANCH  20  22
ATOM     22  C   UNL     1      -1.282  -8.819  -1.434  0.00  0.00    +0.179 C 
BRANCH  22  23
ATOM     23  C   UNL     1      -2.593  -9.498  -1.736  0.00  0.00    +0.122 A 
ATOM     24  C   UNL     1      -3.172  -9.589  -2.947  0.00  0.00    +0.046 A 
ATOM     25  C   UNL     1      -4.380 -10.303  -2.771  0.00  0.00    +0.041 A 
ATOM     26  C   UNL     1      -4.467 -10.606  -1.463  0.00  0.00    +0.195 A 
ATOM     27  O   UNL     1      -3.379 -10.121  -0.842  0.00  0.00    -0.466 OA
ENDBRANCH  22  23
ENDBRANCH  20  22
ENDBRANCH  18  20
ENDBRANCH   6  17
BRANCH   3  28
ATOM     28  C   UNL     1      -2.134  -0.136   0.725  0.00  0.00    +0.339 C 
ATOM     29  O   UNL     1      -2.067   1.048   1.004  0.00  0.00    -0.245 OA
BRANCH  28  30
ATOM     30  O   UNL     1      -3.332  -0.761   0.713  0.00  0.00    -0.459 OA
BRANCH  30  31
ATOM     31  C   UNL     1      -4.479   0.029   1.037  0.00  0.00    +0.260 C 
BRANCH  31  32
ATOM     32  C   UNL     1      -5.734  -0.843   0.972  0.00  0.00    +0.200 C 
BRANCH  32  33
ATOM     33  O   UNL     1      -5.669  -1.849   1.985  0.00  0.00    -0.380 OA
ATOM     34  C   UNL     1      -6.799  -2.722   2.010  0.00  0.00    +0.194 C 
ENDBRANCH  32  33
ENDBRANCH  31  32
ENDBRANCH  30  31
ENDBRANCH  28  30
ENDBRANCH   3  28
TORSDOF 10
