REMARK  Name = ZINC63807116
REMARK  4 active torsions:
REMARK  status: ('A' for Active; 'I' for Inactive)
REMARK    1  A    between atoms: C_6  and  N_7
REMARK    2  A    between atoms: N_15  and  C_16
REMARK    3  A    between atoms: C_16  and  C_17
REMARK    4  A    between atoms: N_19  and  C_20
REMARK                            x       y       z     vdW  Elec       q    Type
REMARK                         _______ _______ _______ _____ _____    ______ ____
ROOT
ATOM      1  N   UNL     1      -1.203  -0.741   0.108  0.00  0.00    -0.327 N 
ATOM      2  C   UNL     1      -2.491  -0.042   0.228  0.00  0.00    +0.124 C 
ATOM      3  C   UNL     1      -3.372  -0.430  -0.966  0.00  0.00    +0.128 C 
ATOM      4  N   UNL     1      -3.370  -1.894  -1.096  0.00  0.00    -0.283 N 
ATOM      5  C   UNL     1      -2.083  -2.592  -1.216  0.00  0.00    +0.128 C 
ATOM      6  C   UNL     1      -1.202  -2.204  -0.028  0.00  0.00    +0.124 C 
ATOM      7  C   UNL     1      -4.528  -2.583  -1.104  0.00  0.00    +0.303 C 
ATOM      8  O   UNL     1      -5.589  -1.989  -1.104  0.00  0.00    -0.253 OA
ATOM      9  N   UNL     1      -4.510  -3.931  -1.112  0.00  0.00    -0.291 N 
ATOM     10  H   UNL     1      -3.667  -4.405  -1.034  0.00  0.00    +0.151 HD
ENDROOT
BRANCH   1  16
ATOM     11  C   UNL     1       1.210  -0.703   0.118  0.00  0.00    +0.026 A 
ATOM     12  C   UNL     1       2.396   0.006   0.126  0.00  0.00    +0.040 A 
ATOM     13  C   UNL     1       2.376   1.390   0.132  0.00  0.00    +0.124 A 
ATOM     14  C   UNL     1       1.168   2.068   0.131  0.00  0.00    +0.040 A 
ATOM     15  C   UNL     1      -0.019   1.363   0.123  0.00  0.00    +0.026 A 
ATOM     16  C   UNL     1      -0.002  -0.026   0.116  0.00  0.00    +0.030 A 
ATOM     17  F   UNL     1       3.537   2.082   0.140  0.00  0.00    -0.205 F 
ENDBRANCH   1  16
BRANCH   9  18
ATOM     18  C   UNL     1      -5.763  -4.679  -1.239  0.00  0.00    +0.202 C 
BRANCH  18  19
ATOM     19  C   UNL     1      -5.468  -6.157  -1.221  0.00  0.00    +0.234 C 
ATOM     20  O   UNL     1      -4.325  -6.547  -1.114  0.00  0.00    -0.274 OA
ATOM     21  N   UNL     1      -6.476  -7.046  -1.325  0.00  0.00    -0.284 N 
ATOM     22  H   UNL     1      -7.396  -6.737  -1.339  0.00  0.00    +0.155 HD
BRANCH  21  23
ATOM     23  C   UNL     1      -6.196  -8.415  -1.413  0.00  0.00    +0.032 C 
ATOM     24  C   UNL     1      -6.623  -9.091  -2.493  0.00  0.00    +0.027 C 
ATOM     25  C   UNL     1      -6.376 -10.568  -2.572  0.00  0.00    +0.160 C 
ATOM     26  C   UNL     1      -5.130 -10.870  -1.760  0.00  0.00    -0.018 C 
ATOM     27  C   UNL     1      -4.360 -11.634  -2.554  0.00  0.00    +0.025 C 
ATOM     28  C   UNL     1      -4.936 -11.700  -3.843  0.00  0.00    +0.106 C 
ATOM     29  N   UNL     1      -6.077 -11.071  -3.905  0.00  0.00    -0.279 NA
ATOM     30  C   UNL     1      -4.884 -10.278  -0.505  0.00  0.00    +0.008 C 
ATOM     31  C   UNL     1      -5.445  -9.047  -0.326  0.00  0.00    +0.023 C 
ENDBRANCH  21  23
ENDBRANCH  18  19
ENDBRANCH   9  18
TORSDOF 4
