REMARK  Name = ZINC13200925
REMARK  10 active torsions:
REMARK  status: ('A' for Active; 'I' for Inactive)
REMARK    1  A    between atoms: C_1  and  C_2
REMARK    2  A    between atoms: C_2  and  C_4
REMARK    3  A    between atoms: C_2  and  S_18
REMARK    4  A    between atoms: N_6  and  C_7
REMARK    5  A    between atoms: S_18  and  C_19
REMARK    6  A    between atoms: C_22  and  C_27
REMARK    7  A    between atoms: N_23  and  C_24
REMARK    8  A    between atoms: C_24  and  C_25
REMARK    9  A    between atoms: C_30  and  O_33
REMARK   10  A    between atoms: O_33  and  C_34
REMARK                            x       y       z     vdW  Elec       q    Type
REMARK                         _______ _______ _______ _____ _____    ______ ____
ROOT
ATOM      1  S   UNL     1       6.601   3.559  -0.798  0.00  0.00    -0.074 S 
ENDROOT
BRANCH   1   2
ATOM      2  C   UNL     1       7.517   4.174  -2.172  0.00  0.00    +0.193 A 
ATOM      3  N   UNL     1       7.971   3.470  -3.184  0.00  0.00    -0.122 NA
ATOM      4  N   UNL     1       8.595   4.233  -4.008  0.00  0.00    -0.128 NA
ATOM      5  C   UNL     1       8.579   5.471  -3.573  0.00  0.00    +0.165 A 
ATOM      6  N   UNL     1       7.883   5.473  -2.386  0.00  0.00    -0.291 N 
BRANCH   5   7
ATOM      7  C   UNL     1       9.188   6.643  -4.236  0.00  0.00    +0.020 A 
ATOM      8  C   UNL     1       9.517   6.589  -5.591  0.00  0.00    +0.015 A 
ATOM      9  C   UNL     1      10.079   7.686  -6.207  0.00  0.00    +0.046 A 
ATOM     10  C   UNL     1      10.331   8.841  -5.478  0.00  0.00    +0.120 A 
ATOM     11  C   UNL     1      10.011   8.897  -4.128  0.00  0.00    +0.046 A 
ATOM     12  C   UNL     1       9.443   7.806  -3.506  0.00  0.00    +0.015 A 
BRANCH  10  13
ATOM     13  O   UNL     1      10.890   9.919  -6.087  0.00  0.00    -0.495 OA
ATOM     14  C   UNL     1      11.194   9.793  -7.478  0.00  0.00    +0.277 C 
ENDBRANCH  10  13
ENDBRANCH   5   7
BRANCH   6  15
ATOM     15  C   UNL     1       7.597   6.626  -1.529  0.00  0.00    +0.250 C 
BRANCH  15  16
ATOM     16  C   UNL     1       8.695   6.777  -0.507  0.00  0.00    +0.375 C 
ATOM     17  O   UNL     1       9.621   6.001  -0.497  0.00  0.00    -0.244 OA
ATOM     18  O   UNL     1       8.644   7.774   0.390  0.00  0.00    -0.244 OA
ENDBRANCH  15  16
ENDBRANCH   6  15
ENDBRANCH   1   2
BRANCH   1  20
ATOM     19  C   UNL     1       7.928   1.209  -1.218  0.00  0.00    +0.029 C 
ATOM     20  C   UNL     1       6.519   1.804  -1.235  0.00  0.00    +0.137 C 
BRANCH  20  21
ATOM     21  C   UNL     1       5.655   1.078  -0.237  0.00  0.00    +0.227 C 
ATOM     22  O   UNL     1       5.442   1.569   0.852  0.00  0.00    -0.275 OA
ATOM     23  N   UNL     1       5.117  -0.116  -0.554  0.00  0.00    -0.308 N 
ATOM     24  H   UNL     1       5.287  -0.509  -1.425  0.00  0.00    +0.149 HD
BRANCH  23  25
ATOM     25  C   UNL     1       4.277  -0.822   0.416  0.00  0.00    +0.103 C 
ATOM     26  C   UNL     1       4.333  -2.322   0.134  0.00  0.00    +0.027 C 
ATOM     27  C   UNL     1       3.289  -3.020   1.014  0.00  0.00    +0.007 C 
ATOM     28  C   UNL     1       1.899  -2.648   0.499  0.00  0.00    +0.035 C 
ATOM     29  C   UNL     1       1.770  -1.154   0.356  0.00  0.00    -0.042 A 
ATOM     30  C   UNL     1       2.862  -0.317   0.309  0.00  0.00    -0.024 A 
ATOM     31  C   UNL     1       2.674   1.051   0.160  0.00  0.00    +0.006 A 
ATOM     32  C   UNL     1       1.402   1.578   0.063  0.00  0.00    +0.000 A 
ATOM     33  C   UNL     1       0.306   0.738   0.115  0.00  0.00    +0.000 A 
ATOM     34  C   UNL     1       0.491  -0.622   0.261  0.00  0.00    +0.004 A 
ENDBRANCH  23  25
ENDBRANCH  20  21
ENDBRANCH   1  20
TORSDOF 8
