REMARK  Name = ZINC21967982
REMARK  8 active torsions:
REMARK  status: ('A' for Active; 'I' for Inactive)
REMARK    1  A    between atoms: C_1  and  C_2
REMARK    2  A    between atoms: C_2  and  C_4
REMARK    3  A    between atoms: C_2  and  O_25
REMARK    4  A    between atoms: N_6  and  N_7
REMARK    5  A    between atoms: C_8  and  C_10
REMARK    6  A    between atoms: N_13  and  C_16
REMARK    7  A    between atoms: C_21  and  N_22
REMARK    8  A    between atoms: O_25  and  C_26
REMARK                            x       y       z     vdW  Elec       q    Type
REMARK                         _______ _______ _______ _____ _____    ______ ____
ROOT
ATOM      1  N   UNL     1      -2.384   0.806   0.314  0.00  0.00    -0.234 N 
ATOM      2  C   UNL     1      -3.596   1.365   0.496  0.00  0.00    +0.232 C 
ATOM      3  O   UNL     1      -3.690   2.558   0.694  0.00  0.00    -0.274 OA
ATOM      4  H   UNL     1      -2.298  -0.276   0.134  0.00  0.00    +0.173 HD
ENDROOT
BRANCH   2   5
ATOM      5  C   UNL     1      -4.835   0.509   0.453  0.00  0.00    +0.079 C 
ATOM      6  C   UNL     1      -4.944  -0.165  -0.918  0.00  0.00    +0.032 C 
ATOM      7  C   UNL     1      -6.236  -0.983  -0.977  0.00  0.00    +0.106 C 
ATOM      8  N   UNL     1      -7.388  -0.101  -0.751  0.00  0.00    -0.328 N 
ATOM      9  C   UNL     1      -7.329   0.519   0.578  0.00  0.00    +0.106 C 
ATOM     10  C   UNL     1      -6.071   1.384   0.684  0.00  0.00    +0.032 C 
BRANCH   8  11
ATOM     11  C   UNL     1      -8.589  -0.791  -0.929  0.00  0.00    +0.060 A 
ATOM     12  C   UNL     1      -8.919  -1.844  -0.084  0.00  0.00    +0.025 A 
ATOM     13  C   UNL     1     -10.110  -2.520  -0.258  0.00  0.00    +0.002 A 
ATOM     14  C   UNL     1     -10.969  -2.159  -1.280  0.00  0.00    +0.002 A 
ATOM     15  C   UNL     1     -10.642  -1.115  -2.126  0.00  0.00    +0.034 A 
ATOM     16  C   UNL     1      -9.455  -0.431  -1.954  0.00  0.00    +0.147 A 
BRANCH  16  17
ATOM     17  N   UNL     1      -9.105   0.685  -2.860  0.00  0.00    +0.058 N 
ATOM     18  O   UNL     1      -9.864   1.001  -3.759  0.00  0.00    -0.126 OA
ATOM     19  O   UNL     1      -8.057   1.288  -2.708  0.00  0.00    -0.126 OA
ENDBRANCH  16  17
ENDBRANCH   8  11
ENDBRANCH   2   5
BRANCH   1  22
ATOM     20  C   UNL     1      -0.019   1.043   0.173  0.00  0.00    +0.270 C 
ATOM     21  O   UNL     1       0.075  -0.150  -0.026  0.00  0.00    -0.270 OA
ATOM     22  N   UNL     1      -1.232   1.602   0.354  0.00  0.00    -0.231 N 
ATOM     23  H   UNL     1      -1.317   2.684   0.534  0.00  0.00    +0.173 HD
BRANCH  20  25
ATOM     24  C   UNL     1       1.191   2.889  -0.958  0.00  0.00    +0.062 C 
ATOM     25  C   UNL     1       1.220   1.901   0.210  0.00  0.00    +0.257 C 
BRANCH  25  26
ATOM     26  O   UNL     1       2.377   1.070   0.102  0.00  0.00    -0.480 OA
BRANCH  26  27
ATOM     27  C   UNL     1       3.536   1.556   0.623  0.00  0.00    +0.122 A 
ATOM     28  C   UNL     1       4.669   0.756   0.660  0.00  0.00    +0.048 A 
ATOM     29  C   UNL     1       5.847   1.253   1.184  0.00  0.00    +0.042 A 
ATOM     30  C   UNL     1       5.894   2.544   1.682  0.00  0.00    +0.124 A 
ATOM     31  C   UNL     1       4.762   3.341   1.650  0.00  0.00    +0.042 A 
ATOM     32  C   UNL     1       3.584   2.849   1.122  0.00  0.00    +0.048 A 
ATOM     33  F   UNL     1       7.045   3.027   2.198  0.00  0.00    -0.205 F 
ENDBRANCH  26  27
ENDBRANCH  25  26
ENDBRANCH  20  25
ENDBRANCH   1  22
TORSDOF 7
