REMARK  Name = ZINC64924238
REMARK  5 active torsions:
REMARK  status: ('A' for Active; 'I' for Inactive)
REMARK    1  A    between atoms: C_6  and  C_7
REMARK    2  A    between atoms: C_11  and  C_14
REMARK    3  A    between atoms: C_17  and  S_19
REMARK    4  A    between atoms: S_19  and  N_22
REMARK    5  A    between atoms: N_22  and  C_23
REMARK                            x       y       z     vdW  Elec       q    Type
REMARK                         _______ _______ _______ _____ _____    ______ ____
ROOT
ATOM      1  C   UNL     1      -3.018  -2.713  -2.430  0.00  0.00    +0.069 C 
ATOM      2  N   UNL     1      -3.792  -3.736  -2.297  0.00  0.00    -0.258 NA
ATOM      3  C   UNL     1      -4.795  -3.775  -3.205  0.00  0.00    +0.135 C 
ATOM      4  C   UNL     1      -4.760  -2.742  -4.040  0.00  0.00    +0.106 C 
ATOM      5  C   UNL     1      -3.563  -1.918  -3.601  0.00  0.00    +0.112 C 
ENDROOT
BRANCH   1   9
ATOM      6  C   UNL     1      -1.293  -0.775   0.010  0.00  0.00    +0.233 C 
ATOM      7  N   UNL     1      -1.074  -2.124   0.580  0.00  0.00    -0.223 NA
ATOM      8  N   UNL     1      -1.934  -2.993  -0.242  0.00  0.00    -0.222 NA
ATOM      9  C   UNL     1      -1.815  -2.373  -1.588  0.00  0.00    +0.248 C 
ATOM     10  O   UNL     1      -1.764  -0.954  -1.334  0.00  0.00    -0.332 OA
ATOM     11  H   UNL     1      -0.105  -2.396   0.502  0.00  0.00    +0.144 HD
ATOM     12  H   UNL     1      -2.888  -2.969   0.084  0.00  0.00    +0.144 HD
BRANCH   6  18
ATOM     13  C   UNL     1       0.066   1.245   0.591  0.00  0.00    +0.010 A 
ATOM     14  C   UNL     1       1.253   1.952   0.584  0.00  0.00    +0.039 A 
ATOM     15  C   UNL     1       2.379   1.410  -0.013  0.00  0.00    +0.123 A 
ATOM     16  C   UNL     1       2.313   0.159  -0.603  0.00  0.00    +0.039 A 
ATOM     17  C   UNL     1       1.125  -0.547  -0.595  0.00  0.00    +0.010 A 
ATOM     18  C   UNL     1       0.002  -0.004   0.002  0.00  0.00    -0.003 A 
ATOM     19  F   UNL     1       3.539   2.101  -0.021  0.00  0.00    -0.205 F 
ENDBRANCH   6  18
ENDBRANCH   1   9
BRANCH   4  20
ATOM     20  S   UNL     1      -5.867  -2.399  -5.367  0.00  0.00    +0.057 S 
ATOM     21  O   UNL     1      -6.937  -3.327  -5.253  0.00  0.00    -0.153 OA
ATOM     22  O   UNL     1      -6.075  -0.993  -5.370  0.00  0.00    -0.153 OA
BRANCH  20  23
ATOM     23  N   UNL     1      -5.073  -2.763  -6.774  0.00  0.00    -0.187 NA
ATOM     24  H   UNL     1      -4.863  -2.060  -7.408  0.00  0.00    +0.148 HD
BRANCH  23  25
ATOM     25  C   UNL     1      -4.687  -4.147  -7.060  0.00  0.00    +0.077 C 
ATOM     26  C   UNL     1      -5.731  -4.793  -7.931  0.00  0.00    +0.020 C 
ATOM     27  C   UNL     1      -5.907  -6.293  -7.626  0.00  0.00    +0.002 C 
ATOM     28  C   UNL     1      -4.567  -7.017  -7.399  0.00  0.00    +0.000 C 
ATOM     29  C   UNL     1      -3.506  -6.587  -8.376  0.00  0.00    +0.000 C 
ATOM     30  C   UNL     1      -2.677  -5.457  -7.732  0.00  0.00    +0.002 C 
ATOM     31  C   UNL     1      -3.342  -4.165  -7.814  0.00  0.00    +0.020 C 
ENDBRANCH  23  25
ENDBRANCH  20  23
ENDBRANCH   4  20
TORSDOF 5
