REMARK  Name = ZINC09031598
REMARK  12 active torsions:
REMARK  status: ('A' for Active; 'I' for Inactive)
REMARK    1  A    between atoms: C_1  and  C_2
REMARK    2  A    between atoms: C_2  and  O_3
REMARK    3  A    between atoms: O_3  and  C_4
REMARK    4  A    between atoms: C_6  and  C_11
REMARK    5  A    between atoms: C_9  and  O_10
REMARK    6  A    between atoms: N_15  and  C_25
REMARK    7  A    between atoms: C_16  and  S_18
REMARK    8  A    between atoms: S_18  and  C_19
REMARK    9  A    between atoms: C_19  and  C_21
REMARK   10  A    between atoms: C_19  and  C_22
REMARK   11  A    between atoms: C_28  and  O_31
REMARK   12  A    between atoms: O_31  and  C_32
REMARK                            x       y       z     vdW  Elec       q    Type
REMARK                         _______ _______ _______ _____ _____    ______ ____
ROOT
ATOM      1  C   UNL     1      -0.197  -4.963   0.445  0.00  0.00    +0.041 C 
ATOM      2  C   UNL     1      -0.183  -6.321   0.223  0.00  0.00    +0.129 C 
ATOM      3  C   UNL     1      -0.792  -7.365   1.066  0.00  0.00    +0.275 C 
ATOM      4  O   UNL     1      -1.412  -7.207   2.102  0.00  0.00    -0.268 OA
ATOM      5  N   UNL     1      -0.519  -8.534   0.447  0.00  0.00    -0.214 N 
ATOM      6  C   UNL     1       0.201  -8.263  -0.692  0.00  0.00    +0.169 C 
ATOM      7  N   UNL     1       0.393  -6.977  -0.829  0.00  0.00    -0.220 NA
ENDROOT
BRANCH   1  10
ATOM      8  C   UNL     1       0.745  -1.810  -1.349  0.00  0.00    +0.162 A 
ATOM      9  C   UNL     1       0.226  -2.664  -0.397  0.00  0.00    +0.057 A 
ATOM     10  C   UNL     1       0.352  -4.050  -0.562  0.00  0.00    -0.019 A 
ATOM     11  C   UNL     1       1.005  -4.560  -1.692  0.00  0.00    +0.012 A 
ATOM     12  C   UNL     1       1.519  -3.699  -2.636  0.00  0.00    +0.050 A 
ATOM     13  C   UNL     1       1.389  -2.326  -2.474  0.00  0.00    +0.158 A 
BRANCH  13  14
ATOM     14  O   UNL     1       1.893  -1.482  -3.411  0.00  0.00    -0.503 OA
ATOM     15  H   UNL     1       2.810  -1.219  -3.251  0.00  0.00    +0.292 HD
ENDBRANCH  13  14
BRANCH   8  16
ATOM     16  O   UNL     1       0.625  -0.464  -1.192  0.00  0.00    -0.489 OA
BRANCH  16  18
ATOM     17  C   UNL     1      -0.083   1.524  -0.016  0.00  0.00    +0.048 C 
ATOM     18  C   UNL     1      -0.045  -0.005  -0.017  0.00  0.00    +0.226 C 
ENDBRANCH  16  18
ENDBRANCH   8  16
ENDBRANCH   1  10
BRANCH   5  19
ATOM     19  C   UNL     1      -0.904  -9.809   0.890  0.00  0.00    +0.044 A 
ATOM     20  C   UNL     1       0.059 -10.726   1.287  0.00  0.00    +0.027 A 
ATOM     21  C   UNL     1      -0.320 -11.980   1.723  0.00  0.00    +0.048 A 
ATOM     22  C   UNL     1      -1.663 -12.323   1.766  0.00  0.00    +0.127 A 
ATOM     23  C   UNL     1      -2.626 -11.407   1.369  0.00  0.00    +0.048 A 
ATOM     24  C   UNL     1      -2.248 -10.151   0.939  0.00  0.00    +0.027 A 
BRANCH  22  25
ATOM     25  O   UNL     1      -2.036 -13.558   2.195  0.00  0.00    -0.434 OA
BRANCH  25  26
ATOM     26  C   UNL     1      -3.436 -13.844   2.212  0.00  0.00    +0.541 C 
ATOM     27  F   UNL     1      -4.086 -12.939   3.059  0.00  0.00    -0.166 F 
ATOM     28  F   UNL     1      -3.953 -13.725   0.918  0.00  0.00    -0.166 F 
ENDBRANCH  25  26
ENDBRANCH  22  25
ENDBRANCH   5  19
BRANCH   6  29
ATOM     29  S   UNL     1       0.781  -9.485  -1.820  0.00  0.00    -0.077 S 
BRANCH  29  30
ATOM     30  C   UNL     1       1.646  -8.528  -3.096  0.00  0.00    +0.136 C 
ATOM     31  C   UNL     1       2.867  -7.843  -2.480  0.00  0.00    +0.029 C 
BRANCH  30  32
ATOM     32  C   UNL     1       2.093  -9.452  -4.200  0.00  0.00    +0.224 C 
ATOM     33  O   UNL     1       2.188 -10.643  -3.993  0.00  0.00    -0.275 OA
ATOM     34  N   UNL     1       2.386  -8.954  -5.418  0.00  0.00    -0.328 N 
ATOM     35  H   UNL     1       2.310  -8.002  -5.584  0.00  0.00    +0.145 HD
ATOM     36  H   UNL     1       2.673  -9.549  -6.128  0.00  0.00    +0.145 HD
ENDBRANCH  30  32
ENDBRANCH  29  30
ENDBRANCH   6  29
TORSDOF 10
