REMARK  Name = ZINC08209275
REMARK  8 active torsions:
REMARK  status: ('A' for Active; 'I' for Inactive)
REMARK    1  A    between atoms: C_1  and  C_2
REMARK    2  A    between atoms: C_6  and  C_27
REMARK    3  A    between atoms: C_7  and  N_8
REMARK    4  A    between atoms: C_9  and  C_11
REMARK    5  A    between atoms: C_11  and  S_12
REMARK    6  A    between atoms: S_12  and  C_13
REMARK    7  A    between atoms: C_16  and  C_18
REMARK    8  A    between atoms: C_22  and  N_24
REMARK                            x       y       z     vdW  Elec       q    Type
REMARK                         _______ _______ _______ _____ _____    ______ ____
ROOT
ATOM      1  S   UNL     1      -1.078   9.161   1.874  0.00  0.00    -0.056 S 
ENDROOT
BRANCH   1   2
ATOM      2  C   UNL     1      -0.197   7.652   1.646  0.00  0.00    +0.278 A 
ATOM      3  N   UNL     1       0.816   7.459   0.833  0.00  0.00    -0.101 NA
ATOM      4  N   UNL     1       1.212   6.238   0.925  0.00  0.00    -0.106 NA
ATOM      5  C   UNL     1       0.469   5.604   1.799  0.00  0.00    +0.249 A 
ATOM      6  O   UNL     1      -0.442   6.484   2.270  0.00  0.00    -0.411 OA
BRANCH   5   7
ATOM      7  C   UNL     1       0.600   4.186   2.193  0.00  0.00    +0.041 A 
ATOM      8  C   UNL     1      -0.265   3.639   3.143  0.00  0.00    +0.013 A 
ATOM      9  C   UNL     1      -0.141   2.313   3.501  0.00  0.00    +0.003 A 
ATOM     10  C   UNL     1       0.846   1.528   2.931  0.00  0.00    +0.033 A 
ATOM     11  C   UNL     1       1.706   2.063   1.990  0.00  0.00    +0.127 A 
ATOM     12  C   UNL     1       1.590   3.387   1.618  0.00  0.00    +0.046 A 
BRANCH  11  13
ATOM     13  N   UNL     1       2.755   1.214   1.380  0.00  0.00    +0.056 N 
ATOM     14  O   UNL     1       2.858   0.046   1.707  0.00  0.00    -0.126 OA
ATOM     15  O   UNL     1       3.513   1.685   0.551  0.00  0.00    -0.126 OA
ENDBRANCH  11  13
ENDBRANCH   5   7
ENDBRANCH   1   2
BRANCH   1  16
ATOM     16  C   UNL     1      -0.185  10.225   0.713  0.00  0.00    +0.175 C 
BRANCH  16  18
ATOM     17  N   UNL     1      -0.275  12.575  -0.051  0.00  0.00    -0.284 N 
ATOM     18  C   UNL     1      -0.782  11.608   0.738  0.00  0.00    +0.228 C 
ATOM     19  O   UNL     1      -1.720  11.851   1.469  0.00  0.00    -0.275 OA
ATOM     20  H   UNL     1       0.507  12.396  -0.596  0.00  0.00    +0.155 HD
BRANCH  17  27
ATOM     21  C   UNL     1      -3.072  12.718  -0.556  0.00  0.00    +0.045 C 
ATOM     22  C   UNL     1      -2.239  13.954  -0.328  0.00  0.00    -0.029 A 
ATOM     23  C   UNL     1      -2.831  15.201  -0.355  0.00  0.00    +0.005 A 
ATOM     24  C   UNL     1      -2.067  16.335  -0.151  0.00  0.00    +0.001 A 
ATOM     25  C   UNL     1      -0.709  16.224   0.086  0.00  0.00    +0.005 A 
ATOM     26  C   UNL     1      -0.112  14.979   0.120  0.00  0.00    -0.029 A 
ATOM     27  C   UNL     1      -0.877  13.838  -0.085  0.00  0.00    +0.039 A 
ATOM     28  C   UNL     1       1.367  14.858   0.379  0.00  0.00    +0.045 C 
ENDBRANCH  17  27
ENDBRANCH  16  18
ENDBRANCH   1  16
TORSDOF 6
