REMARK  Name = ZINC19500824
REMARK  7 active torsions:
REMARK  status: ('A' for Active; 'I' for Inactive)
REMARK    1  A    between atoms: C_1  and  C_2
REMARK    2  A    between atoms: C_2  and  C_3
REMARK    3  A    between atoms: C_3  and  C_28
REMARK    4  A    between atoms: C_8  and  C_11
REMARK    5  A    between atoms: N_18  and  C_21
REMARK    6  A    between atoms: C_28  and  O_30
REMARK    7  A    between atoms: O_30  and  C_31
REMARK                            x       y       z     vdW  Elec       q    Type
REMARK                         _______ _______ _______ _____ _____    ______ ____
ROOT
ATOM      1  C   UNL     1       0.718  -0.497  -1.257  0.00  0.00    +0.044 C 
ATOM      2  C   UNL     1       0.801  -2.015  -1.254  0.00  0.00    +0.086 C 
ATOM      3  C   UNL     1       2.113  -2.179  -2.112  0.00  0.00    +0.080 C 
ATOM      4  C   UNL     1       3.026  -1.226  -1.458  0.00  0.00    +0.010 C 
ATOM      5  N   UNL     1       2.134  -0.019  -1.267  0.00  0.00    +0.397 N 
ATOM      6  C   UNL     1       2.048  -3.570  -2.483  0.00  0.00    +0.229 C 
ATOM      7  O   UNL     1       2.974  -4.338  -2.632  0.00  0.00    -0.275 OA
ATOM      8  N   UNL     1       0.710  -3.837  -2.632  0.00  0.00    -0.210 N 
ATOM      9  C   UNL     1      -0.097  -2.848  -2.114  0.00  0.00    +0.229 C 
ATOM     10  O   UNL     1      -1.281  -2.680  -2.312  0.00  0.00    -0.275 OA
ATOM     11  H   UNL     1       2.267   0.636  -2.023  0.00  0.00    -0.083 HD
ATOM     12  H   UNL     1       2.351   0.425  -0.387  0.00  0.00    -0.083 HD
ENDROOT
BRANCH   8  13
ATOM     13  C   UNL     1       0.212  -5.000  -3.240  0.00  0.00    +0.044 A 
ATOM     14  C   UNL     1      -1.158  -5.191  -3.356  0.00  0.00    +0.027 A 
ATOM     15  C   UNL     1      -1.646  -6.336  -3.954  0.00  0.00    +0.040 A 
ATOM     16  C   UNL     1      -0.770  -7.293  -4.438  0.00  0.00    +0.124 A 
ATOM     17  C   UNL     1       0.597  -7.104  -4.322  0.00  0.00    +0.040 A 
ATOM     18  C   UNL     1       1.089  -5.957  -3.730  0.00  0.00    +0.027 A 
ATOM     19  F   UNL     1      -1.249  -8.413  -5.022  0.00  0.00    -0.205 F 
ENDBRANCH   8  13
BRANCH   4  20
ATOM     20  C   UNL     1       3.518  -1.771  -0.142  0.00  0.00    +0.092 A 
ATOM     21  C   UNL     1       4.713  -2.349   0.073  0.00  0.00    +0.043 A 
ATOM     22  C   UNL     1       4.753  -2.709   1.439  0.00  0.00    +0.041 A 
ATOM     23  C   UNL     1       3.581  -2.329   1.978  0.00  0.00    +0.195 A 
ATOM     24  O   UNL     1       2.839  -1.756   1.016  0.00  0.00    -0.469 OA
ENDBRANCH   4  20
BRANCH   1  26
ATOM     25  C   UNL     1      -0.019   1.526   0.010  0.00  0.00    +0.003 C 
ATOM     26  C   UNL     1       0.002  -0.004   0.002  0.00  0.00    -0.004 C 
ENDBRANCH   1  26
BRANCH   1  27
ATOM     27  C   UNL     1      -0.004  -0.016  -2.489  0.00  0.00    +0.297 C 
ATOM     28  O   UNL     1      -0.807  -0.733  -3.037  0.00  0.00    -0.252 OA
BRANCH  27  29
ATOM     29  O   UNL     1       0.246   1.209  -2.977  0.00  0.00    -0.469 OA
ATOM     30  C   UNL     1      -0.475   1.600  -4.148  0.00  0.00    +0.280 C 
ENDBRANCH  27  29
ENDBRANCH   1  27
TORSDOF 5
