REMARK  Name = ZINC49380872
REMARK  5 active torsions:
REMARK  status: ('A' for Active; 'I' for Inactive)
REMARK    1  A    between atoms: C_5  and  N_7
REMARK    2  A    between atoms: N_10  and  C_13
REMARK    3  A    between atoms: C_13  and  C_14
REMARK    4  A    between atoms: N_16  and  C_17
REMARK    5  A    between atoms: C_17  and  C_18
REMARK                            x       y       z     vdW  Elec       q    Type
REMARK                         _______ _______ _______ _____ _____    ______ ____
ROOT
ATOM      1  C   UNL     1      -0.139  -5.617  -2.203  0.00  0.00    +0.231 C 
ATOM      2  O   UNL     1      -1.068  -5.059  -1.657  0.00  0.00    -0.274 OA
ATOM      3  N   UNL     1      -0.375  -6.583  -3.112  0.00  0.00    -0.308 N 
ATOM      4  H   UNL     1       0.368  -7.029  -3.549  0.00  0.00    +0.149 HD
ENDROOT
BRANCH   1   5
ATOM      5  C   UNL     1       1.277  -5.229  -1.864  0.00  0.00    +0.205 C 
BRANCH   5   9
ATOM      6  N   UNL     1       1.236  -2.081  -0.021  0.00  0.00    -0.251 N 
ATOM      7  C   UNL     1       1.255  -2.940   1.173  0.00  0.00    +0.134 C 
ATOM      8  C   UNL     1       1.275  -4.370   0.599  0.00  0.00    +0.129 C 
ATOM      9  N   UNL     1       1.265  -4.165  -0.857  0.00  0.00    -0.275 N 
ATOM     10  C   UNL     1       1.237  -2.852  -1.117  0.00  0.00    +0.310 C 
ATOM     11  O   UNL     1       1.219  -2.399  -2.245  0.00  0.00    -0.252 OA
BRANCH   6  16
ATOM     12  C   UNL     1      -0.017   1.377   0.010  0.00  0.00    +0.002 A 
ATOM     13  C   UNL     1       1.170   2.087   0.002  0.00  0.00    +0.003 A 
ATOM     14  C   UNL     1       2.380   1.418  -0.013  0.00  0.00    +0.040 A 
ATOM     15  C   UNL     1       2.406   0.035  -0.021  0.00  0.00    +0.145 A 
ATOM     16  C   UNL     1       1.214  -0.681  -0.013  0.00  0.00    +0.073 A 
ATOM     17  C   UNL     1       0.002  -0.004   0.002  0.00  0.00    +0.026 A 
ATOM     18  F   UNL     1       3.588  -0.619  -0.036  0.00  0.00    -0.204 F 
ENDBRANCH   6  16
ENDBRANCH   5   9
ENDBRANCH   1   5
BRANCH   3  19
ATOM     19  C   UNL     1      -1.752  -6.960  -3.441  0.00  0.00    +0.159 C 
BRANCH  19  20
ATOM     20  C   UNL     1      -1.739  -8.054  -4.477  0.00  0.00    +0.051 A 
ATOM     21  C   UNL     1      -1.838  -7.877  -5.813  0.00  0.00    +0.115 A 
ATOM     22  N   UNL     1      -1.784  -9.116  -6.390  0.00  0.00    -0.308 N 
ATOM     23  C   UNL     1      -1.837  -9.533  -7.689  0.00  0.00    +0.092 A 
ATOM     24  C   UNL     1      -1.761 -10.845  -7.993  0.00  0.00    +0.018 A 
ATOM     25  C   UNL     1      -1.626 -11.803  -6.974  0.00  0.00    +0.005 A 
ATOM     26  C   UNL     1      -1.572 -11.401  -5.675  0.00  0.00    +0.045 A 
ATOM     27  C   UNL     1      -1.653 -10.027  -5.374  0.00  0.00    +0.115 A 
ATOM     28  N   UNL     1      -1.623  -9.361  -4.228  0.00  0.00    -0.342 N 
ATOM     29  H   UNL     1      -1.533  -9.760  -3.348  0.00  0.00    +0.167 HD
ENDBRANCH  19  20
ENDBRANCH   3  19
TORSDOF 5
