REMARK  Name = ZINC40056862
REMARK  5 active torsions:
REMARK  status: ('A' for Active; 'I' for Inactive)
REMARK    1  A    between atoms: C_1  and  C_2
REMARK    2  A    between atoms: C_2  and  C_4
REMARK    3  A    between atoms: C_2  and  N_13
REMARK    4  A    between atoms: N_13  and  C_14
REMARK    5  A    between atoms: C_15  and  C_17
REMARK                            x       y       z     vdW  Elec       q    Type
REMARK                         _______ _______ _______ _____ _____    ______ ____
ROOT
ATOM      1  N   UNL     1       0.757  -0.518   1.209  0.00  0.00    -0.289 N 
ATOM      2  C   UNL     1       0.450  -0.274   2.620  0.00  0.00    +0.133 C 
ATOM      3  C   UNL     1       1.695  -1.425   0.871  0.00  0.00    +0.268 C 
ATOM      4  O   UNL     1       2.019  -1.558  -0.294  0.00  0.00    -0.268 OA
ENDROOT
BRANCH   3   5
ATOM      5  C   UNL     1       2.328  -2.254   1.912  0.00  0.00    +0.155 A 
ATOM      6  C   UNL     1       3.437  -3.200   1.730  0.00  0.00    +0.032 A 
ATOM      7  C   UNL     1       4.215  -3.625   0.657  0.00  0.00    +0.012 A 
ATOM      8  C   UNL     1       5.197  -4.555   0.864  0.00  0.00    +0.001 A 
ATOM      9  C   UNL     1       5.419  -5.075   2.132  0.00  0.00    +0.002 A 
ATOM     10  C   UNL     1       4.666  -4.672   3.199  0.00  0.00    +0.028 A 
ATOM     11  C   UNL     1       3.662  -3.727   3.017  0.00  0.00    +0.066 A 
ATOM     12  N   UNL     1       2.749  -3.119   3.840  0.00  0.00    -0.276 N 
ATOM     13  H   UNL     1       2.671  -3.290   4.792  0.00  0.00    +0.189 HD
ATOM     14  N   UNL     1       2.015  -2.290   3.189  0.00  0.00    -0.168 NA
ENDBRANCH   3   5
BRANCH   1  16
ATOM     15  C   UNL     1       0.293   1.722   0.344  0.00  0.00    +0.036 C 
ATOM     16  C   UNL     1       0.044   0.223   0.166  0.00  0.00    +0.139 C 
BRANCH  16  17
ATOM     17  C   UNL     1      -1.433  -0.057   0.270  0.00  0.00    +0.126 A 
ATOM     18  C   UNL     1      -2.254  -0.246  -0.772  0.00  0.00    +0.055 A 
ATOM     19  C   UNL     1      -3.586  -0.485  -0.205  0.00  0.00    +0.020 A 
ATOM     20  C   UNL     1      -4.845  -0.742  -0.747  0.00  0.00    +0.011 A 
ATOM     21  C   UNL     1      -5.916  -0.922   0.083  0.00  0.00    +0.001 A 
ATOM     22  C   UNL     1      -5.759  -0.850   1.460  0.00  0.00    +0.004 A 
ATOM     23  C   UNL     1      -4.522  -0.596   2.014  0.00  0.00    +0.047 A 
ATOM     24  C   UNL     1      -3.420  -0.410   1.188  0.00  0.00    +0.135 A 
ATOM     25  O   UNL     1      -2.117  -0.159   1.423  0.00  0.00    -0.458 OA
ENDBRANCH  16  17
ENDBRANCH   1  16
TORSDOF 3
