REMARK  Name = ZINC67280060
REMARK  10 active torsions:
REMARK  status: ('A' for Active; 'I' for Inactive)
REMARK    1  A    between atoms: C_1  and  C_2
REMARK    2  A    between atoms: C_2  and  O_3
REMARK    3  A    between atoms: O_3  and  C_4
REMARK    4  A    between atoms: C_7  and  N_11
REMARK    5  A    between atoms: N_14  and  C_15
REMARK    6  A    between atoms: C_15  and  C_17
REMARK    7  A    between atoms: C_15  and  C_18
REMARK    8  A    between atoms: C_22  and  S_24
REMARK    9  A    between atoms: S_24  and  N_27
REMARK   10  A    between atoms: N_27  and  C_28
REMARK                            x       y       z     vdW  Elec       q    Type
REMARK                         _______ _______ _______ _____ _____    ______ ____
ROOT
ATOM      1  N   UNL     1       1.135  -5.960   1.752  0.00  0.00    -0.269 N 
ATOM      2  C   UNL     1       1.855  -6.473   2.769  0.00  0.00    +0.304 C 
ATOM      3  O   UNL     1       2.333  -5.734   3.609  0.00  0.00    -0.252 OA
ATOM      4  N   UNL     1       2.046  -7.804   2.856  0.00  0.00    -0.293 N 
ATOM      5  H   UNL     1       0.698  -6.552   1.120  0.00  0.00    +0.156 HD
ATOM      6  H   UNL     1       1.665  -8.393   2.186  0.00  0.00    +0.151 HD
ENDROOT
BRANCH   1  10
ATOM      7  C   UNL     1       0.784  -1.826   1.319  0.00  0.00    +0.156 A 
ATOM      8  C   UNL     1       0.848  -2.638   0.197  0.00  0.00    +0.050 A 
ATOM      9  C   UNL     1       0.965  -4.007   0.340  0.00  0.00    +0.027 A 
ATOM     10  C   UNL     1       1.017  -4.571   1.607  0.00  0.00    +0.038 A 
ATOM     11  C   UNL     1       0.953  -3.759   2.731  0.00  0.00    +0.065 A 
ATOM     12  C   UNL     1       0.842  -2.388   2.587  0.00  0.00    +0.167 A 
ATOM     13  F   UNL     1       0.784  -1.596   3.680  0.00  0.00    -0.202 F 
BRANCH   7  14
ATOM     14  O   UNL     1       0.669  -0.478   1.177  0.00  0.00    -0.489 OA
BRANCH  14  16
ATOM     15  C   UNL     1       0.487   1.556  -0.117  0.00  0.00    +0.048 C 
ATOM     16  C   UNL     1       0.615   0.032  -0.158  0.00  0.00    +0.226 C 
ENDBRANCH  14  16
ENDBRANCH   7  14
ENDBRANCH   1  10
BRANCH   4  17
ATOM     17  C   UNL     1       2.829  -8.362   3.961  0.00  0.00    +0.102 C 
ATOM     18  C   UNL     1       4.317  -8.319   3.605  0.00  0.00    +0.033 C 
BRANCH  17  19
ATOM     19  C   UNL     1       2.411  -9.789   4.203  0.00  0.00    -0.026 A 
ATOM     20  C   UNL     1       2.148 -10.623   3.133  0.00  0.00    +0.005 A 
ATOM     21  C   UNL     1       1.764 -11.932   3.355  0.00  0.00    +0.002 A 
ATOM     22  C   UNL     1       1.644 -12.408   4.647  0.00  0.00    +0.028 A 
ATOM     23  C   UNL     1       1.908 -11.574   5.718  0.00  0.00    +0.106 A 
ATOM     24  C   UNL     1       2.296 -10.266   5.495  0.00  0.00    +0.034 A 
BRANCH  23  25
ATOM     25  S   UNL     1       1.754 -12.179   7.365  0.00  0.00    +0.058 S 
ATOM     26  O   UNL     1       1.527 -11.048   8.194  0.00  0.00    -0.153 OA
ATOM     27  O   UNL     1       0.853 -13.277   7.312  0.00  0.00    -0.153 OA
BRANCH  25  28
ATOM     28  N   UNL     1       3.227 -12.797   7.800  0.00  0.00    -0.193 NA
ATOM     29  C   UNL     1       4.387 -11.910   7.918  0.00  0.00    +0.127 C 
ATOM     30  H   UNL     1       3.323 -13.746   7.976  0.00  0.00    +0.148 HD
ENDBRANCH  25  28
ENDBRANCH  23  25
ENDBRANCH  17  19
ENDBRANCH   4  17
TORSDOF 7
