REMARK  Name = ZINC01210517
REMARK  5 active torsions:
REMARK  status: ('A' for Active; 'I' for Inactive)
REMARK    1  A    between atoms: C_4  and  C_7
REMARK    2  A    between atoms: C_8  and  C_18
REMARK    3  A    between atoms: N_10  and  C_12
REMARK    4  A    between atoms: N_19  and  N_20
REMARK    5  A    between atoms: C_21  and  C_23
REMARK                            x       y       z     vdW  Elec       q    Type
REMARK                         _______ _______ _______ _____ _____    ______ ____
ROOT
ATOM      1  C   UNL     1       3.699  -0.685  -0.035  0.00  0.00    +0.102 A 
ATOM      2  C   UNL     1       4.026  -1.907   0.705  0.00  0.00    +0.040 A 
ATOM      3  C   UNL     1       5.319  -2.221   0.390  0.00  0.00    +0.124 A 
ATOM      4  N   UNL     1       5.778  -1.289  -0.470  0.00  0.00    -0.239 N 
ATOM      5  N   UNL     1       4.769  -0.355  -0.726  0.00  0.00    -0.166 NA
ENDROOT
BRANCH   1   9
ATOM      6  C   UNL     1      -0.009   1.392   0.027  0.00  0.00    +0.000 A 
ATOM      7  C   UNL     1       0.549   0.944   1.210  0.00  0.00    +0.001 A 
ATOM      8  C   UNL     1       1.753   0.269   1.197  0.00  0.00    +0.010 A 
ATOM      9  C   UNL     1       2.406   0.039  -0.013  0.00  0.00    +0.003 A 
ATOM     10  C   UNL     1       1.838   0.492  -1.203  0.00  0.00    +0.010 A 
ATOM     11  C   UNL     1       0.634   1.166  -1.177  0.00  0.00    +0.001 A 
ENDBRANCH   1   9
BRANCH   4  12
ATOM     12  C   UNL     1       7.064  -1.263  -1.025  0.00  0.00    +0.065 A 
ATOM     13  C   UNL     1       7.981  -2.255  -0.704  0.00  0.00    +0.028 A 
ATOM     14  C   UNL     1       9.248  -2.226  -1.253  0.00  0.00    +0.002 A 
ATOM     15  C   UNL     1       9.603  -1.211  -2.122  0.00  0.00    +0.000 A 
ATOM     16  C   UNL     1       8.693  -0.221  -2.443  0.00  0.00    +0.002 A 
ATOM     17  C   UNL     1       7.422  -0.248  -1.903  0.00  0.00    +0.028 A 
ENDBRANCH   4  12
BRANCH   2  18
ATOM     18  C   UNL     1       3.135  -2.652   1.612  0.00  0.00    +0.142 C 
ATOM     19  N   UNL     1       1.894  -2.294   1.741  0.00  0.00    -0.187 NA
BRANCH  19  20
ATOM     20  N   UNL     1       1.046  -3.003   2.603  0.00  0.00    -0.203 N 
ATOM     21  C   UNL     1      -0.242  -2.631   2.737  0.00  0.00    +0.263 C 
ATOM     22  O   UNL     1      -0.669  -1.681   2.110  0.00  0.00    -0.268 OA
ATOM     23  H   UNL     1       1.387  -3.761   3.103  0.00  0.00    +0.178 HD
BRANCH  21  24
ATOM     24  C   UNL     1      -1.135  -3.377   3.645  0.00  0.00    +0.042 A 
ATOM     25  C   UNL     1      -0.644  -4.466   4.371  0.00  0.00    +0.017 A 
ATOM     26  C   UNL     1      -1.479  -5.161   5.219  0.00  0.00    +0.050 A 
ATOM     27  C   UNL     1      -2.808  -4.783   5.355  0.00  0.00    +0.166 A 
ATOM     28  C   UNL     1      -3.304  -3.697   4.633  0.00  0.00    +0.167 A 
ATOM     29  C   UNL     1      -2.471  -2.993   3.786  0.00  0.00    +0.062 A 
ATOM     30  O   UNL     1      -4.624  -3.535   4.942  0.00  0.00    -0.453 OA
ATOM     31  C   UNL     1      -5.032  -4.778   5.544  0.00  0.00    +0.466 C 
ATOM     32  O   UNL     1      -3.817  -5.298   6.114  0.00  0.00    -0.453 OA
ENDBRANCH  21  24
ENDBRANCH  19  20
ENDBRANCH   2  18
TORSDOF 5
