REMARK  Name = ZINC04475181
REMARK  9 active torsions:
REMARK  status: ('A' for Active; 'I' for Inactive)
REMARK    1  A    between atoms: C_1  and  C_2
REMARK    2  A    between atoms: C_2  and  C_3
REMARK    3  A    between atoms: C_2  and  C_4
REMARK    4  A    between atoms: C_2  and  C_5
REMARK    5  A    between atoms: C_8  and  C_11
REMARK    6  A    between atoms: C_14  and  S_25
REMARK    7  A    between atoms: N_15  and  N_16
REMARK    8  A    between atoms: C_17  and  C_18
REMARK    9  A    between atoms: C_22  and  O_24
REMARK                            x       y       z     vdW  Elec       q    Type
REMARK                         _______ _______ _______ _____ _____    ______ ____
ROOT
ATOM      1  C   UNL     1      -3.214   4.970   1.040  0.00  0.00    +0.186 A 
ATOM      2  N   UNL     1      -4.237   4.273   0.601  0.00  0.00    -0.126 NA
ATOM      3  N   UNL     1      -4.133   4.089  -0.667  0.00  0.00    -0.121 NA
ATOM      4  C   UNL     1      -3.038   4.661  -1.119  0.00  0.00    +0.209 A 
ATOM      5  N   UNL     1      -2.411   5.237  -0.047  0.00  0.00    -0.187 N 
ENDROOT
BRANCH   1   9
ATOM      6  C   UNL     1      -2.514   6.169   5.054  0.00  0.00    -0.042 A 
ATOM      7  C   UNL     1      -3.766   5.715   4.679  0.00  0.00    +0.005 A 
ATOM      8  C   UNL     1      -4.000   5.324   3.377  0.00  0.00    +0.012 A 
ATOM      9  C   UNL     1      -2.970   5.387   2.437  0.00  0.00    +0.021 A 
ATOM     10  C   UNL     1      -1.708   5.840   2.823  0.00  0.00    +0.012 A 
ATOM     11  C   UNL     1      -1.488   6.233   4.127  0.00  0.00    +0.005 A 
BRANCH   6  13
ATOM     12  C   UNL     1      -2.530   5.415   7.417  0.00  0.00    +0.015 C 
ATOM     13  C   UNL     1      -2.265   6.595   6.478  0.00  0.00    -0.013 C 
ATOM     14  C   UNL     1      -0.812   7.050   6.628  0.00  0.00    +0.015 C 
ATOM     15  C   UNL     1      -3.202   7.750   6.836  0.00  0.00    +0.015 C 
ENDBRANCH   6  13
ENDBRANCH   1   9
BRANCH   5  16
ATOM     16  N   UNL     1      -1.207   5.954  -0.055  0.00  0.00    -0.170 NA
ATOM     17  C   UNL     1      -0.091   5.345  -0.317  0.00  0.00    +0.141 C 
BRANCH  17  18
ATOM     18  C   UNL     1      -0.040   3.871  -0.326  0.00  0.00    -0.002 A 
ATOM     19  C   UNL     1      -1.141   3.128   0.106  0.00  0.00    +0.010 A 
ATOM     20  C   UNL     1      -1.091   1.750   0.091  0.00  0.00    +0.004 A 
ATOM     21  C   UNL     1       0.050   1.100  -0.342  0.00  0.00    +0.045 A 
ATOM     22  C   UNL     1       1.150   1.829  -0.774  0.00  0.00    +0.117 A 
ATOM     23  C   UNL     1       1.109   3.213  -0.768  0.00  0.00    +0.055 A 
BRANCH  22  24
ATOM     24  O   UNL     1       2.266   1.184  -1.203  0.00  0.00    -0.507 OA
ATOM     25  H   UNL     1       2.270   0.992  -2.151  0.00  0.00    +0.292 HD
ENDBRANCH  22  24
ENDBRANCH  17  18
ENDBRANCH   5  16
BRANCH   4  26
ATOM     26  S   UNL     1      -2.482   4.679  -2.790  0.00  0.00    -0.102 S 
ATOM     27  H   UNL     1      -1.702   3.505  -2.801  0.00  0.00    +0.110 HD
ENDBRANCH   4  26
TORSDOF 6
