REMARK  Name = ZINC11997598
REMARK  13 active torsions:
REMARK  status: ('A' for Active; 'I' for Inactive)
REMARK    1  A    between atoms: C_1  and  C_2
REMARK    2  A    between atoms: C_2  and  N_62
REMARK    3  A    between atoms: C_3  and  C_4
REMARK    4  A    between atoms: C_3  and  N_62
REMARK    5  A    between atoms: C_5  and  C_7
REMARK    6  A    between atoms: C_5  and  C_26
REMARK    7  A    between atoms: C_5  and  N_62
REMARK    8  A    between atoms: C_7  and  N_8
REMARK    9  A    between atoms: N_8  and  S_9
REMARK   10  A    between atoms: S_9  and  C_12
REMARK   11  A    between atoms: C_15  and  N_18
REMARK   12  A    between atoms: C_29  and  O_32
REMARK   13  A    between atoms: O_32  and  C_33
REMARK                            x       y       z     vdW  Elec       q    Type
REMARK                         _______ _______ _______ _____ _____    ______ ____
ROOT
ATOM      1  N   UNL     1       8.361  -0.319   0.433  0.00  0.00    -0.191 NA
ATOM      2  H   UNL     1       8.703  -1.219   0.317  0.00  0.00    +0.148 HD
ENDROOT
BRANCH   1   3
ATOM      3  S   UNL     1       6.850  -0.081   1.067  0.00  0.00    +0.058 S 
ATOM      4  O   UNL     1       6.988   0.893   2.092  0.00  0.00    -0.153 OA
ATOM      5  O   UNL     1       6.304  -1.371   1.310  0.00  0.00    -0.153 OA
BRANCH   3   6
ATOM      6  C   UNL     1       5.865   0.652  -0.196  0.00  0.00    +0.105 A 
ATOM      7  C   UNL     1       5.150  -0.149  -1.067  0.00  0.00    +0.030 A 
ATOM      8  C   UNL     1       4.377   0.423  -2.058  0.00  0.00    +0.027 A 
ATOM      9  C   UNL     1       4.318   1.805  -2.180  0.00  0.00    +0.059 A 
ATOM     10  C   UNL     1       5.041   2.607  -1.307  0.00  0.00    +0.027 A 
ATOM     11  C   UNL     1       5.808   2.029  -0.315  0.00  0.00    +0.030 A 
BRANCH   9  12
ATOM     12  N   UNL     1       3.535   2.387  -3.183  0.00  0.00    -0.144 N 
ATOM     13  C   UNL     1       2.466   1.832  -3.772  0.00  0.00    +0.240 C 
ATOM     14  O   UNL     1       2.069   0.738  -3.432  0.00  0.00    -0.274 OA
ATOM     15  C   UNL     1       1.773   2.595  -4.860  0.00  0.00    +0.122 C 
ATOM     16  C   UNL     1       2.168   4.091  -4.747  0.00  0.00    +0.198 C 
ATOM     17  S   UNL     1       3.768   3.901  -3.860  0.00  0.00    +0.052 S 
ATOM     18  O   UNL     1       4.843   3.750  -4.778  0.00  0.00    -0.155 OA
ATOM     19  O   UNL     1       3.852   4.803  -2.765  0.00  0.00    -0.155 OA
ENDBRANCH   9  12
ENDBRANCH   3   6
ENDBRANCH   1   3
BRANCH   1  20
ATOM     20  C   UNL     1       9.183   0.831   0.048  0.00  0.00    +0.095 C 
BRANCH  20  21
ATOM     21  C   UNL     1      10.638   0.387  -0.115  0.00  0.00    -0.022 C 
BRANCH  21  22
ATOM     22  C   UNL     1      11.454   1.529  -0.662  0.00  0.00    -0.059 A 
ATOM     23  C   UNL     1      11.110   2.108  -1.869  0.00  0.00    +0.005 A 
ATOM     24  C   UNL     1      11.853   3.159  -2.370  0.00  0.00    +0.046 A 
ATOM     25  C   UNL     1      12.953   3.627  -1.665  0.00  0.00    +0.120 A 
ATOM     26  C   UNL     1      13.300   3.041  -0.457  0.00  0.00    +0.046 A 
ATOM     27  C   UNL     1      12.550   1.994   0.043  0.00  0.00    +0.005 A 
BRANCH  25  28
ATOM     28  O   UNL     1      13.690   4.657  -2.159  0.00  0.00    -0.495 OA
ATOM     29  C   UNL     1      13.274   5.211  -3.409  0.00  0.00    +0.277 C 
ENDBRANCH  25  28
ENDBRANCH  21  22
BRANCH  21  30
ATOM     30  N   UNL     1      10.678  -0.765  -1.041  0.00  0.00    +0.385 N 
ATOM     31  H   UNL     1       9.821  -1.317  -0.923  0.00  0.00    -0.081 HD
BRANCH  30  33
ATOM     32  C   UNL     1       9.345   0.087  -2.903  0.00  0.00    -0.017 C 
ATOM     33  C   UNL     1      10.753  -0.287  -2.438  0.00  0.00    -0.081 C 
ENDBRANCH  30  33
BRANCH  30  34
ATOM     34  C   UNL     1      11.845  -1.619  -0.736  0.00  0.00    -0.081 C 
ATOM     35  C   UNL     1      11.550  -2.418   0.535  0.00  0.00    -0.017 C 
ENDBRANCH  30  34
ENDBRANCH  21  30
ENDBRANCH  20  21
ENDBRANCH   1  20
TORSDOF 10
