REMARK  Name = ZINC55029165
REMARK  7 active torsions:
REMARK  status: ('A' for Active; 'I' for Inactive)
REMARK    1  A    between atoms: C_1  and  C_2
REMARK    2  A    between atoms: C_5  and  N_8
REMARK    3  A    between atoms: C_9  and  C_11
REMARK    4  A    between atoms: C_11  and  C_13
REMARK    5  A    between atoms: C_11  and  N_14
REMARK    6  A    between atoms: C_17  and  N_20
REMARK    7  A    between atoms: N_23  and  C_24
REMARK                            x       y       z     vdW  Elec       q    Type
REMARK                         _______ _______ _______ _____ _____    ______ ____
ROOT
ATOM      1  N   UNL     1      -1.748  -3.264   5.931  0.00  0.00    +0.387 N 
ATOM      2  C   UNL     1      -0.325  -3.327   6.283  0.00  0.00    -0.076 C 
ATOM      3  C   UNL     1      -0.107  -4.395   7.357  0.00  0.00    +0.004 C 
ATOM      4  C   UNL     1      -0.927  -4.036   8.599  0.00  0.00    +0.071 C 
ATOM      5  C   UNL     1      -2.400  -3.901   8.205  0.00  0.00    +0.004 C 
ATOM      6  C   UNL     1      -2.533  -2.851   7.100  0.00  0.00    -0.076 C 
ATOM      7  H   UNL     1      -2.057  -4.175   5.625  0.00  0.00    -0.081 HD
ENDROOT
BRANCH   4   8
ATOM      8  N   UNL     1      -0.783  -5.093   9.603  0.00  0.00    -0.297 N 
ATOM      9  C   UNL     1      -0.964  -4.812  10.909  0.00  0.00    +0.300 C 
ATOM     10  O   UNL     1      -1.246  -3.681  11.254  0.00  0.00    -0.253 OA
ATOM     11  N   UNL     1      -0.832  -5.785  11.832  0.00  0.00    -0.297 N 
ATOM     12  H   UNL     1      -0.558  -5.996   9.328  0.00  0.00    +0.151 HD
ATOM     13  H   UNL     1      -0.606  -6.688  11.557  0.00  0.00    +0.151 HD
BRANCH  11  14
ATOM     14  C   UNL     1      -1.028  -5.479  13.251  0.00  0.00    +0.074 C 
ATOM     15  C   UNL     1      -2.518  -5.563  13.590  0.00  0.00    +0.022 C 
ATOM     16  C   UNL     1      -2.723  -5.244  15.072  0.00  0.00    +0.002 C 
ATOM     17  C   UNL     1      -1.950  -6.253  15.923  0.00  0.00    +0.000 C 
ATOM     18  C   UNL     1      -0.460  -6.169  15.585  0.00  0.00    +0.002 C 
ATOM     19  C   UNL     1      -0.254  -6.488  14.102  0.00  0.00    +0.022 C 
ENDBRANCH  11  14
ENDBRANCH   4   8
BRANCH   1  20
ATOM     20  C   UNL     1      -1.941  -2.293   4.845  0.00  0.00    +0.016 C 
ATOM     21  C   UNL     1      -3.430  -2.191   4.511  0.00  0.00    -0.004 C 
BRANCH  20  23
ATOM     22  N   UNL     1      -0.743  -1.841   2.729  0.00  0.00    -0.314 N 
ATOM     23  C   UNL     1      -1.182  -2.747   3.625  0.00  0.00    +0.199 C 
ATOM     24  O   UNL     1      -0.967  -3.928   3.449  0.00  0.00    -0.278 OA
ATOM     25  H   UNL     1      -0.915  -0.897   2.869  0.00  0.00    +0.149 HD
BRANCH  22  30
ATOM     26  C   UNL     1       2.432   1.288   1.729  0.00  0.00    +0.007 C 
ATOM     27  C   UNL     1       1.876  -0.056   1.254  0.00  0.00    -0.014 C 
ATOM     28  C   UNL     1       0.395   0.100   0.905  0.00  0.00    +0.005 C 
ATOM     29  C   UNL     1      -0.161  -1.244   0.430  0.00  0.00    +0.022 C 
ATOM     30  C   UNL     1      -0.006  -2.283   1.542  0.00  0.00    +0.073 C 
ATOM     31  C   UNL     1       1.476  -2.438   1.891  0.00  0.00    +0.022 C 
ATOM     32  C   UNL     1       2.032  -1.094   2.367  0.00  0.00    +0.005 C 
ENDBRANCH  22  30
ENDBRANCH  20  23
ENDBRANCH   1  20
TORSDOF 5
