REMARK  Name = ZINC16545015
REMARK  5 active torsions:
REMARK  status: ('A' for Active; 'I' for Inactive)
REMARK    1  A    between atoms: C_10  and  N_11
REMARK    2  A    between atoms: C_12  and  O_14
REMARK    3  A    between atoms: O_14  and  C_15
REMARK    4  A    between atoms: C_15  and  C_16
REMARK    5  A    between atoms: C_19  and  N_22
REMARK                            x       y       z     vdW  Elec       q    Type
REMARK                         _______ _______ _______ _____ _____    ______ ____
ROOT
ATOM      1  N   UNL     1       1.233  -4.506  -2.822  0.00  0.00    -0.251 N 
ATOM      2  C   UNL     1       1.234  -3.998  -1.574  0.00  0.00    +0.405 C 
ATOM      3  O   UNL     1       1.258  -4.742  -0.615  0.00  0.00    -0.226 OA
ATOM      4  H   UNL     1       1.147  -3.916  -3.587  0.00  0.00    +0.158 HD
ENDROOT
BRANCH   1  14
ATOM      5  C   UNL     1       3.426  -7.425  -6.308  0.00  0.00    +0.001 A 
ATOM      6  C   UNL     1       3.316  -6.047  -6.134  0.00  0.00    +0.001 A 
ATOM      7  C   UNL     1       2.647  -5.526  -5.069  0.00  0.00    +0.010 A 
ATOM      8  C   UNL     1       2.052  -6.387  -4.133  0.00  0.00    +0.003 A 
ATOM      9  C   UNL     1       2.167  -7.789  -4.306  0.00  0.00    -0.016 A 
ATOM     10  C   UNL     1       2.867  -8.290  -5.418  0.00  0.00    +0.008 A 
ATOM     11  C   UNL     1       1.578  -8.652  -3.368  0.00  0.00    +0.008 A 
ATOM     12  C   UNL     1       0.906  -8.139  -2.300  0.00  0.00    +0.002 A 
ATOM     13  C   UNL     1       0.791  -6.764  -2.117  0.00  0.00    +0.024 A 
ATOM     14  C   UNL     1       1.355  -5.884  -3.015  0.00  0.00    +0.044 A 
ENDBRANCH   1  14
BRANCH   2  15
ATOM     15  O   UNL     1       1.208  -2.664  -1.391  0.00  0.00    -0.445 OA
BRANCH  15  16
ATOM     16  C   UNL     1       1.210  -2.187  -0.020  0.00  0.00    +0.269 C 
BRANCH  16  17
ATOM     17  C   UNL     1       1.179  -0.680  -0.012  0.00  0.00    -0.010 A 
ATOM     18  C   UNL     1      -0.032  -0.014   0.003  0.00  0.00    +0.009 A 
ATOM     19  C   UNL     1      -0.061   1.368   0.011  0.00  0.00    +0.033 A 
ATOM     20  C   UNL     1       1.122   2.084   0.004  0.00  0.00    +0.126 A 
ATOM     21  C   UNL     1       2.333   1.418  -0.012  0.00  0.00    +0.033 A 
ATOM     22  C   UNL     1       2.362   0.036  -0.019  0.00  0.00    +0.009 A 
BRANCH  20  23
ATOM     23  N   UNL     1       1.091   3.564   0.013  0.00  0.00    +0.056 N 
ATOM     24  O   UNL     1       0.024   4.151   0.025  0.00  0.00    -0.126 OA
ATOM     25  O   UNL     1       2.133   4.194   0.007  0.00  0.00    -0.126 OA
ENDBRANCH  20  23
ENDBRANCH  16  17
ENDBRANCH  15  16
ENDBRANCH   2  15
TORSDOF 5
