REMARK  Name = ZINC15144300
REMARK  9 active torsions:
REMARK  status: ('A' for Active; 'I' for Inactive)
REMARK    1  A    between atoms: C_1  and  C_2
REMARK    2  A    between atoms: C_2  and  C_4
REMARK    3  A    between atoms: C_2  and  N_51
REMARK    4  A    between atoms: N_9  and  C_10
REMARK    5  A    between atoms: C_10  and  C_11
REMARK    6  A    between atoms: C_17  and  N_51
REMARK    7  A    between atoms: C_18  and  C_19
REMARK    8  A    between atoms: C_18  and  N_51
REMARK    9  A    between atoms: N_21  and  C_22
REMARK                            x       y       z     vdW  Elec       q    Type
REMARK                         _______ _______ _______ _____ _____    ______ ____
ROOT
ATOM      1  C   UNL     1       1.317  -3.582   5.256  0.00  0.00    -0.004 C 
ATOM      2  C   UNL     1       0.073  -4.115   4.542  0.00  0.00    +0.017 C 
ENDROOT
BRANCH   2   3
ATOM      3  C   UNL     1       0.052  -3.607   3.124  0.00  0.00    +0.207 C 
ATOM      4  O   UNL     1       0.061  -4.390   2.199  0.00  0.00    -0.277 OA
ATOM      5  N   UNL     1       0.021  -2.281   2.884  0.00  0.00    -0.242 N 
ATOM      6  C   UNL     1       0.002  -1.826   1.615  0.00  0.00    +0.306 C 
ATOM      7  O   UNL     1       0.012  -2.612   0.688  0.00  0.00    -0.252 OA
ATOM      8  N   UNL     1      -0.028  -0.500   1.375  0.00  0.00    -0.295 N 
ATOM      9  H   UNL     1       0.013  -1.654   3.624  0.00  0.00    +0.159 HD
ATOM     10  H   UNL     1      -0.036   0.127   2.115  0.00  0.00    +0.151 HD
BRANCH   8  11
ATOM     11  C   UNL     1      -0.049  -0.006  -0.004  0.00  0.00    +0.141 C 
BRANCH  11  12
ATOM     12  C   UNL     1      -0.081   1.501   0.003  0.00  0.00    -0.030 A 
ATOM     13  C   UNL     1      -1.293   2.166   0.009  0.00  0.00    +0.005 A 
ATOM     14  C   UNL     1      -1.322   3.548   0.021  0.00  0.00    +0.000 A 
ATOM     15  C   UNL     1      -0.140   4.265   0.015  0.00  0.00    +0.000 A 
ATOM     16  C   UNL     1       1.071   3.599   0.003  0.00  0.00    +0.000 A 
ATOM     17  C   UNL     1       1.101   2.217  -0.003  0.00  0.00    +0.005 A 
ENDBRANCH  11  12
ENDBRANCH   8  11
ENDBRANCH   2   3
BRANCH   2  19
ATOM     18  C   UNL     1       1.365  -6.081   3.967  0.00  0.00    -0.094 C 
ATOM     19  N   UNL     1       0.083  -5.593   4.519  0.00  0.00    +0.391 N 
ATOM     20  H   UNL     1      -0.684  -5.922   3.921  0.00  0.00    -0.080 HD
BRANCH  19  21
ATOM     21  C   UNL     1      -0.112  -6.122   5.885  0.00  0.00    +0.020 C 
BRANCH  21  22
ATOM     22  C   UNL     1      -0.318  -7.612   5.805  0.00  0.00    +0.201 C 
ATOM     23  O   UNL     1      -0.288  -8.172   4.730  0.00  0.00    -0.278 OA
ATOM     24  N   UNL     1      -0.536  -8.323   6.929  0.00  0.00    -0.286 N 
ATOM     25  H   UNL     1      -0.481  -7.891   7.795  0.00  0.00    +0.155 HD
BRANCH  24  26
ATOM     26  C   UNL     1      -0.842  -9.687   6.846  0.00  0.00    +0.047 A 
ATOM     27  C   UNL     1      -1.420 -10.201   5.693  0.00  0.00    +0.024 A 
ATOM     28  C   UNL     1      -1.717 -11.548   5.612  0.00  0.00    +0.002 A 
ATOM     29  C   UNL     1      -1.449 -12.382   6.682  0.00  0.00    +0.001 A 
ATOM     30  C   UNL     1      -0.878 -11.873   7.834  0.00  0.00    +0.017 A 
ATOM     31  C   UNL     1      -0.574 -10.527   7.920  0.00  0.00    +0.039 A 
ATOM     32 BR   UNL     1       0.205  -9.831   9.496  0.00  0.00    -0.048 Br
ENDBRANCH  24  26
ENDBRANCH  21  22
ENDBRANCH  19  21
ENDBRANCH   2  19
TORSDOF 7
