REMARK  Name = ZINC20002153
REMARK  14 active torsions:
REMARK  status: ('A' for Active; 'I' for Inactive)
REMARK    1  A    between atoms: C_1  and  C_2
REMARK    2  A    between atoms: C_2  and  C_4
REMARK    3  A    between atoms: C_2  and  O_25
REMARK    4  A    between atoms: C_7  and  S_12
REMARK    5  A    between atoms: N_8  and  C_9
REMARK    6  A    between atoms: C_9  and  C_10
REMARK    7  A    between atoms: S_12  and  C_13
REMARK    8  A    between atoms: C_13  and  C_14
REMARK    9  A    between atoms: C_20  and  C_22
REMARK   10  A    between atoms: C_22  and  C_23
REMARK   11  A    between atoms: C_22  and  C_24
REMARK   12  A    between atoms: O_25  and  C_26
REMARK   13  A    between atoms: C_30  and  O_32
REMARK   14  A    between atoms: O_32  and  C_33
REMARK                            x       y       z     vdW  Elec       q    Type
REMARK                         _______ _______ _______ _____ _____    ______ ____
ROOT
ATOM      1  C   UNL     1       0.768  -0.714  -1.225  0.00  0.00    +0.175 A 
ATOM      2  N   UNL     1       2.041  -0.521  -1.425  0.00  0.00    -0.130 NA
ATOM      3  N   UNL     1       2.403  -1.069  -2.529  0.00  0.00    -0.122 NA
ATOM      4  C   UNL     1       1.371  -1.647  -3.099  0.00  0.00    +0.192 A 
ATOM      5  N   UNL     1       0.296  -1.442  -2.282  0.00  0.00    -0.299 N 
ENDROOT
BRANCH   1   7
ATOM      6  C   UNL     1      -0.292   1.272  -0.185  0.00  0.00    +0.060 C 
ATOM      7  C   UNL     1      -0.034  -0.229  -0.045  0.00  0.00    +0.238 C 
BRANCH   7   8
ATOM      8  O   UNL     1       0.693  -0.477   1.160  0.00  0.00    -0.481 OA
BRANCH   8   9
ATOM      9  C   UNL     1      -0.031  -0.600   2.303  0.00  0.00    +0.125 A 
ATOM     10  C   UNL     1       0.599  -0.948   3.490  0.00  0.00    +0.046 A 
ATOM     11  C   UNL     1      -0.136  -1.073   4.653  0.00  0.00    +0.007 A 
ATOM     12  C   UNL     1      -1.500  -0.851   4.638  0.00  0.00    +0.046 A 
ATOM     13  C   UNL     1      -2.134  -0.502   3.454  0.00  0.00    +0.124 A 
ATOM     14  C   UNL     1      -1.398  -0.371   2.287  0.00  0.00    +0.091 A 
BRANCH  13  15
ATOM     15  O   UNL     1      -3.476  -0.285   3.440  0.00  0.00    -0.495 OA
ATOM     16  C   UNL     1      -4.170  -0.432   4.680  0.00  0.00    +0.277 C 
ENDBRANCH  13  15
ENDBRANCH   8   9
ENDBRANCH   7   8
ENDBRANCH   1   7
BRANCH   5  17
ATOM     17  C   UNL     1      -1.078  -1.905  -2.494  0.00  0.00    +0.152 C 
BRANCH  17  18
ATOM     18  C   UNL     1      -1.846  -0.861  -3.263  0.00  0.00    -0.013 C 
ATOM     19  C   UNL     1      -2.452  -1.184  -4.379  0.00  0.00    +0.005 C 
ENDBRANCH  17  18
ENDBRANCH   5  17
BRANCH   4  20
ATOM     20  S   UNL     1       1.373  -2.526  -4.626  0.00  0.00    -0.077 S 
BRANCH  20  21
ATOM     21  C   UNL     1       3.096  -2.431  -5.185  0.00  0.00    +0.173 C 
BRANCH  21  22
ATOM     22  C   UNL     1       3.239  -3.154  -6.499  0.00  0.00    +0.229 C 
ATOM     23  O   UNL     1       2.273  -3.681  -7.010  0.00  0.00    -0.275 OA
ATOM     24  N   UNL     1       4.439  -3.215  -7.108  0.00  0.00    -0.263 N 
ATOM     25  C   UNL     1       4.571  -3.882  -8.322  0.00  0.00    +0.188 A 
ATOM     26  N   UNL     1       3.651  -4.505  -9.031  0.00  0.00    -0.126 NA
ATOM     27  N   UNL     1       3.925  -5.072 -10.127  0.00  0.00    -0.144 NA
ATOM     28  C   UNL     1       5.164  -5.038 -10.575  0.00  0.00    +0.106 A 
ATOM     29  S   UNL     1       5.946  -4.097  -9.273  0.00  0.00    -0.035 S 
ATOM     30  H   UNL     1       5.212  -2.793  -6.700  0.00  0.00    +0.157 HD
BRANCH  28  31
ATOM     31  C   UNL     1       5.753  -5.623 -11.833  0.00  0.00    +0.040 C 
ATOM     32  C   UNL     1       5.553  -7.140 -11.832  0.00  0.00    +0.014 C 
ATOM     33  C   UNL     1       5.056  -5.017 -13.053  0.00  0.00    +0.014 C 
ENDBRANCH  28  31
ENDBRANCH  21  22
ENDBRANCH  20  21
ENDBRANCH   4  20
TORSDOF 10
