REMARK  Name = ZINC20109333
REMARK  13 active torsions:
REMARK  status: ('A' for Active; 'I' for Inactive)
REMARK    1  A    between atoms: C_1  and  C_2
REMARK    2  A    between atoms: C_2  and  C_3
REMARK    3  A    between atoms: C_3  and  C_4
REMARK    4  A    between atoms: C_3  and  C_5
REMARK    5  A    between atoms: C_3  and  N_6
REMARK    6  A    between atoms: C_7  and  C_9
REMARK    7  A    between atoms: C_9  and  C_11
REMARK    8  A    between atoms: C_9  and  N_16
REMARK    9  A    between atoms: N_16  and  C_17
REMARK   10  A    between atoms: C_17  and  C_18
REMARK   11  A    between atoms: C_18  and  N_19
REMARK   12  A    between atoms: C_25  and  C_27
REMARK   13  A    between atoms: C_27  and  N_28
REMARK                            x       y       z     vdW  Elec       q    Type
REMARK                         _______ _______ _______ _____ _____    ______ ____
ROOT
ATOM      1  N   UNL     1       1.933  -2.292  -0.812  0.00  0.00    -0.283 N 
ATOM      2  C   UNL     1       2.875  -2.710  -1.681  0.00  0.00    +0.238 C 
ATOM      3  O   UNL     1       3.996  -2.250  -1.628  0.00  0.00    -0.274 OA
ENDROOT
BRANCH   1   4
ATOM      4  C   UNL     1       2.264  -1.283   0.197  0.00  0.00    +0.199 C 
BRANCH   4   5
ATOM      5  C   UNL     1       3.275  -1.849   1.161  0.00  0.00    +0.019 A 
ATOM      6  C   UNL     1       3.396  -1.636   2.494  0.00  0.00    +0.013 A 
ATOM      7  C   UNL     1       4.412  -2.269   3.184  0.00  0.00    +0.008 A 
ATOM      8  C   UNL     1       5.258  -3.084   2.508  0.00  0.00    +0.045 A 
ATOM      9  S   UNL     1       4.624  -2.974   0.843  0.00  0.00    -0.099 S 
ENDBRANCH   4   5
BRANCH   4  11
ATOM     10  N   UNL     1       3.220   0.997   0.257  0.00  0.00    -0.308 N 
ATOM     11  C   UNL     1       2.841  -0.066  -0.479  0.00  0.00    +0.239 C 
ATOM     12  O   UNL     1       2.963  -0.044  -1.685  0.00  0.00    -0.273 OA
ATOM     13  H   UNL     1       3.108   0.977   1.351  0.00  0.00    +0.149 HD
BRANCH  10  14
ATOM     14  C   UNL     1       3.781   2.180  -0.400  0.00  0.00    +0.029 C 
ATOM     15  C   UNL     1       5.048   1.788  -1.163  0.00  0.00    +0.031 C 
ATOM     16  C   UNL     1       2.754   2.755  -1.379  0.00  0.00    +0.031 C 
BRANCH  14  18
ATOM     17  C   UNL     1       4.712   4.470  -0.033  0.00  0.00    +0.006 C 
ATOM     18  C   UNL     1       4.126   3.234   0.654  0.00  0.00    +0.022 C 
ENDBRANCH  14  18
ENDBRANCH  10  14
ENDBRANCH   4  11
ENDBRANCH   1   4
BRANCH   1  19
ATOM     19  C   UNL     1       0.579  -2.847  -0.877  0.00  0.00    +0.124 C 
BRANCH  19  20
ATOM     20  C   UNL     1      -0.301  -1.946  -1.746  0.00  0.00    +0.103 C 
BRANCH  20  21
ATOM     21  N   UNL     1      -1.686  -2.432  -1.710  0.00  0.00    -0.297 NA
ATOM     22  C   UNL     1      -1.800  -3.748  -2.357  0.00  0.00    +0.112 C 
ATOM     23  C   UNL     1      -3.244  -4.243  -2.244  0.00  0.00    +0.175 C 
ATOM     24  O   UNL     1      -4.121  -3.276  -2.828  0.00  0.00    -0.377 OA
ATOM     25  C   UNL     1      -4.037  -1.983  -2.222  0.00  0.00    +0.175 C 
ATOM     26  C   UNL     1      -2.601  -1.465  -2.334  0.00  0.00    +0.112 C 
ENDBRANCH  20  21
ENDBRANCH  19  20
ENDBRANCH   1  19
BRANCH   2  27
ATOM     27  C   UNL     1       2.535  -3.748  -2.720  0.00  0.00    +0.241 C 
BRANCH  27  28
ATOM     28  N   UNL     1       3.719  -4.029  -3.535  0.00  0.00    -0.235 N 
ATOM     29  C   UNL     1       4.677  -4.984  -3.292  0.00  0.00    +0.090 A 
ATOM     30  C   UNL     1       4.863  -5.934  -2.294  0.00  0.00    +0.029 A 
ATOM     31  C   UNL     1       5.950  -6.761  -2.337  0.00  0.00    +0.002 A 
ATOM     32  C   UNL     1       6.873  -6.662  -3.370  0.00  0.00    +0.002 A 
ATOM     33  C   UNL     1       6.714  -5.738  -4.361  0.00  0.00    +0.032 A 
ATOM     34  C   UNL     1       5.608  -4.878  -4.340  0.00  0.00    +0.113 A 
ATOM     35  N   UNL     1       5.192  -3.890  -5.158  0.00  0.00    -0.129 NA
ATOM     36  N   UNL     1       4.095  -3.380  -4.721  0.00  0.00    -0.064 NA
ENDBRANCH  27  28
ENDBRANCH   2  27
TORSDOF 10
