REMARK  Name = ZINC13938137
REMARK  7 active torsions:
REMARK  status: ('A' for Active; 'I' for Inactive)
REMARK    1  A    between atoms: C_1  and  C_2
REMARK    2  A    between atoms: C_5  and  C_8
REMARK    3  A    between atoms: C_8  and  C_10
REMARK    4  A    between atoms: C_8  and  N_11
REMARK    5  A    between atoms: N_11  and  S_12
REMARK    6  A    between atoms: S_12  and  C_15
REMARK    7  A    between atoms: C_18  and  N_21
REMARK                            x       y       z     vdW  Elec       q    Type
REMARK                         _______ _______ _______ _____ _____    ______ ____
ROOT
ATOM      1  S   UNL     1      -4.537   0.723   1.796  0.00  0.00    +0.059 S 
ATOM      2  O   UNL     1      -5.301   1.633   2.575  0.00  0.00    -0.153 OA
ATOM      3  O   UNL     1      -5.136  -0.192   0.888  0.00  0.00    -0.153 OA
ENDROOT
BRANCH   1   4
ATOM      4  C   UNL     1      -3.590  -0.239   2.928  0.00  0.00    +0.105 A 
ATOM      5  C   UNL     1      -3.143  -1.495   2.563  0.00  0.00    +0.031 A 
ATOM      6  C   UNL     1      -2.396  -2.248   3.450  0.00  0.00    +0.034 A 
ATOM      7  C   UNL     1      -2.104  -1.748   4.705  0.00  0.00    +0.126 A 
ATOM      8  C   UNL     1      -2.554  -0.493   5.072  0.00  0.00    +0.034 A 
ATOM      9  C   UNL     1      -3.297   0.261   4.184  0.00  0.00    +0.031 A 
BRANCH   7  10
ATOM     10  N   UNL     1      -1.308  -2.556   5.657  0.00  0.00    +0.056 N 
ATOM     11  O   UNL     1      -1.050  -2.115   6.763  0.00  0.00    -0.126 OA
ATOM     12  O   UNL     1      -0.911  -3.661   5.334  0.00  0.00    -0.126 OA
ENDBRANCH   7  10
ENDBRANCH   1   4
BRANCH   1  13
ATOM     13  N   UNL     1      -3.470   1.634   0.915  0.00  0.00    -0.183 NA
ATOM     14  H   UNL     1      -3.479   2.601   0.993  0.00  0.00    +0.149 HD
BRANCH  13  15
ATOM     15  C   UNL     1      -2.514   0.980   0.019  0.00  0.00    +0.103 C 
ATOM     16  C   UNL     1      -3.087   0.941  -1.399  0.00  0.00    +0.031 C 
BRANCH  15  21
ATOM     17  C   UNL     1       2.451   3.937  -0.001  0.00  0.00    +0.044 C 
ATOM     18  C   UNL     1       1.156   3.165   0.008  0.00  0.00    -0.050 A 
ATOM     19  C   UNL     1       1.175   1.783   0.000  0.00  0.00    +0.003 A 
ATOM     20  C   UNL     1      -0.013   1.076   0.008  0.00  0.00    +0.005 A 
ATOM     21  C   UNL     1      -1.219   1.751   0.017  0.00  0.00    -0.029 A 
ATOM     22  C   UNL     1      -1.238   3.133   0.030  0.00  0.00    +0.005 A 
ATOM     23  C   UNL     1      -0.050   3.840   0.022  0.00  0.00    +0.003 A 
ENDBRANCH  15  21
ENDBRANCH  13  15
ENDBRANCH   1  13
TORSDOF 5
