REMARK  Name = ZINC21974373
REMARK  11 active torsions:
REMARK  status: ('A' for Active; 'I' for Inactive)
REMARK    1  A    between atoms: C_1  and  C_2
REMARK    2  A    between atoms: C_5  and  N_24
REMARK    3  A    between atoms: C_6  and  N_9
REMARK    4  A    between atoms: C_7  and  C_8
REMARK    5  A    between atoms: C_10  and  C_12
REMARK    6  A    between atoms: C_12  and  C_14
REMARK    7  A    between atoms: C_12  and  S_15
REMARK    8  A    between atoms: S_15  and  C_16
REMARK    9  A    between atoms: N_20  and  C_21
REMARK   10  A    between atoms: C_21  and  C_22
REMARK   11  A    between atoms: C_21  and  C_23
REMARK                            x       y       z     vdW  Elec       q    Type
REMARK                         _______ _______ _______ _____ _____    ______ ____
ROOT
ATOM      1  N   UNL     1       1.413   1.930   2.499  0.00  0.00    -0.283 N 
ATOM      2  C   UNL     1       2.059   2.425   3.573  0.00  0.00    +0.230 C 
ATOM      3  O   UNL     1       1.429   2.825   4.529  0.00  0.00    -0.274 OA
ATOM      4  H   UNL     1       1.983   1.488   1.669  0.00  0.00    +0.155 HD
ENDROOT
BRANCH   1  10
ATOM      5  C   UNL     1      -2.951   0.427   4.194  0.00  0.00    +0.044 C 
ATOM      6  C   UNL     1      -2.124   1.261   3.250  0.00  0.00    -0.046 A 
ATOM      7  C   UNL     1      -2.747   2.075   2.321  0.00  0.00    +0.006 A 
ATOM      8  C   UNL     1      -1.992   2.838   1.449  0.00  0.00    +0.035 A 
ATOM      9  C   UNL     1      -0.613   2.792   1.506  0.00  0.00    +0.148 A 
ATOM     10  C   UNL     1       0.016   1.979   2.440  0.00  0.00    +0.067 A 
ATOM     11  C   UNL     1      -0.746   1.215   3.314  0.00  0.00    -0.024 A 
ATOM     12  C   UNL     1      -0.068   0.331   4.329  0.00  0.00    +0.046 C 
BRANCH   9  13
ATOM     13  N   UNL     1       0.194   3.609   0.572  0.00  0.00    +0.058 N 
ATOM     14  O   UNL     1      -0.357   4.312  -0.256  0.00  0.00    -0.126 OA
ATOM     15  O   UNL     1       1.411   3.578   0.631  0.00  0.00    -0.126 OA
ENDBRANCH   9  13
ENDBRANCH   1  10
BRANCH   2  16
ATOM     16  C   UNL     1       3.565   2.481   3.586  0.00  0.00    +0.137 C 
ATOM     17  C   UNL     1       4.124   1.099   3.934  0.00  0.00    +0.029 C 
BRANCH  16  18
ATOM     18  S   UNL     1       4.114   3.682   4.824  0.00  0.00    -0.074 S 
BRANCH  18  19
ATOM     19  C   UNL     1       5.850   3.656   4.526  0.00  0.00    +0.192 A 
ATOM     20  N   UNL     1       6.479   2.926   3.634  0.00  0.00    -0.123 NA
ATOM     21  N   UNL     1       7.742   3.161   3.690  0.00  0.00    -0.137 NA
ATOM     22  C   UNL     1       7.993   4.040   4.618  0.00  0.00    +0.226 A 
ATOM     23  N   UNL     1       6.798   4.387   5.184  0.00  0.00    -0.306 N 
BRANCH  23  24
ATOM     24  C   UNL     1       6.579   5.345   6.271  0.00  0.00    +0.084 C 
ATOM     25  C   UNL     1       7.341   4.887   7.516  0.00  0.00    +0.030 C 
ATOM     26  C   UNL     1       7.083   6.725   5.844  0.00  0.00    +0.030 C 
ENDBRANCH  23  24
ENDBRANCH  18  19
ENDBRANCH  16  18
ENDBRANCH   2  16
TORSDOF 6
