REMARK  Name = ZINC25146224
REMARK  6 active torsions:
REMARK  status: ('A' for Active; 'I' for Inactive)
REMARK    1  A    between atoms: C_4  and  C_7
REMARK    2  A    between atoms: C_7  and  C_9
REMARK    3  A    between atoms: C_7  and  N_19
REMARK    4  A    between atoms: C_20  and  C_22
REMARK    5  A    between atoms: C_22  and  N_23
REMARK    6  A    between atoms: C_24  and  C_26
REMARK                            x       y       z     vdW  Elec       q    Type
REMARK                         _______ _______ _______ _____ _____    ______ ____
ROOT
ATOM      1  C   UNL     1       3.711  -0.707  -0.038  0.00  0.00    +0.134 C 
ENDROOT
BRANCH   1   2
ATOM      2  C   UNL     1       4.044  -1.175   1.356  0.00  0.00    -0.021 A 
ATOM      3  C   UNL     1       3.450  -2.325   1.857  0.00  0.00    +0.008 A 
ATOM      4  C   UNL     1       3.739  -2.765   3.118  0.00  0.00    +0.030 A 
ATOM      5  C   UNL     1       4.640  -2.054   3.914  0.00  0.00    +0.089 A 
ATOM      6  C   UNL     1       5.241  -0.890   3.408  0.00  0.00    +0.066 A 
ATOM      7  C   UNL     1       4.940  -0.460   2.122  0.00  0.00    +0.033 A 
ATOM      8  N   UNL     1       6.066  -0.420   4.410  0.00  0.00    -0.344 N 
ATOM      9  H   UNL     1       6.623   0.373   4.371  0.00  0.00    +0.167 HD
ATOM     10  C   UNL     1       5.952  -1.275   5.462  0.00  0.00    +0.197 A 
ATOM     11  N   UNL     1       5.119  -2.231   5.173  0.00  0.00    -0.236 NA
ENDBRANCH   1   2
BRANCH   1  15
ATOM     12  C   UNL     1      -0.017   1.378   0.010  0.00  0.00    +0.000 A 
ATOM     13  C   UNL     1       1.171   2.086   0.002  0.00  0.00    +0.000 A 
ATOM     14  C   UNL     1       2.377   1.411  -0.013  0.00  0.00    +0.006 A 
ATOM     15  C   UNL     1       2.396   0.029  -0.020  0.00  0.00    -0.023 A 
ATOM     16  C   UNL     1       1.208  -0.679  -0.012  0.00  0.00    +0.006 A 
ATOM     17  C   UNL     1       0.002  -0.004   0.002  0.00  0.00    +0.000 A 
ENDBRANCH   1  15
BRANCH   1  18
ATOM     18  N   UNL     1       3.611  -1.865  -0.930  0.00  0.00    -0.303 N 
ATOM     19  C   UNL     1       3.825  -1.716  -2.253  0.00  0.00    +0.231 C 
ATOM     20  O   UNL     1       4.099  -0.624  -2.704  0.00  0.00    -0.274 OA
ATOM     21  H   UNL     1       3.392  -2.738  -0.569  0.00  0.00    +0.150 HD
BRANCH  19  22
ATOM     22  C   UNL     1       3.722  -2.906  -3.171  0.00  0.00    +0.200 C 
BRANCH  22  23
ATOM     23  N   UNL     1       3.995  -2.486  -4.548  0.00  0.00    -0.306 N 
ATOM     24  C   UNL     1       3.960  -3.389  -5.547  0.00  0.00    +0.217 C 
ATOM     25  O   UNL     1       3.702  -4.550  -5.307  0.00  0.00    -0.276 OA
ATOM     26  H   UNL     1       4.202  -1.558  -4.739  0.00  0.00    +0.149 HD
BRANCH  24  27
ATOM     27  C   UNL     1       4.241  -2.957  -6.963  0.00  0.00    +0.075 C 
ATOM     28  C   UNL     1       3.220  -1.898  -7.386  0.00  0.00    +0.013 C 
ATOM     29  C   UNL     1       3.506  -1.460  -8.823  0.00  0.00    +0.001 C 
ATOM     30  C   UNL     1       3.401  -2.668  -9.755  0.00  0.00    +0.000 C 
ATOM     31  C   UNL     1       4.422  -3.727  -9.333  0.00  0.00    +0.001 C 
ATOM     32  C   UNL     1       4.137  -4.166  -7.896  0.00  0.00    +0.013 C 
ENDBRANCH  24  27
ENDBRANCH  22  23
ENDBRANCH  19  22
ENDBRANCH   1  18
TORSDOF 6
