REMARK  Name = ZINC67398124
REMARK  8 active torsions:
REMARK  status: ('A' for Active; 'I' for Inactive)
REMARK    1  A    between atoms: C_1  and  C_2
REMARK    2  A    between atoms: N_7  and  C_9
REMARK    3  A    between atoms: C_9  and  C_10
REMARK    4  A    between atoms: C_10  and  C_12
REMARK    5  A    between atoms: C_10  and  N_13
REMARK    6  A    between atoms: C_14  and  C_16
REMARK    7  A    between atoms: N_18  and  C_19
REMARK    8  A    between atoms: C_22  and  N_26
REMARK                            x       y       z     vdW  Elec       q    Type
REMARK                         _______ _______ _______ _____ _____    ______ ____
ROOT
ATOM      1  N   UNL     1      -0.084  -4.388   2.375  0.00  0.00    -0.307 N 
ATOM      2  C   UNL     1      -0.389  -5.615   1.907  0.00  0.00    +0.299 C 
ATOM      3  O   UNL     1       0.496  -6.377   1.580  0.00  0.00    -0.265 OA
ATOM      4  H   UNL     1      -0.791  -3.779   2.636  0.00  0.00    +0.149 HD
ENDROOT
BRANCH   2   5
ATOM      5  C   UNL     1      -1.818  -6.035   1.792  0.00  0.00    +0.303 C 
ATOM      6  O   UNL     1      -2.703  -5.273   2.119  0.00  0.00    -0.265 OA
ATOM      7  N   UNL     1      -2.123  -7.262   1.325  0.00  0.00    -0.276 N 
ATOM      8  H   UNL     1      -1.420  -7.847   1.002  0.00  0.00    +0.155 HD
BRANCH   7   9
ATOM      9  C   UNL     1      -3.453  -7.691   1.305  0.00  0.00    +0.052 A 
ATOM     10  C   UNL     1      -4.474  -6.783   1.053  0.00  0.00    +0.027 A 
ATOM     11  C   UNL     1      -5.787  -7.210   1.034  0.00  0.00    +0.034 A 
ATOM     12  C   UNL     1      -6.087  -8.540   1.266  0.00  0.00    +0.128 A 
ATOM     13  C   UNL     1      -5.075  -9.447   1.518  0.00  0.00    +0.054 A 
ATOM     14  C   UNL     1      -3.758  -9.028   1.532  0.00  0.00    +0.064 A 
ATOM     15 CL   UNL     1      -2.486 -10.169   1.840  0.00  0.00    -0.082 Cl
BRANCH  12  16
ATOM     16  N   UNL     1      -7.496  -8.993   1.246  0.00  0.00    +0.056 N 
ATOM     17  O   UNL     1      -8.383  -8.201   1.026  0.00  0.00    -0.126 OA
ATOM     18  O   UNL     1      -7.761 -10.156   1.448  0.00  0.00    -0.126 OA
ENDBRANCH  12  16
ENDBRANCH   7   9
ENDBRANCH   2   5
BRANCH   1  19
ATOM     19  C   UNL     1       1.317  -3.975   2.487  0.00  0.00    +0.054 C 
ATOM     20  C   UNL     1       1.887  -4.465   3.821  0.00  0.00    +0.026 C 
BRANCH  19  21
ATOM     21  C   UNL     1       1.406  -2.449   2.424  0.00  0.00    -0.057 C 
BRANCH  21  27
ATOM     22  C   UNL     1      -0.054   1.528  -0.028  0.00  0.00    +0.005 C 
ATOM     23  C   UNL     1      -0.029  -0.002  -0.033  0.00  0.00    -0.031 C 
ATOM     24  C   UNL     1       0.683  -0.498  -1.294  0.00  0.00    -0.001 C 
ATOM     25  C   UNL     1       0.773  -2.026  -1.251  0.00  0.00    -0.018 C 
ATOM     26  C   UNL     1       1.495  -2.453   0.029  0.00  0.00    -0.079 C 
ATOM     27  N   UNL     1       0.752  -1.971   1.199  0.00  0.00    +0.381 N 
ATOM     28  C   UNL     1       0.723  -0.503   1.202  0.00  0.00    -0.076 C 
ATOM     29  H   UNL     1      -0.193  -2.324   1.165  0.00  0.00    -0.082 HD
ENDBRANCH  21  27
ENDBRANCH  19  21
ENDBRANCH   1  19
TORSDOF 6
