REMARK  Name = ZINC64490977
REMARK  6 active torsions:
REMARK  status: ('A' for Active; 'I' for Inactive)
REMARK    1  A    between atoms: C_1  and  C_2
REMARK    2  A    between atoms: C_2  and  C_3
REMARK    3  A    between atoms: C_3  and  C_5
REMARK    4  A    between atoms: C_3  and  S_15
REMARK    5  A    between atoms: N_7  and  C_8
REMARK    6  A    between atoms: S_15  and  C_16
REMARK                            x       y       z     vdW  Elec       q    Type
REMARK                         _______ _______ _______ _____ _____    ______ ____
ROOT
ATOM      1  C   UNL     1      -1.543  -0.718   0.124  0.00  0.00    +0.136 C 
ENDROOT
BRANCH   1   2
ATOM      2  C   UNL     1      -1.563  -2.208   0.344  0.00  0.00    +0.230 C 
ATOM      3  O   UNL     1      -1.585  -2.962  -0.606  0.00  0.00    -0.274 OA
ATOM      4  N   UNL     1      -1.556  -2.705   1.597  0.00  0.00    -0.285 N 
ATOM      5  H   UNL     1      -1.468  -2.106   2.356  0.00  0.00    +0.155 HD
BRANCH   4   6
ATOM      6  C   UNL     1      -1.676  -4.084   1.805  0.00  0.00    +0.034 A 
ATOM      7  C   UNL     1      -1.099  -4.974   0.909  0.00  0.00    +0.025 A 
ATOM      8  C   UNL     1      -1.219  -6.335   1.116  0.00  0.00    +0.022 A 
ATOM      9  C   UNL     1      -1.914  -6.810   2.214  0.00  0.00    +0.041 A 
ATOM     10  C   UNL     1      -2.491  -5.924   3.108  0.00  0.00    +0.022 A 
ATOM     11  C   UNL     1      -2.369  -4.563   2.909  0.00  0.00    +0.025 A 
ATOM     12 CL   UNL     1      -2.064  -8.521   2.471  0.00  0.00    -0.084 Cl
ENDBRANCH   4   6
ENDBRANCH   1   2
BRANCH   1  14
ATOM     13  C   UNL     1      -0.086   1.311   0.072  0.00  0.00    +0.005 C 
ATOM     14  C   UNL     1      -0.098  -0.217   0.157  0.00  0.00    +0.020 C 
ENDBRANCH   1  14
BRANCH   1  15
ATOM     15  S   UNL     1      -2.279  -0.335  -1.489  0.00  0.00    -0.102 S 
BRANCH  15  16
ATOM     16  C   UNL     1      -4.045  -0.675  -1.258  0.00  0.00    +0.237 C 
ATOM     17  N   UNL     1      -4.234  -2.043  -0.760  0.00  0.00    -0.354 N 
ATOM     18  C   UNL     1      -4.820  -1.958   0.397  0.00  0.00    +0.080 A 
ATOM     19  C   UNL     1      -5.264  -2.972   1.372  0.00  0.00    +0.030 A 
ATOM     20  C   UNL     1      -5.856  -2.533   2.508  0.00  0.00    +0.022 A 
ATOM     21  C   UNL     1      -6.034  -1.156   2.742  0.00  0.00    +0.113 A 
ATOM     22  N   UNL     1      -5.657  -0.232   1.908  0.00  0.00    -0.236 NA
ATOM     23  C   UNL     1      -5.054  -0.529   0.735  0.00  0.00    +0.152 A 
ATOM     24  N   UNL     1      -4.601   0.220  -0.235  0.00  0.00    -0.340 N 
ATOM     25  H   UNL     1      -4.626   1.188  -0.272  0.00  0.00    +0.164 HD
ATOM     26  H   UNL     1      -3.971  -2.860  -1.212  0.00  0.00    +0.163 HD
ENDBRANCH  15  16
ENDBRANCH   1  15
TORSDOF 5
