REMARK  Name = ZINC39556078
REMARK  6 active torsions:
REMARK  status: ('A' for Active; 'I' for Inactive)
REMARK    1  A    between atoms: C_1  and  S_2
REMARK    2  A    between atoms: S_2  and  C_3
REMARK    3  A    between atoms: C_4  and  C_20
REMARK    4  A    between atoms: C_5  and  N_9
REMARK    5  A    between atoms: C_10  and  C_12
REMARK    6  A    between atoms: C_23  and  N_26
REMARK                            x       y       z     vdW  Elec       q    Type
REMARK                         _______ _______ _______ _____ _____    ______ ____
ROOT
ATOM      1  C   UNL     1       0.877  -0.427   1.472  0.00  0.00    +0.126 C 
ATOM      2  C   UNL     1       1.145  -1.697   1.880  0.00  0.00    +0.037 C 
ATOM      3  C   UNL     1       1.907  -1.502   3.180  0.00  0.00    +0.248 C 
ATOM      4  N   UNL     1       1.958  -0.038   3.321  0.00  0.00    -0.159 NA
ATOM      5  N   UNL     1       1.382   0.464   2.353  0.00  0.00    -0.145 NA
ENDROOT
BRANCH   2   6
ATOM      6  C   UNL     1       0.783  -2.959   1.219  0.00  0.00    -0.015 A 
ATOM      7  C   UNL     1      -0.112  -3.843   1.833  0.00  0.00    +0.010 A 
ATOM      8  C   UNL     1      -0.447  -5.024   1.206  0.00  0.00    +0.033 A 
ATOM      9  C   UNL     1       0.100  -5.338  -0.027  0.00  0.00    +0.126 A 
ATOM     10  C   UNL     1       0.986  -4.469  -0.640  0.00  0.00    +0.033 A 
ATOM     11  C   UNL     1       1.327  -3.281  -0.029  0.00  0.00    +0.010 A 
BRANCH   9  12
ATOM     12  N   UNL     1      -0.265  -6.609  -0.692  0.00  0.00    +0.056 N 
ATOM     13  O   UNL     1      -1.038  -7.370  -0.159  0.00  0.00    -0.126 OA
ATOM     14  O   UNL     1       0.210  -6.886  -1.769  0.00  0.00    -0.126 OA
ENDBRANCH   9  12
ENDBRANCH   2   6
BRANCH   3  15
ATOM     15  N   UNL     1       3.256  -2.063   3.078  0.00  0.00    -0.285 N 
ATOM     16  C   UNL     1       3.751  -2.815   4.081  0.00  0.00    +0.246 C 
ATOM     17  O   UNL     1       3.078  -3.028   5.070  0.00  0.00    -0.270 OA
ATOM     18  H   UNL     1       3.794  -1.894   2.288  0.00  0.00    +0.151 HD
BRANCH  16  19
ATOM     19  C   UNL     1       5.116  -3.382   3.978  0.00  0.00    +0.042 A 
ATOM     20  C   UNL     1       5.909  -3.145   2.851  0.00  0.00    +0.053 A 
ATOM     21  C   UNL     1       7.177  -3.693   2.796  0.00  0.00    +0.132 A 
ATOM     22  N   UNL     1       7.640  -4.431   3.787  0.00  0.00    -0.224 NA
ATOM     23  C   UNL     1       6.924  -4.679   4.867  0.00  0.00    +0.132 A 
ATOM     24  C   UNL     1       5.648  -4.165   5.006  0.00  0.00    +0.053 A 
ATOM     25 CL   UNL     1       7.596  -5.657   6.134  0.00  0.00    -0.062 Cl
ATOM     26 CL   UNL     1       8.174  -3.408   1.403  0.00  0.00    -0.062 Cl
ENDBRANCH  16  19
ENDBRANCH   3  15
BRANCH   1  28
ATOM     27  C   UNL     1      -0.022   1.810   0.012  0.00  0.00    +0.091 C 
ATOM     28  S   UNL     1       0.002  -0.004   0.002  0.00  0.00    -0.107 S 
ENDBRANCH   1  28
TORSDOF 5
