REMARK  Name = ZINC45842887
REMARK  9 active torsions:
REMARK  status: ('A' for Active; 'I' for Inactive)
REMARK    1  A    between atoms: C_1  and  C_2
REMARK    2  A    between atoms: C_4  and  C_24
REMARK    3  A    between atoms: C_7  and  C_12
REMARK    4  A    between atoms: C_12  and  O_14
REMARK    5  A    between atoms: O_14  and  C_15
REMARK    6  A    between atoms: C_15  and  C_16
REMARK    7  A    between atoms: C_18  and  C_21
REMARK    8  A    between atoms: C_21  and  C_22
REMARK    9  A    between atoms: C_21  and  C_23
REMARK                            x       y       z     vdW  Elec       q    Type
REMARK                         _______ _______ _______ _____ _____    ______ ____
ROOT
ATOM      1  C   UNL     1      -0.018   1.503   0.010  0.00  0.00    +0.044 C 
ATOM      2  C   UNL     1       0.002  -0.004   0.002  0.00  0.00    -0.048 A 
ATOM      3  C   UNL     1       0.006  -0.685  -1.209  0.00  0.00    +0.007 A 
ATOM      4  C   UNL     1       0.024  -2.049  -1.239  0.00  0.00    -0.041 A 
ATOM      5  C   UNL     1       0.040  -2.772  -0.039  0.00  0.00    +0.003 A 
ATOM      6  C   UNL     1       0.060  -4.155   0.262  0.00  0.00    +0.043 A 
ATOM      7  C   UNL     1       0.069  -4.284   1.615  0.00  0.00    +0.125 A 
ATOM      8  N   UNL     1       0.055  -3.028   2.190  0.00  0.00    -0.349 N 
ATOM      9  H   UNL     1       0.057  -2.842   3.142  0.00  0.00    +0.166 HD
ATOM     10  C   UNL     1       0.037  -2.084   1.190  0.00  0.00    +0.048 A 
ATOM     11  C   UNL     1       0.023  -0.692   1.194  0.00  0.00    +0.029 A 
ATOM     12  C   UNL     1       0.027  -2.776  -2.559  0.00  0.00    +0.044 C 
ENDROOT
BRANCH   7  13
ATOM     13  C   UNL     1       0.089  -5.556   2.350  0.00  0.00    +0.356 C 
ATOM     14  O   UNL     1       0.100  -6.609   1.742  0.00  0.00    -0.243 OA
BRANCH  13  15
ATOM     15  O   UNL     1       0.096  -5.556   3.698  0.00  0.00    -0.450 OA
BRANCH  15  16
ATOM     16  C   UNL     1       0.116  -6.830   4.347  0.00  0.00    +0.331 C 
BRANCH  16  17
ATOM     17  C   UNL     1       0.121  -6.632   5.841  0.00  0.00    +0.265 A 
ATOM     18  N   UNL     1      -0.933  -6.551   6.604  0.00  0.00    -0.193 NA
ATOM     19  C   UNL     1      -0.565  -6.376   7.879  0.00  0.00    +0.174 A 
ATOM     20  N   UNL     1       0.736  -6.343   7.941  0.00  0.00    -0.061 NA
ATOM     21  O   UNL     1       1.208  -6.516   6.613  0.00  0.00    -0.334 OA
BRANCH  19  22
ATOM     22  C   UNL     1      -1.502  -6.238   9.051  0.00  0.00    +0.054 C 
ATOM     23  C   UNL     1      -1.231  -7.361  10.054  0.00  0.00    +0.015 C 
ATOM     24  C   UNL     1      -1.277  -4.884   9.727  0.00  0.00    +0.015 C 
ENDBRANCH  19  22
ENDBRANCH  16  17
ENDBRANCH  15  16
ENDBRANCH  13  15
ENDBRANCH   7  13
TORSDOF 5
