REMARK  Name = ZINC35959175
REMARK  6 active torsions:
REMARK  status: ('A' for Active; 'I' for Inactive)
REMARK    1  A    between atoms: C_1  and  N_2
REMARK    2  A    between atoms: C_5  and  N_8
REMARK    3  A    between atoms: N_8  and  C_9
REMARK    4  A    between atoms: C_10  and  C_12
REMARK    5  A    between atoms: N_15  and  C_18
REMARK    6  A    between atoms: C_24  and  C_26
REMARK                            x       y       z     vdW  Elec       q    Type
REMARK                         _______ _______ _______ _____ _____    ______ ____
ROOT
ATOM      1  C   UNL     1       4.556  -5.429  -2.367  0.00  0.00    +0.072 C 
ATOM      2  C   UNL     1       3.788  -5.971  -3.576  0.00  0.00    -0.006 C 
ATOM      3  C   UNL     1       3.219  -7.350  -3.236  0.00  0.00    -0.078 C 
ATOM      4  N   UNL     1       4.316  -8.266  -2.901  0.00  0.00    +0.382 N 
ATOM      5  C   UNL     1       5.013  -7.790  -1.699  0.00  0.00    -0.078 C 
ATOM      6  C   UNL     1       5.650  -6.428  -1.981  0.00  0.00    -0.006 C 
ATOM      7  H   UNL     1       4.966  -8.307  -3.671  0.00  0.00    -0.081 HD
ENDROOT
BRANCH   4   8
ATOM      8  C   UNL     1       3.772  -9.608  -2.651  0.00  0.00    -0.066 C 
ATOM      9  C   UNL     1       4.914 -10.563  -2.299  0.00  0.00    +0.004 C 
ATOM     10  C   UNL     1       4.340 -11.953  -2.005  0.00  0.00    +0.106 C 
ATOM     11  N   UNL     1       3.526 -12.380  -3.152  0.00  0.00    -0.301 N 
ATOM     12  C   UNL     1       2.458 -11.493  -3.630  0.00  0.00    +0.106 C 
ATOM     13  C   UNL     1       3.053 -10.108  -3.905  0.00  0.00    +0.004 C 
ATOM     14  C   UNL     1       3.756 -13.564  -3.753  0.00  0.00    +0.219 C 
ATOM     15  O   UNL     1       4.691 -14.252  -3.402  0.00  0.00    -0.275 OA
BRANCH  14  16
ATOM     16  C   UNL     1       2.852 -14.034  -4.864  0.00  0.00    +0.075 C 
ATOM     17  C   UNL     1       1.600 -14.677  -4.264  0.00  0.00    +0.013 C 
ATOM     18  C   UNL     1       0.681 -15.153  -5.391  0.00  0.00    +0.001 C 
ATOM     19  C   UNL     1       1.420 -16.180  -6.251  0.00  0.00    +0.000 C 
ATOM     20  C   UNL     1       2.672 -15.537  -6.851  0.00  0.00    +0.001 C 
ATOM     21  C   UNL     1       3.590 -15.061  -5.724  0.00  0.00    +0.013 C 
ENDBRANCH  14  16
ENDBRANCH   4   8
BRANCH   1  24
ATOM     22  N   UNL     1       4.409  -3.070  -3.095  0.00  0.00    -0.301 N 
ATOM     23  C   UNL     1       2.954  -3.229  -3.158  0.00  0.00    +0.132 C 
ATOM     24  C   UNL     1       5.185  -4.106  -2.722  0.00  0.00    +0.219 C 
ATOM     25  O   UNL     1       6.389  -3.974  -2.670  0.00  0.00    -0.275 OA
BRANCH  22  30
ATOM     26  C   UNL     1       5.165   2.293  -4.673  0.00  0.00    -0.096 C 
ATOM     27  N   UNL     1       4.671   0.959  -4.305  0.00  0.00    +0.378 N 
ATOM     28  C   UNL     1       5.244  -0.041  -5.214  0.00  0.00    -0.077 C 
ATOM     29  C   UNL     1       4.670  -1.421  -4.886  0.00  0.00    +0.004 C 
ATOM     30  C   UNL     1       5.019  -1.783  -3.440  0.00  0.00    +0.072 C 
ATOM     31  C   UNL     1       4.481  -0.695  -2.507  0.00  0.00    +0.004 C 
ATOM     32  C   UNL     1       5.062   0.659  -2.923  0.00  0.00    -0.077 C 
ATOM     33  H   UNL     1       3.665   0.942  -4.380  0.00  0.00    -0.082 HD
ENDBRANCH  22  30
ENDBRANCH   1  24
TORSDOF 4
