REMARK  Name = ZINC57944212
REMARK  11 active torsions:
REMARK  status: ('A' for Active; 'I' for Inactive)
REMARK    1  A    between atoms: C_1  and  C_2
REMARK    2  A    between atoms: C_4  and  C_28
REMARK    3  A    between atoms: C_8  and  N_27
REMARK    4  A    between atoms: C_9  and  C_11
REMARK    5  A    between atoms: C_11  and  O_13
REMARK    6  A    between atoms: O_13  and  C_14
REMARK    7  A    between atoms: C_14  and  C_15
REMARK    8  A    between atoms: C_15  and  O_16
REMARK    9  A    between atoms: O_16  and  C_17
REMARK   10  A    between atoms: C_20  and  S_23
REMARK   11  A    between atoms: S_23  and  N_26
REMARK                            x       y       z     vdW  Elec       q    Type
REMARK                         _______ _______ _______ _____ _____    ______ ____
ROOT
ATOM      1  C   UNL     1       1.979  -0.745   4.319  0.00  0.00    +0.348 C 
ATOM      2  O   UNL     1       2.116   0.412   4.672  0.00  0.00    -0.244 OA
ENDROOT
BRANCH   1  11
ATOM      3  C   UNL     1      -1.696   1.372   0.766  0.00  0.00    +0.044 C 
ATOM      4  C   UNL     1      -1.521  -0.123   0.688  0.00  0.00    -0.037 A 
ATOM      5  C   UNL     1      -2.240  -0.864  -0.221  0.00  0.00    +0.025 A 
ATOM      6  C   UNL     1      -2.078  -2.239  -0.290  0.00  0.00    +0.014 A 
ATOM      7  N   UNL     1      -1.231  -2.853   0.513  0.00  0.00    -0.353 N 
ATOM      8  C   UNL     1      -0.520  -2.189   1.399  0.00  0.00    +0.088 A 
ATOM      9  C   UNL     1      -0.609  -0.786   1.546  0.00  0.00    +0.030 A 
ATOM     10  C   UNL     1       0.254  -0.216   2.569  0.00  0.00    +0.055 A 
ATOM     11  C   UNL     1       1.067  -1.067   3.287  0.00  0.00    +0.119 A 
ATOM     12  S   UNL     1       0.683  -2.671   2.612  0.00  0.00    -0.062 S 
ATOM     13  C   UNL     1      -2.873  -3.037  -1.291  0.00  0.00    +0.063 C 
ATOM     14  H   UNL     1      -1.131  -3.816   0.450  0.00  0.00    +0.166 HD
BRANCH  10  15
ATOM     15  N   UNL     1       0.258   1.149   2.816  0.00  0.00    -0.356 N 
ATOM     16  H   UNL     1       0.106   1.774   2.090  0.00  0.00    +0.142 HD
ATOM     17  H   UNL     1       0.414   1.479   3.715  0.00  0.00    +0.142 HD
ENDBRANCH  10  15
ENDBRANCH   1  11
BRANCH   1  18
ATOM     18  O   UNL     1       2.697  -1.721   4.914  0.00  0.00    -0.457 OA
BRANCH  18  19
ATOM     19  C   UNL     1       3.599  -1.324   5.949  0.00  0.00    +0.273 C 
BRANCH  19  20
ATOM     20  C   UNL     1       4.319  -2.558   6.499  0.00  0.00    +0.270 C 
BRANCH  20  21
ATOM     21  O   UNL     1       5.141  -3.124   5.477  0.00  0.00    -0.489 OA
BRANCH  21  22
ATOM     22  C   UNL     1       5.854  -4.234   5.804  0.00  0.00    +0.121 A 
ATOM     23  C   UNL     1       5.759  -4.771   7.080  0.00  0.00    +0.047 A 
ATOM     24  C   UNL     1       6.484  -5.899   7.409  0.00  0.00    +0.032 A 
ATOM     25  C   UNL     1       7.304  -6.495   6.469  0.00  0.00    +0.105 A 
ATOM     26  C   UNL     1       7.401  -5.962   5.197  0.00  0.00    +0.032 A 
ATOM     27  C   UNL     1       6.673  -4.837   4.860  0.00  0.00    +0.047 A 
BRANCH  25  28
ATOM     28  S   UNL     1       8.228  -7.934   6.892  0.00  0.00    +0.056 S 
ATOM     29  O   UNL     1       9.337  -7.981   6.004  0.00  0.00    -0.153 OA
ATOM     30  O   UNL     1       8.383  -7.915   8.305  0.00  0.00    -0.153 OA
BRANCH  28  31
ATOM     31  N   UNL     1       7.282  -9.245   6.537  0.00  0.00    -0.204 NA
ATOM     32  H   UNL     1       6.395  -9.117   6.166  0.00  0.00    +0.144 HD
ATOM     33  H   UNL     1       7.614 -10.142   6.700  0.00  0.00    +0.144 HD
ENDBRANCH  28  31
ENDBRANCH  25  28
ENDBRANCH  21  22
ENDBRANCH  20  21
ENDBRANCH  19  20
ENDBRANCH  18  19
ENDBRANCH   1  18
TORSDOF 9
