REMARK  Name = ZINC37423541
REMARK  14 active torsions:
REMARK  status: ('A' for Active; 'I' for Inactive)
REMARK    1  A    between atoms: C_1  and  C_2
REMARK    2  A    between atoms: C_2  and  C_3
REMARK    3  A    between atoms: C_2  and  C_4
REMARK    4  A    between atoms: C_4  and  N_5
REMARK    5  A    between atoms: C_6  and  C_8
REMARK    6  A    between atoms: C_8  and  O_28
REMARK    7  A    between atoms: C_10  and  O_27
REMARK    8  A    between atoms: C_12  and  O_26
REMARK    9  A    between atoms: C_14  and  O_17
REMARK   10  A    between atoms: O_17  and  C_18
REMARK   11  A    between atoms: C_18  and  C_19
REMARK   12  A    between atoms: O_28  and  C_29
REMARK   13  A    between atoms: C_29  and  C_30
REMARK   14  A    between atoms: C_35  and  C_36
REMARK                            x       y       z     vdW  Elec       q    Type
REMARK                         _______ _______ _______ _____ _____    ______ ____
ROOT
ATOM      1  C   UNL     1      -4.000  -0.029  -2.734  0.00  0.00    +0.150 C 
ATOM      2  C   UNL     1      -4.412   1.428  -2.513  0.00  0.00    +0.078 C 
ATOM      3  C   UNL     1      -5.454   1.500  -1.395  0.00  0.00    +0.149 C 
ATOM      4  C   UNL     1      -6.682   0.676  -1.788  0.00  0.00    +0.172 C 
ATOM      5  C   UNL     1      -6.270  -0.781  -2.008  0.00  0.00    +0.153 C 
ATOM      6  C   UNL     1      -5.229  -0.853  -3.127  0.00  0.00    +0.079 C 
ENDROOT
BRANCH   1   8
ATOM      7  N   UNL     1      -2.647  -1.692  -1.500  0.00  0.00    -0.313 N 
ATOM      8  C   UNL     1      -3.411  -0.583  -1.462  0.00  0.00    +0.245 C 
ATOM      9  O   UNL     1      -3.625  -0.029  -0.404  0.00  0.00    -0.273 OA
ATOM     10  H   UNL     1      -2.535  -2.175  -2.333  0.00  0.00    +0.149 HD
BRANCH   7  11
ATOM     11  C   UNL     1      -1.984  -2.167  -0.283  0.00  0.00    +0.107 C 
BRANCH  11  13
ATOM     12  C   UNL     1      -0.053  -3.093  -1.569  0.00  0.00    +0.009 C 
ATOM     13  C   UNL     1      -1.185  -3.433  -0.598  0.00  0.00    -0.000 C 
ATOM     14  C   UNL     1      -0.596  -4.000   0.695  0.00  0.00    +0.009 C 
ENDBRANCH  11  13
ENDBRANCH   7  11
ENDBRANCH   1   8
BRANCH   4  15
ATOM     15  O   UNL     1      -7.241   1.201  -2.994  0.00  0.00    -0.387 OA
ATOM     16  H   UNL     1      -7.525   2.123  -2.928  0.00  0.00    +0.210 HD
ENDBRANCH   4  15
BRANCH   3  17
ATOM     17  O   UNL     1      -5.839   2.861  -1.190  0.00  0.00    -0.389 OA
ATOM     18  H   UNL     1      -6.498   2.982  -0.493  0.00  0.00    +0.210 HD
ENDBRANCH   3  17
BRANCH   5  19
ATOM     19  O   UNL     1      -7.417  -1.550  -2.376  0.00  0.00    -0.369 OA
BRANCH  19  20
ATOM     20  C   UNL     1      -8.116  -2.118  -1.266  0.00  0.00    +0.198 C 
BRANCH  20  21
ATOM     21  C   UNL     1      -9.300  -2.903  -1.767  0.00  0.00    +0.013 A 
ATOM     22  C   UNL     1      -9.553  -2.984  -3.123  0.00  0.00    +0.009 A 
ATOM     23  C   UNL     1     -10.640  -3.704  -3.583  0.00  0.00    +0.001 A 
ATOM     24  C   UNL     1     -11.475  -4.345  -2.687  0.00  0.00    +0.003 A 
ATOM     25  C   UNL     1     -11.224  -4.266  -1.330  0.00  0.00    +0.039 A 
ATOM     26  C   UNL     1     -10.133  -3.549  -0.869  0.00  0.00    +0.129 A 
ATOM     27  F   UNL     1      -9.884  -3.475   0.457  0.00  0.00    -0.205 F 
ENDBRANCH  20  21
ENDBRANCH  19  20
ENDBRANCH   5  19
BRANCH   1  28
ATOM     28  O   UNL     1      -3.027  -0.097  -3.778  0.00  0.00    -0.359 OA
BRANCH  28  29
ATOM     29  C   UNL     1      -1.819   0.610  -3.493  0.00  0.00    +0.197 C 
BRANCH  29  30
ATOM     30  C   UNL     1      -0.824   0.371  -4.599  0.00  0.00    -0.005 A 
ATOM     31  C   UNL     1      -1.163  -0.427  -5.673  0.00  0.00    +0.007 A 
ATOM     32  C   UNL     1      -0.251  -0.647  -6.690  0.00  0.00    +0.000 A 
ATOM     33  C   UNL     1       1.006  -0.070  -6.638  0.00  0.00    +0.001 A 
ATOM     34  C   UNL     1       1.358   0.729  -5.571  0.00  0.00    +0.019 A 
ATOM     35  C   UNL     1       0.440   0.961  -4.544  0.00  0.00    +0.057 A 
BRANCH  35  36
ATOM     36  C   UNL     1       0.796   1.795  -3.436  0.00  0.00    +0.100 C 
ATOM     37  N   UNL     1       1.079   2.457  -2.556  0.00  0.00    -0.191 NA
ENDBRANCH  35  36
ENDBRANCH  29  30
ENDBRANCH  28  29
ENDBRANCH   1  28
TORSDOF 12
