REMARK  Name = ZINC06098734
REMARK  8 active torsions:
REMARK  status: ('A' for Active; 'I' for Inactive)
REMARK    1  A    between atoms: C_1  and  C_2
REMARK    2  A    between atoms: C_5  and  C_29
REMARK    3  A    between atoms: C_6  and  N_8
REMARK    4  A    between atoms: C_9  and  S_13
REMARK    5  A    between atoms: S_13  and  C_14
REMARK    6  A    between atoms: C_14  and  C_16
REMARK    7  A    between atoms: C_14  and  C_17
REMARK    8  A    between atoms: N_19  and  C_20
REMARK                            x       y       z     vdW  Elec       q    Type
REMARK                         _______ _______ _______ _____ _____    ______ ____
ROOT
ATOM      1  C   UNL     1       6.931  -1.814   3.162  0.00  0.00    +0.137 C 
ATOM      2  C   UNL     1       6.640  -1.237   4.549  0.00  0.00    +0.029 C 
ENDROOT
BRANCH   1   3
ATOM      3  C   UNL     1       5.690  -1.729   2.312  0.00  0.00    +0.230 C 
ATOM      4  O   UNL     1       4.943  -2.682   2.233  0.00  0.00    -0.274 OA
ATOM      5  N   UNL     1       5.409  -0.595   1.640  0.00  0.00    -0.284 N 
ATOM      6  H   UNL     1       6.041   0.141   1.646  0.00  0.00    +0.155 HD
BRANCH   5   7
ATOM      7  C   UNL     1       4.206  -0.480   0.933  0.00  0.00    +0.037 A 
ATOM      8  C   UNL     1       3.668  -1.588   0.292  0.00  0.00    +0.027 A 
ATOM      9  C   UNL     1       2.481  -1.475  -0.406  0.00  0.00    +0.051 A 
ATOM     10  C   UNL     1       1.823  -0.257  -0.468  0.00  0.00    +0.166 A 
ATOM     11  C   UNL     1       2.360   0.856   0.174  0.00  0.00    +0.168 A 
ATOM     12  C   UNL     1       3.550   0.742   0.873  0.00  0.00    +0.072 A 
ATOM     13  O   UNL     1       1.533   1.922  -0.035  0.00  0.00    -0.453 OA
ATOM     14  C   UNL     1       0.280   1.357  -0.465  0.00  0.00    +0.466 C 
ATOM     15  O   UNL     1       0.658   0.112  -1.079  0.00  0.00    -0.453 OA
ENDBRANCH   5   7
ENDBRANCH   1   3
BRANCH   1  16
ATOM     16  S   UNL     1       7.436  -3.545   3.322  0.00  0.00    -0.072 S 
BRANCH  16  18
ATOM     17  N   UNL     1       9.787  -4.334   4.614  0.00  0.00    -0.187 N 
ATOM     18  C   UNL     1       8.947  -3.342   4.206  0.00  0.00    +0.215 A 
ATOM     19  N   UNL     1       9.482  -2.204   4.592  0.00  0.00    -0.101 NA
ATOM     20  N   UNL     1      10.585  -2.413   5.215  0.00  0.00    -0.022 NA
ATOM     21  N   UNL     1      10.842  -3.675   5.269  0.00  0.00    -0.038 NA
BRANCH  17  27
ATOM     22  C   UNL     1       6.946  -8.345   4.805  0.00  0.00    +0.044 C 
ATOM     23  C   UNL     1       8.266  -7.683   4.507  0.00  0.00    -0.048 A 
ATOM     24  C   UNL     1       9.328  -8.438   4.043  0.00  0.00    +0.004 A 
ATOM     25  C   UNL     1      10.541  -7.835   3.768  0.00  0.00    +0.006 A 
ATOM     26  C   UNL     1      10.695  -6.474   3.951  0.00  0.00    -0.025 A 
ATOM     27  C   UNL     1       9.633  -5.715   4.422  0.00  0.00    +0.073 A 
ATOM     28  C   UNL     1       8.415  -6.323   4.697  0.00  0.00    +0.031 A 
ATOM     29  C   UNL     1      12.016  -5.816   3.646  0.00  0.00    +0.046 C 
ENDBRANCH  17  27
ENDBRANCH  16  18
ENDBRANCH   1  16
TORSDOF 5
