REMARK  Name = ZINC12671191
REMARK  9 active torsions:
REMARK  status: ('A' for Active; 'I' for Inactive)
REMARK    1  A    between atoms: C_3  and  S_25
REMARK    2  A    between atoms: C_6  and  C_7
REMARK    3  A    between atoms: C_7  and  C_8
REMARK    4  A    between atoms: C_8  and  C_9
REMARK    5  A    between atoms: N_11  and  N_12
REMARK    6  A    between atoms: C_13  and  C_15
REMARK    7  A    between atoms: C_15  and  S_16
REMARK    8  A    between atoms: S_16  and  C_17
REMARK    9  A    between atoms: S_25  and  N_28
REMARK                            x       y       z     vdW  Elec       q    Type
REMARK                         _______ _______ _______ _____ _____    ______ ____
ROOT
ATOM      1  C   UNL     1      -0.513   1.424  -4.808  0.00  0.00    +0.229 C 
ATOM      2  O   UNL     1       0.481   0.741  -4.933  0.00  0.00    -0.274 OA
ATOM      3  N   UNL     1      -0.966   1.736  -3.578  0.00  0.00    -0.234 N 
ATOM      4  H   UNL     1      -1.761   2.283  -3.479  0.00  0.00    +0.173 HD
ENDROOT
BRANCH   3   5
ATOM      5  N   UNL     1      -0.288   1.272  -2.443  0.00  0.00    -0.234 N 
ATOM      6  C   UNL     1      -0.742   1.585  -1.213  0.00  0.00    +0.239 C 
ATOM      7  O   UNL     1      -1.736   2.268  -1.088  0.00  0.00    -0.273 OA
ATOM      8  H   UNL     1       0.507   0.726  -2.543  0.00  0.00    +0.173 HD
BRANCH   6   9
ATOM      9  C   UNL     1      -0.013   1.086   0.008  0.00  0.00    +0.171 C 
BRANCH   9  10
ATOM     10  S   UNL     1      -0.862   1.671   1.500  0.00  0.00    -0.114 S 
BRANCH  10  11
ATOM     11  C   UNL     1       0.099   1.013   2.823  0.00  0.00    +0.028 A 
ATOM     12  C   UNL     1       1.218   0.236   2.551  0.00  0.00    +0.036 A 
ATOM     13  C   UNL     1       1.972  -0.274   3.591  0.00  0.00    +0.042 A 
ATOM     14  C   UNL     1       1.607  -0.022   4.902  0.00  0.00    +0.021 A 
ATOM     15  C   UNL     1       0.490   0.746   5.176  0.00  0.00    +0.022 A 
ATOM     16  C   UNL     1      -0.266   1.264   4.141  0.00  0.00    +0.054 A 
ATOM     17 CL   UNL     1      -1.667   2.229   4.487  0.00  0.00    -0.082 Cl
ATOM     18 CL   UNL     1       3.375  -1.239   3.252  0.00  0.00    -0.084 Cl
ENDBRANCH  10  11
ENDBRANCH   9  10
ENDBRANCH   6   9
ENDBRANCH   3   5
BRANCH   1  19
ATOM     19  C   UNL     1      -1.242   1.923  -6.029  0.00  0.00    +0.102 C 
BRANCH  19  20
ATOM     20  C   UNL     1      -0.526   1.429  -7.288  0.00  0.00    +0.044 C 
BRANCH  20  26
ATOM     21  C   UNL     1      -2.263   1.168  -9.071  0.00  0.00    +0.005 A 
ATOM     22  C   UNL     1      -2.934   1.628 -10.188  0.00  0.00    +0.029 A 
ATOM     23  C   UNL     1      -2.591   2.844 -10.749  0.00  0.00    +0.105 A 
ATOM     24  C   UNL     1      -1.580   3.602 -10.190  0.00  0.00    +0.029 A 
ATOM     25  C   UNL     1      -0.911   3.144  -9.070  0.00  0.00    +0.005 A 
ATOM     26  C   UNL     1      -1.254   1.929  -8.509  0.00  0.00    -0.047 A 
BRANCH  23  27
ATOM     27  S   UNL     1      -3.445   3.429 -12.176  0.00  0.00    +0.056 S 
ATOM     28  O   UNL     1      -4.713   2.789 -12.181  0.00  0.00    -0.153 OA
ATOM     29  O   UNL     1      -3.304   4.843 -12.182  0.00  0.00    -0.153 OA
BRANCH  27  30
ATOM     30  N   UNL     1      -2.626   2.866 -13.500  0.00  0.00    -0.204 NA
ATOM     31  H   UNL     1      -3.103   2.684 -14.325  0.00  0.00    +0.144 HD
ATOM     32  H   UNL     1      -1.668   2.719 -13.452  0.00  0.00    +0.144 HD
ENDBRANCH  27  30
ENDBRANCH  23  27
ENDBRANCH  20  26
ENDBRANCH  19  20
ENDBRANCH   1  19
TORSDOF 9
