REMARK  Name = ZINC38679344
REMARK  15 active torsions:
REMARK  status: ('A' for Active; 'I' for Inactive)
REMARK    1  A    between atoms: C_1  and  C_2
REMARK    2  A    between atoms: C_2  and  O_3
REMARK    3  A    between atoms: O_3  and  C_4
REMARK    4  A    between atoms: C_8  and  C_10
REMARK    5  A    between atoms: C_10  and  O_12
REMARK    6  A    between atoms: O_12  and  C_13
REMARK    7  A    between atoms: C_20  and  N_38
REMARK    8  A    between atoms: C_21  and  C_36
REMARK    9  A    between atoms: C_22  and  C_24
REMARK   10  A    between atoms: C_27  and  O_33
REMARK   11  A    between atoms: C_28  and  O_30
REMARK   12  A    between atoms: O_30  and  C_31
REMARK   13  A    between atoms: C_31  and  C_32
REMARK   14  A    between atoms: O_33  and  C_34
REMARK   15  A    between atoms: C_34  and  C_35
REMARK                            x       y       z     vdW  Elec       q    Type
REMARK                         _______ _______ _______ _____ _____    ______ ____
ROOT
ATOM      1  C   UNL     1       3.020  -6.210   4.908  0.00  0.00    +0.135 A 
ATOM      2  C   UNL     1       3.546  -5.415   5.917  0.00  0.00    +0.047 A 
ATOM      3  C   UNL     1       4.215  -5.995   6.976  0.00  0.00    +0.012 A 
ATOM      4  C   UNL     1       4.364  -7.370   7.037  0.00  0.00    +0.008 A 
ATOM      5  C   UNL     1       3.841  -8.169   6.033  0.00  0.00    +0.138 A 
ATOM      6  C   UNL     1       3.163  -7.587   4.970  0.00  0.00    +0.093 A 
ATOM      7  O   UNL     1       3.977  -9.517   6.075  0.00  0.00    -0.441 OA
ATOM      8  C   UNL     1       4.265 -10.126   7.237  0.00  0.00    +0.199 C 
ATOM      9  C   UNL     1       4.798  -9.454   8.285  0.00  0.00    +0.098 C 
ATOM     10  C   UNL     1       5.097  -7.984   8.200  0.00  0.00    +0.098 C 
ENDROOT
BRANCH  10  11
ATOM     11  C   UNL     1       6.580  -7.786   8.016  0.00  0.00    -0.031 A 
ATOM     12  C   UNL     1       7.212  -8.305   6.902  0.00  0.00    +0.008 A 
ATOM     13  C   UNL     1       8.571  -8.127   6.728  0.00  0.00    +0.050 A 
ATOM     14  C   UNL     1       9.304  -7.426   7.673  0.00  0.00    +0.162 A 
ATOM     15  C   UNL     1       8.668  -6.903   8.794  0.00  0.00    +0.162 A 
ATOM     16  C   UNL     1       7.304  -7.081   8.960  0.00  0.00    +0.054 A 
BRANCH  15  17
ATOM     17  O   UNL     1       9.382  -6.214   9.724  0.00  0.00    -0.489 OA
BRANCH  17  18
ATOM     18  C   UNL     1       8.663  -5.706  10.850  0.00  0.00    +0.226 C 
ATOM     19  C   UNL     1       9.627  -4.966  11.779  0.00  0.00    +0.048 C 
ENDBRANCH  17  18
ENDBRANCH  15  17
BRANCH  14  20
ATOM     20  O   UNL     1      10.642  -7.249   7.504  0.00  0.00    -0.489 OA
BRANCH  20  21
ATOM     21  C   UNL     1      11.227  -7.814   6.329  0.00  0.00    +0.226 C 
ATOM     22  C   UNL     1      12.728  -7.515   6.313  0.00  0.00    +0.048 C 
ENDBRANCH  20  21
ENDBRANCH  14  20
ENDBRANCH  10  11
BRANCH   8  23
ATOM     23  N   UNL     1       4.011 -11.469   7.366  0.00  0.00    -0.328 N 
ATOM     24  H   UNL     1       3.630 -11.964   6.625  0.00  0.00    +0.145 HD
ATOM     25  H   UNL     1       4.213 -11.923   8.200  0.00  0.00    +0.145 HD
ENDBRANCH   8  23
BRANCH   9  26
ATOM     26  C   UNL     1       5.082 -10.159   9.499  0.00  0.00    +0.101 C 
ATOM     27  N   UNL     1       5.307 -10.718  10.462  0.00  0.00    -0.191 NA
ENDBRANCH   9  26
BRANCH   1  28
ATOM     28  O   UNL     1       2.362  -5.640   3.865  0.00  0.00    -0.422 OA
BRANCH  28  29
ATOM     29  C   UNL     1       3.096  -5.053   2.899  0.00  0.00    +0.345 C 
ATOM     30  O   UNL     1       4.301  -4.966   3.020  0.00  0.00    -0.245 OA
BRANCH  29  35
ATOM     31  C   UNL     1       2.564  -3.407  -0.438  0.00  0.00    +0.121 A 
ATOM     32  C   UNL     1       1.185  -3.510  -0.570  0.00  0.00    +0.046 A 
ATOM     33  C   UNL     1       0.434  -4.112   0.422  0.00  0.00    +0.004 A 
ATOM     34  C   UNL     1       1.048  -4.615   1.550  0.00  0.00    +0.015 A 
ATOM     35  C   UNL     1       2.434  -4.516   1.692  0.00  0.00    +0.063 A 
ATOM     36  C   UNL     1       3.192  -3.913   0.687  0.00  0.00    +0.060 A 
BRANCH  31  37
ATOM     37  O   UNL     1       3.298  -2.814  -1.417  0.00  0.00    -0.492 OA
BRANCH  37  39
ATOM     38  C   UNL     1       3.571  -1.687  -3.537  0.00  0.00    +0.048 C 
ATOM     39  C   UNL     1       2.584  -2.314  -2.550  0.00  0.00    +0.225 C 
ENDBRANCH  37  39
ENDBRANCH  31  37
ENDBRANCH  29  35
ENDBRANCH  28  29
ENDBRANCH   1  28
TORSDOF 12
