REMARK  Name = ZINC63948689
REMARK  3 active torsions:
REMARK  status: ('A' for Active; 'I' for Inactive)
REMARK    1  A    between atoms: C_6  and  C_11
REMARK    2  A    between atoms: C_17  and  C_20
REMARK    3  A    between atoms: N_22  and  C_23
REMARK                            x       y       z     vdW  Elec       q    Type
REMARK                         _______ _______ _______ _____ _____    ______ ____
ROOT
ATOM      1  C   UNL     1       3.659  -2.756   1.195  0.00  0.00    +0.242 C 
ATOM      2  O   UNL     1       4.341  -2.163   2.004  0.00  0.00    -0.273 OA
ATOM      3  N   UNL     1       3.361  -4.056   1.387  0.00  0.00    -0.299 N 
ATOM      4  C   UNL     1       2.541  -4.788   0.413  0.00  0.00    +0.108 C 
ATOM      5  C   UNL     1       1.365  -5.438   1.148  0.00  0.00    +0.020 C 
ATOM      6  C   UNL     1       1.898  -6.300   2.294  0.00  0.00    +0.016 C 
ATOM      7  C   UNL     1       2.660  -5.418   3.286  0.00  0.00    +0.093 C 
ATOM      8  C   UNL     1       3.855  -4.769   2.573  0.00  0.00    +0.120 C 
ENDROOT
BRANCH   1  14
ATOM      9  C   UNL     1       0.002   1.378   0.049  0.00  0.00    +0.001 A 
ATOM     10  C   UNL     1       1.188   2.126   0.040  0.00  0.00    +0.002 A 
ATOM     11  C   UNL     1       2.410   1.554   0.018  0.00  0.00    +0.026 A 
ATOM     12  C   UNL     1       2.541   0.138   0.003  0.00  0.00    +0.043 A 
ATOM     13  N   UNL     1       3.595  -0.641  -0.019  0.00  0.00    -0.370 N 
ATOM     14  C   UNL     1       3.145  -2.038  -0.026  0.00  0.00    +0.190 C 
ATOM     15  C   UNL     1       1.633  -1.986  -0.005  0.00  0.00    +0.016 C 
ATOM     16  C   UNL     1       1.303  -0.675   0.013  0.00  0.00    -0.004 A 
ATOM     17  C   UNL     1       0.014   0.026   0.037  0.00  0.00    +0.010 A 
ATOM     18  H   UNL     1       4.518  -0.344  -0.030  0.00  0.00    +0.161 HD
ENDBRANCH   1  14
BRANCH   7  19
ATOM     19  C   UNL     1       3.156  -6.262   4.432  0.00  0.00    +0.222 C 
ATOM     20  O   UNL     1       4.345  -6.335   4.661  0.00  0.00    -0.275 OA
ATOM     21  N   UNL     1       2.279  -6.936   5.202  0.00  0.00    -0.285 N 
ATOM     22  H   UNL     1       1.325  -6.824   5.062  0.00  0.00    +0.155 HD
BRANCH  21  23
ATOM     23  C   UNL     1       2.744  -7.795   6.204  0.00  0.00    +0.034 A 
ATOM     24  C   UNL     1       2.055  -8.967   6.490  0.00  0.00    +0.023 A 
ATOM     25  C   UNL     1       2.516  -9.814   7.479  0.00  0.00    +0.003 A 
ATOM     26  C   UNL     1       3.662  -9.496   8.185  0.00  0.00    +0.015 A 
ATOM     27  C   UNL     1       4.349  -8.329   7.904  0.00  0.00    +0.020 A 
ATOM     28  C   UNL     1       3.897  -7.481   6.910  0.00  0.00    +0.038 A 
ATOM     29 BR   UNL     1       5.915  -7.898   8.873  0.00  0.00    -0.050 Br
ENDBRANCH  21  23
ENDBRANCH   7  19
TORSDOF 3
