REMARK  Name = ZINC36862616
REMARK  6 active torsions:
REMARK  status: ('A' for Active; 'I' for Inactive)
REMARK    1  A    between atoms: C_1  and  C_2
REMARK    2  A    between atoms: C_2  and  C_3
REMARK    3  A    between atoms: C_2  and  N_4
REMARK    4  A    between atoms: C_6  and  N_21
REMARK    5  A    between atoms: C_8  and  C_9
REMARK    6  A    between atoms: N_11  and  C_12
REMARK                            x       y       z     vdW  Elec       q    Type
REMARK                         _______ _______ _______ _____ _____    ______ ____
ROOT
ATOM      1  C   UNL     1      -1.648  -1.100  -2.630  0.00  0.00    +0.265 C 
ATOM      2  O   UNL     1      -0.764  -0.446  -3.151  0.00  0.00    -0.268 OA
ATOM      3  N   UNL     1      -2.083  -2.233  -3.216  0.00  0.00    -0.278 N 
ATOM      4  H   UNL     1      -2.822  -2.727  -2.828  0.00  0.00    +0.155 HD
ENDROOT
BRANCH   3   5
ATOM      5  C   UNL     1      -1.468  -2.696  -4.385  0.00  0.00    +0.062 A 
ATOM      6  C   UNL     1      -0.083  -2.714  -4.483  0.00  0.00    +0.041 A 
ATOM      7  C   UNL     1       0.521  -3.172  -5.638  0.00  0.00    +0.032 A 
ATOM      8  C   UNL     1      -0.253  -3.612  -6.697  0.00  0.00    +0.020 A 
ATOM      9  C   UNL     1      -1.633  -3.595  -6.603  0.00  0.00    +0.032 A 
ATOM     10  C   UNL     1      -2.243  -3.144  -5.448  0.00  0.00    +0.041 A 
ATOM     11 BR   UNL     1      -4.129  -3.130  -5.317  0.00  0.00    -0.048 Br
ATOM     12 BR   UNL     1       0.578  -4.237  -8.277  0.00  0.00    -0.050 Br
ATOM     13 BR   UNL     1       0.976  -2.111  -3.036  0.00  0.00    -0.048 Br
ENDBRANCH   3   5
BRANCH   1  18
ATOM     14  N   UNL     1      -1.968   0.524  -0.710  0.00  0.00    -0.339 N 
ATOM     15  C   UNL     1      -2.717   0.576   0.424  0.00  0.00    +0.109 A 
ATOM     16  C   UNL     1      -3.462  -0.558   0.508  0.00  0.00    +0.043 A 
ATOM     17  C   UNL     1      -3.168  -1.347  -0.612  0.00  0.00    +0.055 A 
ATOM     18  C   UNL     1      -2.240  -0.656  -1.364  0.00  0.00    +0.107 A 
BRANCH  14  20
ATOM     19  C   UNL     1      -1.803   2.836  -1.491  0.00  0.00    +0.030 C 
ATOM     20  C   UNL     1      -1.032   1.555  -1.163  0.00  0.00    +0.081 C 
ATOM     21  C   UNL     1      -0.014   1.842  -0.057  0.00  0.00    +0.030 C 
ENDBRANCH  14  20
BRANCH  16  22
ATOM     22  N   UNL     1      -4.366  -0.882   1.537  0.00  0.00    -0.357 N 
ATOM     23  H   UNL     1      -4.501  -0.267   2.275  0.00  0.00    +0.142 HD
ATOM     24  H   UNL     1      -4.853  -1.720   1.508  0.00  0.00    +0.142 HD
ENDBRANCH  16  22
ENDBRANCH   1  18
TORSDOF 4
