REMARK  Name = ZINC13268578
REMARK  9 active torsions:
REMARK  status: ('A' for Active; 'I' for Inactive)
REMARK    1  A    between atoms: C_1  and  C_2
REMARK    2  A    between atoms: C_3  and  C_14
REMARK    3  A    between atoms: C_4  and  C_13
REMARK    4  A    between atoms: N_5  and  C_7
REMARK    5  A    between atoms: C_16  and  C_34
REMARK    6  A    between atoms: C_17  and  C_24
REMARK    7  A    between atoms: C_27  and  O_30
REMARK    8  A    between atoms: O_30  and  C_31
REMARK    9  A    between atoms: C_31  and  C_32
REMARK                            x       y       z     vdW  Elec       q    Type
REMARK                         _______ _______ _______ _____ _____    ______ ____
ROOT
ATOM      1  C   UNL     1       1.663   1.647   2.999  0.00  0.00    +0.173 C 
ATOM      2  C   UNL     1       1.923   0.199   2.681  0.00  0.00    -0.022 C 
ATOM      3  C   UNL     1       2.421  -0.216   1.524  0.00  0.00    +0.042 C 
ATOM      4  N   UNL     1       2.756   0.675   0.496  0.00  0.00    -0.282 N 
ATOM      5  C   UNL     1       2.794   2.023   0.818  0.00  0.00    +0.240 A 
ATOM      6  N   UNL     1       2.291   2.491   1.990  0.00  0.00    -0.201 N 
ATOM      7  N   UNL     1       2.513   3.867   1.968  0.00  0.00    -0.042 NA
ATOM      8  N   UNL     1       3.099   4.127   0.844  0.00  0.00    -0.021 NA
ATOM      9  N   UNL     1       3.266   3.045   0.163  0.00  0.00    -0.092 NA
ATOM     10  C   UNL     1       1.601  -0.832   3.731  0.00  0.00    +0.043 C 
ATOM     11  H   UNL     1       2.952   0.363  -0.401  0.00  0.00    +0.155 HD
ENDROOT
BRANCH   1  14
ATOM     12  C   UNL     1      -0.316   1.222   0.560  0.00  0.00    +0.068 C 
ATOM     13  C   UNL     1      -0.697   1.712   1.934  0.00  0.00    +0.066 A 
ATOM     14  C   UNL     1       0.177   1.899   3.010  0.00  0.00    +0.025 A 
ATOM     15  C   UNL     1      -0.547   2.347   4.062  0.00  0.00    +0.048 A 
ATOM     16  N   UNL     1      -1.836   2.440   3.665  0.00  0.00    -0.236 N 
ATOM     17  N   UNL     1      -1.903   2.041   2.323  0.00  0.00    -0.171 NA
ATOM     18  C   UNL     1      -0.012   2.681   5.431  0.00  0.00    +0.066 C 
BRANCH  16  19
ATOM     19  C   UNL     1      -2.914   2.865   4.454  0.00  0.00    +0.066 A 
ATOM     20  C   UNL     1      -4.130   2.199   4.388  0.00  0.00    +0.028 A 
ATOM     21  C   UNL     1      -5.188   2.616   5.171  0.00  0.00    +0.002 A 
ATOM     22  C   UNL     1      -5.041   3.704   6.011  0.00  0.00    +0.000 A 
ATOM     23  C   UNL     1      -3.833   4.374   6.075  0.00  0.00    +0.002 A 
ATOM     24  C   UNL     1      -2.769   3.957   5.298  0.00  0.00    +0.028 A 
ENDBRANCH  16  19
ENDBRANCH   1  14
BRANCH   3  25
ATOM     25  C   UNL     1       2.631  -1.666   1.313  0.00  0.00    -0.004 A 
ATOM     26  C   UNL     1       3.867  -2.136   0.869  0.00  0.00    +0.013 A 
ATOM     27  C   UNL     1       4.061  -3.488   0.678  0.00  0.00    +0.046 A 
ATOM     28  C   UNL     1       3.024  -4.380   0.916  0.00  0.00    +0.121 A 
ATOM     29  C   UNL     1       1.790  -3.915   1.353  0.00  0.00    +0.046 A 
ATOM     30  C   UNL     1       1.591  -2.565   1.551  0.00  0.00    +0.013 A 
BRANCH  28  31
ATOM     31  O   UNL     1       3.216  -5.711   0.722  0.00  0.00    -0.481 OA
BRANCH  31  32
ATOM     32  C   UNL     1       4.510  -6.120   0.273  0.00  0.00    +0.353 C 
BRANCH  32  33
ATOM     33  C   UNL     1       4.535  -7.619   0.115  0.00  0.00    +0.393 C 
ATOM     34  O   UNL     1       3.547  -8.269   0.362  0.00  0.00    -0.243 OA
ATOM     35  O   UNL     1       5.655  -8.231  -0.300  0.00  0.00    -0.243 OA
ENDBRANCH  32  33
ENDBRANCH  31  32
ENDBRANCH  28  31
ENDBRANCH   3  25
TORSDOF 6
