REMARK  Name = ZINC13115933
REMARK  9 active torsions:
REMARK  status: ('A' for Active; 'I' for Inactive)
REMARK    1  A    between atoms: C_1  and  C_2
REMARK    2  A    between atoms: C_2  and  C_3
REMARK    3  A    between atoms: C_2  and  N_4
REMARK    4  A    between atoms: N_7  and  C_8
REMARK    5  A    between atoms: N_7  and  O_27
REMARK    6  A    between atoms: C_10  and  C_25
REMARK    7  A    between atoms: C_10  and  C_26
REMARK    8  A    between atoms: N_14  and  C_15
REMARK    9  A    between atoms: C_15  and  C_16
REMARK                            x       y       z     vdW  Elec       q    Type
REMARK                         _______ _______ _______ _____ _____    ______ ____
ROOT
ATOM      1  C   UNL     1       3.953  -0.785  -2.331  0.00  0.00    +0.210 C 
ATOM      2  C   UNL     1       4.437  -1.811  -3.389  0.00  0.00    +0.054 C 
ATOM      3  S   UNL     1       4.692  -3.262  -2.282  0.00  0.00    -0.093 S 
ATOM      4  C   UNL     1       4.844  -2.380  -0.737  0.00  0.00    +0.112 C 
ATOM      5  S   UNL     1       5.389  -2.998   0.763  0.00  0.00    -0.028 S 
ATOM      6  N   UNL     1       4.439  -1.125  -1.006  0.00  0.00    -0.293 N 
ATOM      7  C   UNL     1       5.747  -1.366  -4.042  0.00  0.00    +0.026 C 
ATOM      8  C   UNL     1       3.358  -2.087  -4.438  0.00  0.00    +0.026 C 
ENDROOT
BRANCH   1  12
ATOM      9  N   UNL     1       0.463  -1.798  -1.774  0.00  0.00    -0.295 N 
ATOM     10  C   UNL     1       1.806  -1.845  -1.875  0.00  0.00    +0.327 C 
ATOM     11  O   UNL     1       2.404  -2.859  -1.569  0.00  0.00    -0.250 OA
ATOM     12  N   UNL     1       2.488  -0.768  -2.314  0.00  0.00    -0.145 N 
ATOM     13  H   UNL     1      -0.019  -1.015  -2.083  0.00  0.00    +0.151 HD
BRANCH   9  15
ATOM     14  C   UNL     1      -0.387  -2.739   0.317  0.00  0.00    +0.027 C 
ATOM     15  C   UNL     1      -0.268  -2.928  -1.196  0.00  0.00    +0.068 C 
ATOM     16  C   UNL     1      -1.667  -2.999  -1.813  0.00  0.00    +0.027 C 
ENDBRANCH   9  15
BRANCH  12  17
ATOM     17  O   UNL     1       1.788   0.379  -2.761  0.00  0.00    -0.290 OA
ATOM     18  H   UNL     1       2.357   1.069  -3.128  0.00  0.00    +0.242 HD
ENDBRANCH  12  17
ENDBRANCH   1  12
BRANCH   6  19
ATOM     19  C   UNL     1       4.489  -0.102   0.041  0.00  0.00    +0.143 C 
BRANCH  19  20
ATOM     20  C   UNL     1       3.235  -0.174   0.874  0.00  0.00    -0.026 A 
ATOM     21  C   UNL     1       2.097   0.497   0.465  0.00  0.00    +0.009 A 
ATOM     22  C   UNL     1       0.943   0.434   1.225  0.00  0.00    +0.050 A 
ATOM     23  C   UNL     1       0.926  -0.302   2.399  0.00  0.00    +0.166 A 
ATOM     24  C   UNL     1       2.072  -0.977   2.810  0.00  0.00    +0.167 A 
ATOM     25  C   UNL     1       3.222  -0.914   2.041  0.00  0.00    +0.054 A 
ATOM     26  O   UNL     1       1.802  -1.621   3.983  0.00  0.00    -0.453 OA
ATOM     27  C   UNL     1       0.607  -1.001   4.495  0.00  0.00    +0.466 C 
ATOM     28  O   UNL     1      -0.063  -0.522   3.314  0.00  0.00    -0.453 OA
ENDBRANCH  19  20
ENDBRANCH   6  19
TORSDOF 5
