REMARK  Name = ZINC17707166
REMARK  9 active torsions:
REMARK  status: ('A' for Active; 'I' for Inactive)
REMARK    1  A    between atoms: C_1  and  C_2
REMARK    2  A    between atoms: N_13  and  C_26
REMARK    3  A    between atoms: C_14  and  S_16
REMARK    4  A    between atoms: S_16  and  C_17
REMARK    5  A    between atoms: C_17  and  C_18
REMARK    6  A    between atoms: C_26  and  C_27
REMARK    7  A    between atoms: C_27  and  C_28
REMARK    8  A    between atoms: C_28  and  C_29
REMARK    9  A    between atoms: C_28  and  C_30
REMARK                            x       y       z     vdW  Elec       q    Type
REMARK                         _______ _______ _______ _____ _____    ______ ____
ROOT
ATOM      1  C   UNL     1       0.228 -10.479  -1.088  0.00  0.00    +0.008 C 
ATOM      2  C   UNL     1       0.500  -9.091  -0.504  0.00  0.00    -0.009 C 
ATOM      3  C   UNL     1      -0.327  -8.895   0.770  0.00  0.00    +0.008 C 
ATOM      4  C   UNL     1       0.121  -7.623   1.490  0.00  0.00    +0.037 C 
ATOM      5  C   UNL     1       0.096  -6.461   0.501  0.00  0.00    -0.023 A 
ATOM      6  C   UNL     1       0.085  -6.688  -0.828  0.00  0.00    -0.004 A 
ATOM      7  S   UNL     1       0.055  -5.079  -1.571  0.00  0.00    -0.073 S 
ATOM      8  C   UNL     1       0.056  -4.102  -0.088  0.00  0.00    +0.117 A 
ATOM      9  C   UNL     1       0.080  -5.063   0.936  0.00  0.00    +0.076 A 
ATOM     10  C   UNL     1       0.086  -4.550   2.272  0.00  0.00    +0.263 A 
ATOM     11  O   UNL     1       0.104  -5.309   3.225  0.00  0.00    -0.267 OA
ATOM     12  N   UNL     1       0.069  -3.218   2.461  0.00  0.00    -0.287 N 
ATOM     13  C   UNL     1       0.047  -2.353   1.406  0.00  0.00    +0.173 A 
ATOM     14  N   UNL     1       0.036  -2.799   0.166  0.00  0.00    -0.216 NA
ATOM     15  C   UNL     1       0.098  -8.016  -1.523  0.00  0.00    +0.046 C 
ENDROOT
BRANCH  13  16
ATOM     16  S   UNL     1       0.026  -0.617   1.705  0.00  0.00    -0.080 S 
BRANCH  16  17
ATOM     17  C   UNL     1       0.002  -0.004   0.002  0.00  0.00    +0.153 C 
BRANCH  17  18
ATOM     18  C   UNL     1      -0.018   1.503   0.010  0.00  0.00    +0.146 A 
ATOM     19  N   UNL     1      -1.173   2.146   0.019  0.00  0.00    -0.199 NA
ATOM     20  C   UNL     1      -1.195   3.477   0.032  0.00  0.00    +0.217 A 
ATOM     21  N   UNL     1      -0.054   4.159   0.025  0.00  0.00    -0.181 NA
ATOM     22  C   UNL     1       1.104   3.508   0.010  0.00  0.00    +0.217 A 
ATOM     23  N   UNL     1       1.118   2.177   0.003  0.00  0.00    -0.199 NA
ATOM     24  N   UNL     1       2.291   4.212   0.002  0.00  0.00    -0.327 N 
ATOM     25  N   UNL     1      -2.401   4.148   0.047  0.00  0.00    -0.327 N 
ATOM     26  H   UNL     1       3.137   3.736  -0.009  0.00  0.00    +0.145 HD
ATOM     27  H   UNL     1       2.280   5.182   0.008  0.00  0.00    +0.145 HD
ATOM     28  H   UNL     1      -2.416   5.118   0.053  0.00  0.00    +0.145 HD
ATOM     29  H   UNL     1      -3.233   3.650   0.052  0.00  0.00    +0.145 HD
ENDBRANCH  17  18
ENDBRANCH  16  17
ENDBRANCH  13  16
BRANCH  12  30
ATOM     30  C   UNL     1       0.074  -2.686   3.826  0.00  0.00    +0.127 C 
BRANCH  30  31
ATOM     31  C   UNL     1      -1.366  -2.521   4.314  0.00  0.00    +0.025 C 
BRANCH  31  32
ATOM     32  C   UNL     1      -1.361  -1.965   5.740  0.00  0.00    -0.016 C 
ATOM     33  C   UNL     1      -2.798  -1.683   6.183  0.00  0.00    +0.007 C 
ATOM     34  C   UNL     1      -0.728  -2.990   6.684  0.00  0.00    +0.007 C 
ENDBRANCH  31  32
ENDBRANCH  30  31
ENDBRANCH  12  30
TORSDOF 6
