REMARK  Name = ZINC45630040
REMARK  5 active torsions:
REMARK  status: ('A' for Active; 'I' for Inactive)
REMARK    1  A    between atoms: C_2  and  C_3
REMARK    2  A    between atoms: C_3  and  N_4
REMARK    3  A    between atoms: C_17  and  S_18
REMARK    4  A    between atoms: S_18  and  C_19
REMARK    5  A    between atoms: C_19  and  C_20
REMARK                            x       y       z     vdW  Elec       q    Type
REMARK                         _______ _______ _______ _____ _____    ______ ____
ROOT
ATOM      1  N   UNL     1      -1.318  -1.700  -1.126  0.00  0.00    -0.273 N 
ATOM      2  C   UNL     1      -1.822  -1.287  -2.307  0.00  0.00    +0.263 A 
ATOM      3  O   UNL     1      -2.255  -0.157  -2.433  0.00  0.00    -0.267 OA
ATOM      4  C   UNL     1      -1.840  -2.229  -3.441  0.00  0.00    +0.064 A 
ATOM      5  C   UNL     1      -2.349  -1.855  -4.683  0.00  0.00    +0.015 A 
ATOM      6  C   UNL     1      -2.349  -2.764  -5.721  0.00  0.00    +0.001 A 
ATOM      7  C   UNL     1      -1.845  -4.042  -5.532  0.00  0.00    +0.002 A 
ATOM      8  C   UNL     1      -1.339  -4.424  -4.306  0.00  0.00    +0.027 A 
ATOM      9  C   UNL     1      -1.331  -3.522  -3.252  0.00  0.00    +0.064 A 
ATOM     10  N   UNL     1      -0.824  -3.881  -2.005  0.00  0.00    -0.256 N 
ATOM     11  C   UNL     1      -0.817  -2.983  -0.972  0.00  0.00    +0.240 A 
ATOM     12  N   UNL     1      -0.285  -3.578   0.072  0.00  0.00    -0.109 NA
ATOM     13  N   UNL     1       0.061  -4.883  -0.298  0.00  0.00    -0.120 NA
ATOM     14  C   UNL     1      -0.278  -5.052  -1.552  0.00  0.00    +0.198 A 
ENDROOT
BRANCH   1  15
ATOM     15  C   UNL     1      -1.293  -0.775   0.010  0.00  0.00    +0.155 C 
BRANCH  15  17
ATOM     16  C   UNL     1      -0.016   1.306   0.009  0.00  0.00    +0.005 C 
ATOM     17  C   UNL     1       0.002  -0.004   0.002  0.00  0.00    -0.013 C 
ENDBRANCH  15  17
ENDBRANCH   1  15
BRANCH  14  18
ATOM     18  S   UNL     1      -0.054  -6.523  -2.496  0.00  0.00    -0.076 S 
BRANCH  18  19
ATOM     19  C   UNL     1       0.709  -7.683  -1.328  0.00  0.00    +0.173 C 
BRANCH  19  20
ATOM     20  C   UNL     1       0.957  -9.000  -2.017  0.00  0.00    +0.230 C 
ATOM     21  O   UNL     1       0.650  -9.142  -3.181  0.00  0.00    -0.274 OA
ATOM     22  N   UNL     1       1.520 -10.019  -1.339  0.00  0.00    -0.255 N 
ATOM     23  C   UNL     1       1.748 -11.229  -1.972  0.00  0.00    +0.200 A 
ATOM     24  N   UNL     1       1.450 -11.500  -3.276  0.00  0.00    -0.326 N 
ATOM     25  H   UNL     1       1.047 -10.890  -3.913  0.00  0.00    +0.169 HD
ATOM     26  C   UNL     1       1.829 -12.809  -3.520  0.00  0.00    +0.067 A 
ATOM     27  C   UNL     1       1.779 -13.633  -4.635  0.00  0.00    +0.028 A 
ATOM     28  C   UNL     1       2.251 -14.927  -4.554  0.00  0.00    +0.002 A 
ATOM     29  C   UNL     1       2.776 -15.410  -3.364  0.00  0.00    +0.002 A 
ATOM     30  C   UNL     1       2.834 -14.606  -2.248  0.00  0.00    +0.030 A 
ATOM     31  C   UNL     1       2.360 -13.293  -2.313  0.00  0.00    +0.091 A 
ATOM     32  N   UNL     1       2.288 -12.281  -1.410  0.00  0.00    -0.214 NA
ATOM     33  H   UNL     1       1.766  -9.905  -0.407  0.00  0.00    +0.158 HD
ENDBRANCH  19  20
ENDBRANCH  18  19
ENDBRANCH  14  18
TORSDOF 5
