REMARK  Name = ZINC09126232
REMARK  12 active torsions:
REMARK  status: ('A' for Active; 'I' for Inactive)
REMARK    1  A    between atoms: C_1  and  C_2
REMARK    2  A    between atoms: C_3  and  C_7
REMARK    3  A    between atoms: C_10  and  S_15
REMARK    4  A    between atoms: N_11  and  C_12
REMARK    5  A    between atoms: C_12  and  C_13
REMARK    6  A    between atoms: S_15  and  C_16
REMARK    7  A    between atoms: C_16  and  C_17
REMARK    8  A    between atoms: C_17  and  C_19
REMARK    9  A    between atoms: C_20  and  N_35
REMARK   10  A    between atoms: N_21  and  C_28
REMARK   11  A    between atoms: N_24  and  C_27
REMARK   12  A    between atoms: C_28  and  C_29
REMARK                            x       y       z     vdW  Elec       q    Type
REMARK                         _______ _______ _______ _____ _____    ______ ____
ROOT
ATOM      1  C   UNL     1      -0.654   4.905   6.633  0.00  0.00    +0.120 A 
ATOM      2  C   UNL     1       0.065   5.912   7.301  0.00  0.00    +0.116 A 
ATOM      3  N   UNL     1      -0.209   6.159   8.616  0.00  0.00    -0.277 N 
ATOM      4  C   UNL     1      -1.147   5.461   9.276  0.00  0.00    +0.333 A 
ATOM      5  O   UNL     1      -1.354   5.719  10.445  0.00  0.00    -0.246 OA
ATOM      6  N   UNL     1      -1.866   4.489   8.691  0.00  0.00    -0.263 N 
ATOM      7  C   UNL     1      -1.674   4.172   7.394  0.00  0.00    +0.269 A 
ATOM      8  O   UNL     1      -2.331   3.294   6.865  0.00  0.00    -0.267 OA
ATOM      9  C   UNL     1      -2.875   3.767   9.470  0.00  0.00    +0.157 C 
ENDROOT
BRANCH   2  10
ATOM     10  N   UNL     1       1.020   6.628   6.648  0.00  0.00    -0.344 N 
ATOM     11  H   UNL     1       1.271   6.389   5.742  0.00  0.00    +0.144 HD
ATOM     12  H   UNL     1       1.449   7.378   7.088  0.00  0.00    +0.144 HD
ENDBRANCH   2  10
BRANCH   1  13
ATOM     13  C   UNL     1      -0.407   4.613   5.275  0.00  0.00    +0.182 C 
ATOM     14  O   UNL     1       0.501   5.168   4.690  0.00  0.00    -0.291 OA
BRANCH  13  15
ATOM     15  C   UNL     1      -1.271   3.613   4.551  0.00  0.00    +0.157 C 
BRANCH  15  16
ATOM     16  S   UNL     1      -0.708   3.458   2.838  0.00  0.00    -0.078 S 
BRANCH  16  20
ATOM     17  C   UNL     1      -2.966   0.863   0.984  0.00  0.00    +0.168 A 
ATOM     18  N   UNL     1      -3.471   0.873   2.195  0.00  0.00    -0.128 NA
ATOM     19  N   UNL     1      -2.822   1.698   2.935  0.00  0.00    -0.122 NA
ATOM     20  C   UNL     1      -1.858   2.262   2.244  0.00  0.00    +0.193 A 
ATOM     21  N   UNL     1      -1.913   1.748   0.979  0.00  0.00    -0.298 N 
BRANCH  17  24
ATOM     22  C   UNL     1      -3.680  -2.189   1.042  0.00  0.00    +0.087 C 
ATOM     23  C   UNL     1      -3.752  -1.272  -0.152  0.00  0.00    +0.112 A 
ATOM     24  C   UNL     1      -3.438   0.052  -0.159  0.00  0.00    +0.060 A 
ATOM     25  C   UNL     1      -3.658   0.506  -1.538  0.00  0.00    +0.053 A 
ATOM     26  C   UNL     1      -4.084  -0.571  -2.220  0.00  0.00    +0.196 A 
ATOM     27  O   UNL     1      -4.140  -1.622  -1.387  0.00  0.00    -0.467 OA
ENDBRANCH  17  24
BRANCH  21  28
ATOM     28  C   UNL     1      -1.038   2.076  -0.149  0.00  0.00    +0.152 C 
BRANCH  28  29
ATOM     29  C   UNL     1       0.203   1.222  -0.087  0.00  0.00    -0.013 C 
ATOM     30  C   UNL     1       1.381   1.786   0.008  0.00  0.00    +0.005 C 
ENDBRANCH  28  29
ENDBRANCH  21  28
ENDBRANCH  16  20
ENDBRANCH  15  16
ENDBRANCH  13  15
ENDBRANCH   1  13
BRANCH   3  31
ATOM     31  C   UNL     1       0.535   7.205   9.321  0.00  0.00    +0.163 C 
BRANCH  31  32
ATOM     32  C   UNL     1      -0.189   8.519   9.179  0.00  0.00    -0.028 A 
ATOM     33  C   UNL     1       0.101   9.357   8.118  0.00  0.00    +0.005 A 
ATOM     34  C   UNL     1      -0.567  10.560   7.985  0.00  0.00    +0.000 A 
ATOM     35  C   UNL     1      -1.517  10.930   8.919  0.00  0.00    +0.000 A 
ATOM     36  C   UNL     1      -1.803  10.094   9.982  0.00  0.00    +0.000 A 
ATOM     37  C   UNL     1      -1.139   8.889  10.112  0.00  0.00    +0.005 A 
ENDBRANCH  31  32
ENDBRANCH   3  31
TORSDOF 10
