REMARK  Name = ZINC38597927
REMARK  7 active torsions:
REMARK  status: ('A' for Active; 'I' for Inactive)
REMARK    1  A    between atoms: C_3  and  C_6
REMARK    2  A    between atoms: C_6  and  C_8
REMARK    3  A    between atoms: C_6  and  N_23
REMARK    4  A    between atoms: C_8  and  N_9
REMARK    5  A    between atoms: C_10  and  C_12
REMARK    6  A    between atoms: N_14  and  C_15
REMARK    7  A    between atoms: N_26  and  C_29
REMARK                            x       y       z     vdW  Elec       q    Type
REMARK                         _______ _______ _______ _____ _____    ______ ____
ROOT
ATOM      1  C   UNL     1       3.630   0.584  -0.097  0.00  0.00    +0.017 C 
ENDROOT
BRANCH   1   2
ATOM      2  N   UNL     1       3.993  -0.690  -0.733  0.00  0.00    +0.389 N 
ATOM      3  C   UNL     1       3.644  -0.640  -2.159  0.00  0.00    -0.059 C 
ATOM      4  C   UNL     1       3.915  -2.006  -2.798  0.00  0.00    +0.086 C 
ATOM      5  N   UNL     1       5.312  -2.378  -2.527  0.00  0.00    -0.333 N 
ATOM      6  C   UNL     1       5.795  -2.299  -1.139  0.00  0.00    +0.086 C 
ATOM      7  C   UNL     1       5.435  -0.919  -0.579  0.00  0.00    -0.059 C 
ATOM      8  H   UNL     1       3.485  -1.442  -0.291  0.00  0.00    -0.081 HD
BRANCH   5   9
ATOM      9  C   UNL     1       6.158  -2.796  -3.559  0.00  0.00    +0.030 A 
ATOM     10  C   UNL     1       7.434  -3.261  -3.268  0.00  0.00    +0.026 A 
ATOM     11  C   UNL     1       8.268  -3.673  -4.289  0.00  0.00    +0.040 A 
ATOM     12  C   UNL     1       7.832  -3.623  -5.603  0.00  0.00    +0.124 A 
ATOM     13  C   UNL     1       6.561  -3.159  -5.895  0.00  0.00    +0.040 A 
ATOM     14  C   UNL     1       5.722  -2.751  -4.877  0.00  0.00    +0.026 A 
ATOM     15  F   UNL     1       8.650  -4.026  -6.600  0.00  0.00    -0.205 F 
ENDBRANCH   5   9
ENDBRANCH   1   2
BRANCH   1  18
ATOM     16  C   UNL     1       0.116   1.654  -0.395  0.00  0.00    +0.041 A 
ATOM     17  C   UNL     1       1.502   1.931  -0.423  0.00  0.00    +0.043 A 
ATOM     18  C   UNL     1       2.137   0.773  -0.168  0.00  0.00    +0.093 A 
ATOM     19  O   UNL     1       1.214  -0.186   0.013  0.00  0.00    -0.469 OA
ATOM     20  C   UNL     1      -0.013   0.343  -0.123  0.00  0.00    +0.195 A 
ENDBRANCH   1  18
BRANCH   1  21
ATOM     21  C   UNL     1       4.073   0.567   1.367  0.00  0.00    +0.097 C 
BRANCH  21  22
ATOM     22  N   UNL     1       3.516  -0.613   2.033  0.00  0.00    -0.309 N 
ATOM     23  C   UNL     1       3.691  -0.785   3.358  0.00  0.00    +0.299 C 
ATOM     24  O   UNL     1       4.311   0.038   4.000  0.00  0.00    -0.265 OA
ATOM     25  H   UNL     1       3.021  -1.271   1.520  0.00  0.00    +0.149 HD
BRANCH  23  26
ATOM     26  C   UNL     1       3.123  -1.988   4.036  0.00  0.00    +0.303 C 
ATOM     27  O   UNL     1       2.504  -2.811   3.394  0.00  0.00    -0.265 OA
ATOM     28  N   UNL     1       3.299  -2.160   5.362  0.00  0.00    -0.275 N 
ATOM     29  H   UNL     1       3.852  -1.540   5.862  0.00  0.00    +0.155 HD
BRANCH  28  30
ATOM     30  C   UNL     1       2.683  -3.232   6.015  0.00  0.00    +0.072 A 
ATOM     31  C   UNL     1       2.514  -4.443   5.358  0.00  0.00    +0.064 A 
ATOM     32  C   UNL     1       1.905  -5.502   6.007  0.00  0.00    +0.125 A 
ATOM     33  C   UNL     1       1.464  -5.354   7.312  0.00  0.00    +0.041 A 
ATOM     34  C   UNL     1       1.630  -4.149   7.969  0.00  0.00    +0.043 A 
ATOM     35  C   UNL     1       2.243  -3.089   7.327  0.00  0.00    +0.145 A 
ATOM     36  F   UNL     1       2.410  -1.913   7.972  0.00  0.00    -0.204 F 
ATOM     37  F   UNL     1       1.740  -6.681   5.368  0.00  0.00    -0.205 F 
ENDBRANCH  28  30
ENDBRANCH  23  26
ENDBRANCH  21  22
ENDBRANCH   1  21
TORSDOF 7
