REMARK  Name = ZINC04462032
REMARK  8 active torsions:
REMARK  status: ('A' for Active; 'I' for Inactive)
REMARK    1  A    between atoms: C_1  and  O_2
REMARK    2  A    between atoms: O_2  and  C_3
REMARK    3  A    between atoms: C_6  and  N_12
REMARK    4  A    between atoms: C_7  and  N_9
REMARK    5  A    between atoms: C_13  and  C_15
REMARK    6  A    between atoms: C_15  and  O_16
REMARK    7  A    between atoms: O_16  and  C_17
REMARK    8  A    between atoms: C_17  and  C_19
REMARK                            x       y       z     vdW  Elec       q    Type
REMARK                         _______ _______ _______ _____ _____    ______ ____
ROOT
ATOM      1  N   UNL     1      -3.330   9.334   0.064  0.00  0.00    -0.281 N 
ATOM      2  C   UNL     1      -2.475   8.292   0.048  0.00  0.00    +0.255 C 
ATOM      3  O   UNL     1      -1.278   8.489   0.052  0.00  0.00    -0.272 OA
ATOM      4  H   UNL     1      -4.285   9.178  -0.004  0.00  0.00    +0.155 HD
ENDROOT
BRANCH   1   8
ATOM      5  C   UNL     1      -1.871  13.225   0.405  0.00  0.00    +0.122 A 
ATOM      6  C   UNL     1      -1.154  12.275  -0.310  0.00  0.00    +0.047 A 
ATOM      7  C   UNL     1      -1.637  10.987  -0.423  0.00  0.00    +0.029 A 
ATOM      8  C   UNL     1      -2.840  10.641   0.179  0.00  0.00    +0.064 A 
ATOM      9  C   UNL     1      -3.558  11.592   0.890  0.00  0.00    +0.151 A 
ATOM     10  C   UNL     1      -3.072  12.880   1.006  0.00  0.00    +0.080 A 
BRANCH   9  11
ATOM     11  N   UNL     1      -4.843  11.226   1.527  0.00  0.00    +0.058 N 
ATOM     12  O   UNL     1      -5.522  12.082   2.065  0.00  0.00    -0.126 OA
ATOM     13  O   UNL     1      -5.222  10.069   1.512  0.00  0.00    -0.126 OA
ENDBRANCH   9  11
BRANCH   5  15
ATOM     14  C   UNL     1      -0.151  14.779  -0.128  0.00  0.00    +0.277 C 
ATOM     15  O   UNL     1      -1.395  14.493   0.516  0.00  0.00    -0.495 OA
ENDBRANCH   5  15
ENDBRANCH   1   8
BRANCH   2  16
ATOM     16  C   UNL     1      -3.006   6.882   0.026  0.00  0.00    +0.328 C 
BRANCH  16  17
ATOM     17  O   UNL     1      -1.895   5.947   0.012  0.00  0.00    -0.451 OA
BRANCH  17  18
ATOM     18  C   UNL     1      -2.201   4.633  -0.009  0.00  0.00    +0.346 C 
ATOM     19  O   UNL     1      -3.365   4.279  -0.015  0.00  0.00    -0.244 OA
BRANCH  18  20
ATOM     20  C   UNL     1      -1.132   3.633  -0.024  0.00  0.00    +0.097 A 
ATOM     21  C   UNL     1      -1.228   2.253  -0.051  0.00  0.00    +0.026 A 
ATOM     22  C   UNL     1      -0.056   1.516  -0.057  0.00  0.00    -0.036 A 
ATOM     23  C   UNL     1       1.114   2.221  -0.044  0.00  0.00    -0.006 A 
ATOM     24  S   UNL     1       0.636   3.875  -0.019  0.00  0.00    -0.086 S 
ATOM     25  C   UNL     1       2.504   1.663  -0.051  0.00  0.00    +0.043 C 
ATOM     26  C   UNL     1       2.429   0.170   0.302  0.00  0.00    +0.005 C 
ATOM     27  C   UNL     1       1.336  -0.482  -0.550  0.00  0.00    +0.005 C 
ATOM     28  C   UNL     1      -0.041  -0.011  -0.081  0.00  0.00    +0.036 C 
ENDBRANCH  18  20
ENDBRANCH  17  18
ENDBRANCH  16  17
ENDBRANCH   2  16
TORSDOF 7
