REMARK  Name = ZINC12570092
REMARK  11 active torsions:
REMARK  status: ('A' for Active; 'I' for Inactive)
REMARK    1  A    between atoms: C_1  and  C_2
REMARK    2  A    between atoms: C_7  and  O_8
REMARK    3  A    between atoms: O_8  and  C_9
REMARK    4  A    between atoms: C_9  and  C_10
REMARK    5  A    between atoms: N_12  and  N_13
REMARK    6  A    between atoms: N_13  and  C_14
REMARK    7  A    between atoms: C_14  and  N_16
REMARK    8  A    between atoms: C_17  and  C_19
REMARK    9  A    between atoms: C_19  and  C_21
REMARK   10  A    between atoms: C_19  and  O_22
REMARK   11  A    between atoms: O_22  and  C_23
REMARK                            x       y       z     vdW  Elec       q    Type
REMARK                         _______ _______ _______ _____ _____    ______ ____
ROOT
ATOM      1  C   UNL     1       0.276   1.518  -0.293  0.00  0.00    +0.153 C 
ATOM      2  S   UNL     1       1.786   2.283  -0.034  0.00  0.00    -0.017 S 
ENDROOT
BRANCH   1   3
ATOM      3  N   UNL     1       0.201   0.174  -0.339  0.00  0.00    -0.264 N 
ATOM      4  C   UNL     1       1.315  -0.569  -0.180  0.00  0.00    +0.259 C 
ATOM      5  O   UNL     1       2.384  -0.027   0.004  0.00  0.00    -0.271 OA
ATOM      6  H   UNL     1      -0.654  -0.260  -0.486  0.00  0.00    +0.157 HD
BRANCH   4   7
ATOM      7  C   UNL     1       1.231  -2.073  -0.231  0.00  0.00    +0.256 C 
ATOM      8  C   UNL     1       0.396  -2.577   0.948  0.00  0.00    +0.062 C 
BRANCH   7   9
ATOM      9  O   UNL     1       2.546  -2.626  -0.154  0.00  0.00    -0.478 OA
BRANCH   9  10
ATOM     10  C   UNL     1       2.728  -3.862  -0.691  0.00  0.00    +0.140 A 
ATOM     11  C   UNL     1       1.642  -4.575  -1.177  0.00  0.00    +0.048 A 
ATOM     12  C   UNL     1       1.830  -5.828  -1.727  0.00  0.00    +0.023 A 
ATOM     13  C   UNL     1       3.099  -6.377  -1.784  0.00  0.00    +0.043 A 
ATOM     14  C   UNL     1       4.183  -5.670  -1.295  0.00  0.00    +0.043 A 
ATOM     15  C   UNL     1       4.000  -4.414  -0.749  0.00  0.00    +0.084 A 
ATOM     16 CL   UNL     1       5.361  -3.527  -0.136  0.00  0.00    -0.080 Cl
ATOM     17 CL   UNL     1       3.331  -7.955  -2.469  0.00  0.00    -0.083 Cl
ENDBRANCH   9  10
ENDBRANCH   7   9
ENDBRANCH   4   7
ENDBRANCH   1   3
BRANCH   1  18
ATOM     18  N   UNL     1      -0.836   2.261  -0.458  0.00  0.00    -0.245 N 
ATOM     19  H   UNL     1      -0.782   3.229  -0.425  0.00  0.00    +0.172 HD
BRANCH  18  22
ATOM     20  C   UNL     1      -3.183   2.378  -0.840  0.00  0.00    +0.267 C 
ATOM     21  O   UNL     1      -3.116   3.589  -0.799  0.00  0.00    -0.271 OA
ATOM     22  N   UNL     1      -2.071   1.636  -0.676  0.00  0.00    -0.232 N 
ATOM     23  H   UNL     1      -2.125   0.668  -0.709  0.00  0.00    +0.173 HD
BRANCH  20  24
ATOM     24  C   UNL     1      -4.511   1.705  -1.075  0.00  0.00    +0.326 C 
BRANCH  24  25
ATOM     25  O   UNL     1      -5.529   2.697  -1.218  0.00  0.00    -0.482 OA
BRANCH  25  32
ATOM     26  C   UNL     1      -7.559   4.643  -1.491  0.00  0.00    +0.047 C 
ATOM     27  C   UNL     1      -7.834   3.163  -1.579  0.00  0.00    -0.007 A 
ATOM     28  C   UNL     1      -9.120   2.712  -1.807  0.00  0.00    +0.027 A 
ATOM     29  C   UNL     1      -9.373   1.354  -1.882  0.00  0.00    +0.041 A 
ATOM     30  C   UNL     1      -8.340   0.446  -1.735  0.00  0.00    +0.023 A 
ATOM     31  C   UNL     1      -7.052   0.893  -1.513  0.00  0.00    +0.047 A 
ATOM     32  C   UNL     1      -6.796   2.255  -1.437  0.00  0.00    +0.124 A 
ATOM     33 CL   UNL     1     -10.991   0.788  -2.161  0.00  0.00    -0.084 Cl
ENDBRANCH  25  32
ENDBRANCH  24  25
ENDBRANCH  20  24
ENDBRANCH  18  22
ENDBRANCH   1  18
TORSDOF 9
