REMARK  Name = ZINC09444143
REMARK  8 active torsions:
REMARK  status: ('A' for Active; 'I' for Inactive)
REMARK    1  A    between atoms: C_1  and  C_2
REMARK    2  A    between atoms: C_7  and  C_10
REMARK    3  A    between atoms: N_13  and  C_14
REMARK    4  A    between atoms: C_14  and  C_27
REMARK    5  A    between atoms: C_19  and  C_23
REMARK    6  A    between atoms: C_23  and  C_24
REMARK    7  A    between atoms: C_23  and  C_25
REMARK    8  A    between atoms: C_23  and  C_26
REMARK                            x       y       z     vdW  Elec       q    Type
REMARK                         _______ _______ _______ _____ _____    ______ ____
ROOT
ATOM      1  C   UNL     1       1.246  -4.218   1.183  0.00  0.00    +0.385 C 
ATOM      2  O   UNL     1       0.189  -4.104   0.213  0.00  0.00    -0.429 OA
ATOM      3  C   UNL     1       0.039  -2.765  -0.008  0.00  0.00    +0.169 A 
ATOM      4  C   UNL     1      -0.580  -2.066  -1.032  0.00  0.00    +0.050 A 
ATOM      5  C   UNL     1      -0.596  -0.684  -1.015  0.00  0.00    +0.008 A 
ATOM      6  C   UNL     1       0.014   0.005   0.017  0.00  0.00    -0.038 A 
ATOM      7  C   UNL     1       0.634  -0.686   1.042  0.00  0.00    +0.053 A 
ATOM      8  C   UNL     1       0.649  -2.071   1.034  0.00  0.00    +0.169 A 
ATOM      9  O   UNL     1       1.181  -2.975   1.908  0.00  0.00    -0.429 OA
ENDROOT
BRANCH   1  20
ATOM     10  C   UNL     1       6.275  -3.362   1.166  0.00  0.00    +0.039 C 
ATOM     11  C   UNL     1       6.427  -4.072  -0.180  0.00  0.00    +0.133 C 
ATOM     12  C   UNL     1       5.069  -4.634  -0.618  0.00  0.00    +0.140 C 
ATOM     13  N   UNL     1       4.175  -3.506  -0.920  0.00  0.00    -0.281 N 
ATOM     14  C   UNL     1       4.667  -2.457  -1.828  0.00  0.00    +0.140 C 
ATOM     15  C   UNL     1       6.046  -1.998  -1.327  0.00  0.00    +0.133 C 
ATOM     16  O   UNL     1       6.889  -3.140  -1.162  0.00  0.00    -0.371 OA
ATOM     17  C   UNL     1       6.669  -1.047  -2.351  0.00  0.00    +0.039 C 
ATOM     18  C   UNL     1       2.939  -3.437  -0.386  0.00  0.00    +0.308 C 
ATOM     19  O   UNL     1       2.182  -2.545  -0.718  0.00  0.00    -0.252 OA
ATOM     20  N   UNL     1       2.543  -4.357   0.516  0.00  0.00    -0.224 N 
ATOM     21  H   UNL     1       3.117  -5.111   0.724  0.00  0.00    +0.158 HD
ENDBRANCH   1  20
BRANCH   6  22
ATOM     22  C   UNL     1      -0.001   1.512   0.028  0.00  0.00    -0.013 C 
ATOM     23  C   UNL     1       1.436   2.037   0.013  0.00  0.00    +0.015 C 
ATOM     24  C   UNL     1      -0.743   2.023  -1.209  0.00  0.00    +0.015 C 
ATOM     25  C   UNL     1      -0.712   2.005   1.289  0.00  0.00    +0.015 C 
ENDBRANCH   6  22
BRANCH   1  26
ATOM     26  C   UNL     1       0.992  -5.401   2.119  0.00  0.00    +0.288 C 
ATOM     27 CL   UNL     1      -0.637  -5.230   2.874  0.00  0.00    -0.073 Cl
ATOM     28 CL   UNL     1       1.061  -6.937   1.178  0.00  0.00    -0.073 Cl
ATOM     29 CL   UNL     1       2.252  -5.428   3.408  0.00  0.00    -0.073 Cl
ENDBRANCH   1  26
TORSDOF 3
