REMARK  Name = ZINC20835942
REMARK  10 active torsions:
REMARK  status: ('A' for Active; 'I' for Inactive)
REMARK    1  A    between atoms: C_1  and  C_2
REMARK    2  A    between atoms: C_2  and  C_3
REMARK    3  A    between atoms: C_2  and  S_4
REMARK    4  A    between atoms: S_4  and  C_5
REMARK    5  A    between atoms: C_11  and  C_13
REMARK    6  A    between atoms: C_13  and  S_14
REMARK    7  A    between atoms: S_14  and  C_15
REMARK    8  A    between atoms: N_20  and  N_21
REMARK    9  A    between atoms: C_22  and  C_23
REMARK   10  A    between atoms: C_22  and  C_24
REMARK                            x       y       z     vdW  Elec       q    Type
REMARK                         _______ _______ _______ _____ _____    ______ ____
ROOT
ATOM      1  C   UNL     1      -0.641  -6.966  -0.028  0.00  0.00    +0.211 A 
ATOM      2  N   UNL     1      -1.515  -8.016  -0.025  0.00  0.00    -0.186 NA
ATOM      3  C   UNL     1      -0.786  -9.172  -0.039  0.00  0.00    +0.232 A 
ATOM      4  N   UNL     1       0.485  -8.850  -0.049  0.00  0.00    -0.245 N 
ATOM      5  N   UNL     1       0.577  -7.452  -0.048  0.00  0.00    -0.144 NA
ATOM      6  N   UNL     1      -1.300 -10.460  -0.041  0.00  0.00    -0.205 N 
ATOM      7  H   UNL     1      -2.389 -10.618  -0.032  0.00  0.00    +0.177 HD
ATOM      8  H   UNL     1       1.252  -9.638  -0.057  0.00  0.00    +0.192 HD
ENDROOT
BRANCH   6   9
ATOM      9  N   UNL     1      -0.433 -11.561  -0.055  0.00  0.00    -0.184 NA
ATOM     10  C   UNL     1      -0.915 -12.769  -0.057  0.00  0.00    +0.070 C 
ATOM     11  C   UNL     1      -2.407 -12.985  -0.045  0.00  0.00    +0.068 C 
BRANCH  10  12
ATOM     12  C   UNL     1      -0.008 -13.921  -0.072  0.00  0.00    +0.035 A 
ATOM     13  C   UNL     1       1.376 -13.942  -0.085  0.00  0.00    +0.017 A 
ATOM     14  C   UNL     1       2.011 -15.163  -0.098  0.00  0.00    +0.008 A 
ATOM     15  C   UNL     1       1.268 -16.299  -0.097  0.00  0.00    +0.046 A 
ATOM     16  S   UNL     1      -0.400 -15.663  -0.070  0.00  0.00    -0.095 S 
ENDBRANCH  10  12
ENDBRANCH   6   9
BRANCH   1  17
ATOM     17  S   UNL     1      -1.074  -5.258  -0.015  0.00  0.00    -0.075 S 
BRANCH  17  18
ATOM     18  C   UNL     1       0.524  -4.400  -0.026  0.00  0.00    +0.173 C 
BRANCH  18  25
ATOM     19  C   UNL     1       1.100   1.973   0.002  0.00  0.00    +0.160 A 
ATOM     20  N   UNL     1      -0.015   1.257   0.009  0.00  0.00    -0.133 NA
ATOM     21  N   UNL     1       0.002  -0.004   0.002  0.00  0.00    -0.125 NA
ATOM     22  C   UNL     1       1.133  -0.690  -0.013  0.00  0.00    +0.189 A 
ATOM     23  S   UNL     1       2.314   0.656  -0.017  0.00  0.00    -0.024 S 
ATOM     24  N   UNL     1       1.345  -2.067  -0.021  0.00  0.00    -0.263 N 
ATOM     25  C   UNL     1       0.294  -2.910  -0.016  0.00  0.00    +0.229 C 
ATOM     26  O   UNL     1      -0.836  -2.471  -0.003  0.00  0.00    -0.275 OA
ATOM     27  H   UNL     1       2.370  -2.465  -0.033  0.00  0.00    +0.157 HD
BRANCH  19  28
ATOM     28  S   UNL     1       1.324   3.720   0.009  0.00  0.00    -0.094 S 
BRANCH  28  30
ATOM     29  C   UNL     1      -1.049   3.991   1.340  0.00  0.00    +0.019 C 
ATOM     30  C   UNL     1      -0.365   4.380   0.028  0.00  0.00    +0.047 C 
ATOM     31  C   UNL     1      -0.319   5.904  -0.091  0.00  0.00    +0.019 C 
ENDBRANCH  28  30
ENDBRANCH  19  28
ENDBRANCH  18  25
ENDBRANCH  17  18
ENDBRANCH   1  17
TORSDOF 7
