REMARK  Name = ZINC41627414
REMARK  4 active torsions:
REMARK  status: ('A' for Active; 'I' for Inactive)
REMARK    1  A    between atoms: C_1  and  C_2
REMARK    2  A    between atoms: C_2  and  C_3
REMARK    3  A    between atoms: C_10  and  C_14
REMARK    4  A    between atoms: C_17  and  N_20
REMARK                            x       y       z     vdW  Elec       q    Type
REMARK                         _______ _______ _______ _____ _____    ______ ____
ROOT
ATOM      1  C   UNL     1       0.731  -0.503   1.223  0.00  0.00    -0.008 A 
ATOM      2  C   UNL     1       0.225  -0.799   2.431  0.00  0.00    +0.026 A 
ATOM      3  C   UNL     1       1.115  -1.270   3.476  0.00  0.00    +0.072 A 
ATOM      4  C   UNL     1       0.810  -1.643   4.826  0.00  0.00    +0.260 A 
ATOM      5  O   UNL     1      -0.335  -1.588   5.239  0.00  0.00    -0.267 OA
ATOM      6  N   UNL     1       1.807  -2.057   5.631  0.00  0.00    -0.306 N 
ATOM      7  H   UNL     1       1.606  -2.311   6.545  0.00  0.00    +0.170 HD
ATOM      8  C   UNL     1       3.097  -2.125   5.183  0.00  0.00    +0.142 A 
ATOM      9  N   UNL     1       3.403  -1.787   3.948  0.00  0.00    -0.222 NA
ATOM     10  C   UNL     1       2.469  -1.372   3.103  0.00  0.00    +0.116 A 
ATOM     11  S   UNL     1       2.470  -0.850   1.407  0.00  0.00    -0.073 S 
ENDROOT
BRANCH   8  12
ATOM     12  C   UNL     1       4.162  -2.584   6.098  0.00  0.00    +0.018 A 
ATOM     13  C   UNL     1       3.851  -2.950   7.408  0.00  0.00    +0.014 A 
ATOM     14  C   UNL     1       4.851  -3.378   8.257  0.00  0.00    +0.033 A 
ATOM     15  C   UNL     1       6.160  -3.445   7.812  0.00  0.00    +0.126 A 
ATOM     16  C   UNL     1       6.475  -3.083   6.514  0.00  0.00    +0.033 A 
ATOM     17  C   UNL     1       5.484  -2.659   5.653  0.00  0.00    +0.014 A 
BRANCH  15  18
ATOM     18  N   UNL     1       7.227  -3.905   8.729  0.00  0.00    +0.056 N 
ATOM     19  O   UNL     1       6.955  -4.221   9.863  0.00  0.00    -0.126 OA
ATOM     20  O   UNL     1       8.371  -3.964   8.343  0.00  0.00    -0.126 OA
ENDBRANCH  15  18
ENDBRANCH   8  12
BRANCH   1  22
ATOM     21  C   UNL     1      -0.019   1.526   0.010  0.00  0.00    +0.009 C 
ATOM     22  C   UNL     1       0.002  -0.004   0.002  0.00  0.00    +0.039 C 
ENDBRANCH   1  22
TORSDOF 3
