REMARK  Name = ZINC15081197
REMARK  15 active torsions:
REMARK  status: ('A' for Active; 'I' for Inactive)
REMARK    1  A    between atoms: C_1  and  C_2
REMARK    2  A    between atoms: C_5  and  S_8
REMARK    3  A    between atoms: S_8  and  N_11
REMARK    4  A    between atoms: N_11  and  N_12
REMARK    5  A    between atoms: C_15  and  C_38
REMARK    6  A    between atoms: C_15  and  O_39
REMARK    7  A    between atoms: C_16  and  C_34
REMARK    8  A    between atoms: C_18  and  C_26
REMARK    9  A    between atoms: C_20  and  C_22
REMARK   10  A    between atoms: C_22  and  O_24
REMARK   11  A    between atoms: O_24  and  C_25
REMARK   12  A    between atoms: C_29  and  O_32
REMARK   13  A    between atoms: O_32  and  C_33
REMARK   14  A    between atoms: C_34  and  O_36
REMARK   15  A    between atoms: O_36  and  C_37
REMARK                            x       y       z     vdW  Elec       q    Type
REMARK                         _______ _______ _______ _____ _____    ______ ____
ROOT
ATOM      1  N   UNL     1       0.034  -0.980   0.620  0.00  0.00    -0.174 NA
ATOM      2  C   UNL     1      -0.996  -1.571   0.144  0.00  0.00    +0.055 C 
ATOM      3  C   UNL     1      -2.076  -2.105   1.059  0.00  0.00    +0.088 C 
ATOM      4  C   UNL     1      -2.346  -3.568   0.694  0.00  0.00    +0.082 C 
ATOM      5  C   UNL     1      -2.676  -3.668  -0.796  0.00  0.00    +0.138 C 
ATOM      6  C   UNL     1      -1.467  -3.232  -1.626  0.00  0.00    +0.055 C 
ATOM      7  C   UNL     1      -1.165  -1.755  -1.348  0.00  0.00    +0.152 C 
ATOM      8  C   UNL     1      -3.527  -4.090   1.515  0.00  0.00    +0.042 C 
ENDROOT
BRANCH   6   9
ATOM      9  C   UNL     1      -1.770  -3.416  -3.090  0.00  0.00    -0.042 A 
ATOM     10  C   UNL     1      -0.739  -3.631  -3.986  0.00  0.00    +0.007 A 
ATOM     11  C   UNL     1      -1.015  -3.806  -5.329  0.00  0.00    +0.046 A 
ATOM     12  C   UNL     1      -2.326  -3.753  -5.779  0.00  0.00    +0.120 A 
ATOM     13  C   UNL     1      -3.358  -3.531  -4.879  0.00  0.00    +0.046 A 
ATOM     14  C   UNL     1      -3.078  -3.363  -3.537  0.00  0.00    +0.007 A 
BRANCH  12  15
ATOM     15  O   UNL     1      -2.599  -3.920  -7.100  0.00  0.00    -0.495 OA
ATOM     16  C   UNL     1      -1.487  -4.145  -7.969  0.00  0.00    +0.277 C 
ENDBRANCH  12  15
ENDBRANCH   6   9
BRANCH   1  17
ATOM     17  N   UNL     1       0.123  -0.725   1.995  0.00  0.00    -0.137 N 
ATOM     18  H   UNL     1      -0.630  -0.920   2.574  0.00  0.00    +0.197 HD
BRANCH  17  19
ATOM     19  S   UNL     1       1.515  -0.092   2.632  0.00  0.00    +0.086 S 
ATOM     20  O   UNL     1       1.247   0.182   4.000  0.00  0.00    -0.149 OA
ATOM     21  O   UNL     1       2.574  -0.945   2.219  0.00  0.00    -0.149 OA
BRANCH  19  26
ATOM     22  C   UNL     1       2.441   5.233  -0.049  0.00  0.00    +0.044 C 
ATOM     23  C   UNL     1       2.211   3.903   0.621  0.00  0.00    -0.050 A 
ATOM     24  C   UNL     1       1.466   3.835   1.784  0.00  0.00    +0.005 A 
ATOM     25  C   UNL     1       1.254   2.615   2.398  0.00  0.00    +0.029 A 
ATOM     26  C   UNL     1       1.786   1.463   1.849  0.00  0.00    +0.110 A 
ATOM     27  C   UNL     1       2.534   1.532   0.689  0.00  0.00    +0.029 A 
ATOM     28  C   UNL     1       2.743   2.751   0.073  0.00  0.00    +0.005 A 
ENDBRANCH  19  26
ENDBRANCH  17  19
ENDBRANCH   1  17
BRANCH   7  29
ATOM     29  C   UNL     1      -2.306  -0.903  -1.841  0.00  0.00    +0.316 C 
ATOM     30  O   UNL     1      -3.166  -0.542  -1.073  0.00  0.00    -0.250 OA
BRANCH  29  31
ATOM     31  O   UNL     1      -2.368  -0.547  -3.133  0.00  0.00    -0.467 OA
ATOM     32  C   UNL     1      -3.495   0.274  -3.538  0.00  0.00    +0.280 C 
ENDBRANCH  29  31
ENDBRANCH   7  29
BRANCH   5  33
ATOM     33  C   UNL     1      -3.030  -5.092  -1.137  0.00  0.00    +0.313 C 
ATOM     34  O   UNL     1      -2.377  -5.698  -1.954  0.00  0.00    -0.250 OA
BRANCH  33  35
ATOM     35  O   UNL     1      -4.070  -5.689  -0.532  0.00  0.00    -0.468 OA
ATOM     36  C   UNL     1      -4.352  -7.062  -0.910  0.00  0.00    +0.280 C 
ENDBRANCH  33  35
ENDBRANCH   5  33
BRANCH   4  37
ATOM     37  O   UNL     1      -1.185  -4.352   0.978  0.00  0.00    -0.388 OA
ATOM     38  H   UNL     1      -0.917  -4.335   1.907  0.00  0.00    +0.210 HD
ENDBRANCH   4  37
TORSDOF 10
