REMARK  Name = ZINC27808670
REMARK  10 active torsions:
REMARK  status: ('A' for Active; 'I' for Inactive)
REMARK    1  A    between atoms: C_1  and  C_2
REMARK    2  A    between atoms: C_2  and  C_4
REMARK    3  A    between atoms: C_2  and  O_13
REMARK    4  A    between atoms: N_9  and  C_10
REMARK    5  A    between atoms: C_10  and  C_11
REMARK    6  A    between atoms: C_10  and  C_12
REMARK    7  A    between atoms: O_13  and  C_14
REMARK    8  A    between atoms: C_14  and  C_16
REMARK    9  A    between atoms: C_19  and  C_22
REMARK   10  A    between atoms: C_22  and  N_23
REMARK                            x       y       z     vdW  Elec       q    Type
REMARK                         _______ _______ _______ _____ _____    ______ ____
ROOT
ATOM      1  C   UNL     1      -3.284  -1.228   1.304  0.00  0.00    +0.059 A 
ATOM      2  C   UNL     1      -4.010  -1.491   0.141  0.00  0.00    +0.015 A 
ATOM      3  C   UNL     1      -5.301  -1.968   0.230  0.00  0.00    +0.006 A 
ATOM      4  C   UNL     1      -5.877  -2.186   1.469  0.00  0.00    -0.030 A 
ATOM      5  C   UNL     1      -5.164  -1.927   2.626  0.00  0.00    +0.006 A 
ATOM      6  C   UNL     1      -3.870  -1.455   2.551  0.00  0.00    +0.015 A 
ENDROOT
BRANCH   1   7
ATOM      7  C   UNL     1      -1.901  -0.717   1.217  0.00  0.00    +0.340 C 
ATOM      8  O   UNL     1      -1.270  -0.493   2.231  0.00  0.00    -0.245 OA
BRANCH   7   9
ATOM      9  O   UNL     1      -1.339  -0.499   0.012  0.00  0.00    -0.449 OA
BRANCH   9  11
ATOM     10  C   UNL     1      -0.019   1.526   0.010  0.00  0.00    +0.062 C 
ATOM     11  C   UNL     1       0.002  -0.004   0.002  0.00  0.00    +0.259 C 
BRANCH  11  12
ATOM     12  C   UNL     1       0.707  -0.490  -1.238  0.00  0.00    +0.261 C 
ATOM     13  O   UNL     1       0.096  -1.114  -2.078  0.00  0.00    -0.271 OA
ATOM     14  N   UNL     1       2.018  -0.231  -1.413  0.00  0.00    -0.237 N 
ATOM     15  C   UNL     1       2.649  -0.665  -2.522  0.00  0.00    +0.306 C 
ATOM     16  O   UNL     1       2.036  -1.291  -3.364  0.00  0.00    -0.252 OA
ATOM     17  N   UNL     1       3.960  -0.406  -2.696  0.00  0.00    -0.297 N 
ATOM     18  H   UNL     1       2.508   0.269  -0.741  0.00  0.00    +0.159 HD
ATOM     19  H   UNL     1       4.450   0.093  -2.024  0.00  0.00    +0.151 HD
BRANCH  17  20
ATOM     20  C   UNL     1       4.646  -0.879  -3.902  0.00  0.00    +0.068 C 
ATOM     21  C   UNL     1       5.859   0.011  -4.180  0.00  0.00    +0.027 C 
ATOM     22  C   UNL     1       5.109  -2.322  -3.692  0.00  0.00    +0.027 C 
ENDBRANCH  17  20
ENDBRANCH  11  12
ENDBRANCH   9  11
ENDBRANCH   7   9
ENDBRANCH   1   7
BRANCH   4  23
ATOM     23  C   UNL     1      -7.288  -2.707   1.559  0.00  0.00    +0.152 C 
BRANCH  23  24
ATOM     24  N   UNL     1      -7.267  -4.172   1.583  0.00  0.00    -0.230 N 
ATOM     25  C   UNL     1      -7.314  -4.952   0.488  0.00  0.00    +0.254 C 
ATOM     26  O   UNL     1      -7.379  -4.559  -0.660  0.00  0.00    -0.270 OA
ATOM     27  C   UNL     1      -7.271  -6.366   0.915  0.00  0.00    +0.049 A 
ATOM     28  C   UNL     1      -7.290  -7.580   0.247  0.00  0.00    +0.014 A 
ATOM     29  C   UNL     1      -7.235  -8.762   0.968  0.00  0.00    +0.001 A 
ATOM     30  C   UNL     1      -7.163  -8.739   2.348  0.00  0.00    +0.001 A 
ATOM     31  C   UNL     1      -7.144  -7.532   3.030  0.00  0.00    +0.014 A 
ATOM     32  C   UNL     1      -7.198  -6.342   2.322  0.00  0.00    +0.049 A 
ATOM     33  C   UNL     1      -7.193  -4.914   2.702  0.00  0.00    +0.254 C 
ATOM     34  O   UNL     1      -7.134  -4.482   3.836  0.00  0.00    -0.270 OA
ENDBRANCH  23  24
ENDBRANCH   4  23
TORSDOF 7
