REMARK  Name = ZINC15372497
REMARK  11 active torsions:
REMARK  status: ('A' for Active; 'I' for Inactive)
REMARK    1  A    between atoms: C_1  and  N_2
REMARK    2  A    between atoms: N_2  and  C_3
REMARK    3  A    between atoms: N_2  and  C_4
REMARK    4  A    between atoms: C_4  and  C_6
REMARK    5  A    between atoms: C_4  and  C_29
REMARK    6  A    between atoms: C_6  and  N_7
REMARK    7  A    between atoms: C_8  and  C_10
REMARK    8  A    between atoms: C_15  and  N_16
REMARK    9  A    between atoms: N_16  and  S_17
REMARK   10  A    between atoms: S_17  and  C_20
REMARK   11  A    between atoms: C_24  and  N_26
REMARK                            x       y       z     vdW  Elec       q    Type
REMARK                         _______ _______ _______ _____ _____    ______ ____
ROOT
ATOM      1  C   UNL     1      -1.980   3.709  -2.260  0.00  0.00    +0.061 A 
ATOM      2  C   UNL     1      -1.199   4.324  -1.278  0.00  0.00    +0.015 A 
ATOM      3  C   UNL     1      -0.941   5.675  -1.352  0.00  0.00    +0.001 A 
ATOM      4  C   UNL     1      -1.453   6.430  -2.395  0.00  0.00    +0.002 A 
ATOM      5  C   UNL     1      -2.227   5.838  -3.372  0.00  0.00    +0.027 A 
ATOM      6  C   UNL     1      -2.492   4.475  -3.318  0.00  0.00    +0.086 A 
ENDROOT
BRANCH   1   8
ATOM      7  N   UNL     1      -1.766   1.531  -1.169  0.00  0.00    -0.313 N 
ATOM      8  C   UNL     1      -2.260   2.263  -2.188  0.00  0.00    +0.246 C 
ATOM      9  O   UNL     1      -2.936   1.731  -3.047  0.00  0.00    -0.270 OA
ATOM     10  H   UNL     1      -1.227   1.956  -0.484  0.00  0.00    +0.149 HD
BRANCH   7  11
ATOM     11  C   UNL     1      -2.044   0.095  -1.098  0.00  0.00    +0.094 C 
BRANCH  11  12
ATOM     12  C   UNL     1      -1.281  -0.514   0.081  0.00  0.00    -0.021 C 
BRANCH  12  13
ATOM     13  C   UNL     1      -1.799   0.070   1.370  0.00  0.00    -0.059 A 
ATOM     14  C   UNL     1      -2.968  -0.414   1.928  0.00  0.00    +0.002 A 
ATOM     15  C   UNL     1      -3.442   0.121   3.110  0.00  0.00    +0.000 A 
ATOM     16  C   UNL     1      -2.749   1.141   3.735  0.00  0.00    +0.000 A 
ATOM     17  C   UNL     1      -1.580   1.624   3.178  0.00  0.00    +0.000 A 
ATOM     18  C   UNL     1      -1.103   1.086   1.998  0.00  0.00    +0.002 A 
ENDBRANCH  12  13
BRANCH  12  20
ATOM     19  C   UNL     1      -0.969  -2.540  -1.166  0.00  0.00    -0.096 C 
ATOM     20  N   UNL     1      -1.476  -1.970   0.090  0.00  0.00    +0.382 N 
ATOM     21  C   UNL     1      -0.744  -2.555   1.222  0.00  0.00    -0.096 C 
ATOM     22  H   UNL     1      -2.459  -2.178   0.181  0.00  0.00    -0.082 HD
ENDBRANCH  12  20
ENDBRANCH  11  12
ENDBRANCH   7  11
ENDBRANCH   1   8
BRANCH   6  23
ATOM     23  N   UNL     1      -3.266   3.876  -4.304  0.00  0.00    -0.097 NA
BRANCH  23  24
ATOM     24  S   UNL     1      -3.868   4.784  -5.551  0.00  0.00    +0.092 S 
ATOM     25  O   UNL     1      -4.804   5.688  -4.980  0.00  0.00    -0.148 OA
ATOM     26  O   UNL     1      -2.750   5.223  -6.310  0.00  0.00    -0.148 OA
BRANCH  24  27
ATOM     27  C   UNL     1      -4.786   3.697  -6.591  0.00  0.00    +0.113 A 
ATOM     28  C   UNL     1      -4.158   3.044  -7.634  0.00  0.00    +0.029 A 
ATOM     29  C   UNL     1      -4.878   2.192  -8.450  0.00  0.00    +0.004 A 
ATOM     30  C   UNL     1      -6.227   1.993  -8.222  0.00  0.00    +0.033 A 
ATOM     31  C   UNL     1      -6.855   2.645  -7.178  0.00  0.00    +0.128 A 
ATOM     32  C   UNL     1      -6.134   3.494  -6.359  0.00  0.00    +0.061 A 
BRANCH  31  33
ATOM     33  N   UNL     1      -8.300   2.433  -6.934  0.00  0.00    +0.056 N 
ATOM     34  O   UNL     1      -8.930   1.688  -7.648  0.00  0.00    -0.126 OA
ATOM     35  O   UNL     1      -8.849   3.003  -6.021  0.00  0.00    -0.126 OA
ENDBRANCH  31  33
ENDBRANCH  24  27
ENDBRANCH  23  24
ENDBRANCH   6  23
TORSDOF 9
