REMARK  Name = ZINC16633359
REMARK  7 active torsions:
REMARK  status: ('A' for Active; 'I' for Inactive)
REMARK    1  A    between atoms: N_9  and  C_29
REMARK    2  A    between atoms: C_10  and  S_12
REMARK    3  A    between atoms: S_12  and  C_13
REMARK    4  A    between atoms: C_13  and  C_14
REMARK    5  A    between atoms: N_16  and  C_17
REMARK    6  A    between atoms: C_18  and  C_26
REMARK    7  A    between atoms: C_29  and  C_30
REMARK                            x       y       z     vdW  Elec       q    Type
REMARK                         _______ _______ _______ _____ _____    ______ ____
ROOT
ATOM      1  C   UNL     1       1.280   1.980   0.001  0.00  0.00    +0.173 C 
ENDROOT
BRANCH   1   2
ATOM      2  C   UNL     1      -0.014   1.209   0.009  0.00  0.00    +0.228 C 
ATOM      3  O   UNL     1       0.002  -0.004   0.002  0.00  0.00    -0.275 OA
ATOM      4  N   UNL     1      -1.191   1.867   0.018  0.00  0.00    -0.279 N 
ATOM      5  H   UNL     1      -1.204   2.836   0.023  0.00  0.00    +0.155 HD
BRANCH   4   6
ATOM      6  C   UNL     1      -2.382   1.157   0.020  0.00  0.00    +0.084 A 
ATOM      7  C   UNL     1      -3.679   1.650   0.034  0.00  0.00    +0.068 A 
ATOM      8  C   UNL     1      -4.764   0.684   0.028  0.00  0.00    -0.023 A 
ATOM      9  C   UNL     1      -4.382  -0.611   0.020  0.00  0.00    -0.004 A 
ATOM     10  S   UNL     1      -2.612  -0.560   0.012  0.00  0.00    -0.077 S 
ATOM     11  C   UNL     1      -5.271  -1.816   0.019  0.00  0.00    +0.043 C 
ATOM     12  C   UNL     1      -6.689  -1.371   0.406  0.00  0.00    +0.005 C 
ATOM     13  C   UNL     1      -7.063  -0.138  -0.423  0.00  0.00    +0.005 C 
ATOM     14  C   UNL     1      -6.239   1.066   0.036  0.00  0.00    +0.037 C 
BRANCH   7  15
ATOM     15  C   UNL     1      -3.944   3.092   0.051  0.00  0.00    +0.244 C 
ATOM     16  O   UNL     1      -4.063   3.701  -0.997  0.00  0.00    -0.270 OA
ATOM     17  N   UNL     1      -4.057   3.743   1.225  0.00  0.00    -0.325 N 
ATOM     18  H   UNL     1      -3.963   3.258   2.060  0.00  0.00    +0.145 HD
ATOM     19  H   UNL     1      -4.233   4.697   1.236  0.00  0.00    +0.145 HD
ENDBRANCH   7  15
ENDBRANCH   4   6
ENDBRANCH   1   2
BRANCH   1  20
ATOM     20  S   UNL     1       2.672   0.823  -0.019  0.00  0.00    -0.078 S 
BRANCH  20  30
ATOM     21  C   UNL     1       6.792   6.023  -0.031  0.00  0.00    +0.001 A 
ATOM     22  C   UNL     1       5.468   6.443  -0.017  0.00  0.00    +0.002 A 
ATOM     23  C   UNL     1       4.444   5.538  -0.011  0.00  0.00    +0.028 A 
ATOM     24  C   UNL     1       4.729   4.170  -0.021  0.00  0.00    +0.079 A 
ATOM     25  C   UNL     1       6.077   3.747  -0.036  0.00  0.00    +0.065 A 
ATOM     26  C   UNL     1       7.103   4.691  -0.041  0.00  0.00    +0.015 A 
ATOM     27  C   UNL     1       6.352   2.303  -0.046  0.00  0.00    +0.262 A 
ATOM     28  O   UNL     1       7.492   1.877  -0.059  0.00  0.00    -0.267 OA
ATOM     29  N   UNL     1       5.289   1.465  -0.035  0.00  0.00    -0.285 N 
ATOM     30  C   UNL     1       4.017   1.961  -0.026  0.00  0.00    +0.173 A 
ATOM     31  N   UNL     1       3.749   3.244  -0.016  0.00  0.00    -0.223 NA
BRANCH  29  32
ATOM     32  C   UNL     1       5.505   0.016  -0.039  0.00  0.00    +0.159 C 
BRANCH  32  33
ATOM     33  C   UNL     1       5.571  -0.486  -1.482  0.00  0.00    +0.138 C 
ATOM     34  C   UNL     1       5.683  -2.026  -1.497  0.00  0.00    +0.035 C 
ATOM     35  C   UNL     1       6.685  -2.272  -2.657  0.00  0.00    +0.031 C 
ATOM     36  C   UNL     1       7.607  -1.035  -2.518  0.00  0.00    +0.160 C 
ATOM     37  O   UNL     1       6.737   0.039  -2.127  0.00  0.00    -0.375 OA
ENDBRANCH  32  33
ENDBRANCH  29  32
ENDBRANCH  20  30
ENDBRANCH   1  20
TORSDOF 7
