REMARK  Name = ZINC13278236
REMARK  8 active torsions:
REMARK  status: ('A' for Active; 'I' for Inactive)
REMARK    1  A    between atoms: C_1  and  C_2
REMARK    2  A    between atoms: C_2  and  C_4
REMARK    3  A    between atoms: C_2  and  O_6
REMARK    4  A    between atoms: O_6  and  C_7
REMARK    5  A    between atoms: C_10  and  C_13
REMARK    6  A    between atoms: C_15  and  C_23
REMARK    7  A    between atoms: N_26  and  C_28
REMARK    8  A    between atoms: C_28  and  C_29
REMARK                            x       y       z     vdW  Elec       q    Type
REMARK                         _______ _______ _______ _____ _____    ______ ____
ROOT
ATOM      1  C   UNL     1      -0.772   3.536  -0.250  0.00  0.00    +0.039 C 
ATOM      2  C   UNL     1       0.448   4.018  -0.054  0.00  0.00    +0.028 C 
ATOM      3  C   UNL     1       1.644   3.151   0.232  0.00  0.00    +0.170 C 
ATOM      4  N   UNL     1       1.309   1.754  -0.019  0.00  0.00    -0.202 N 
ATOM      5  C   UNL     1       0.043   1.303  -0.218  0.00  0.00    +0.240 A 
ATOM      6  N   UNL     1       0.115   0.016  -0.399  0.00  0.00    -0.092 NA
ATOM      7  N   UNL     1       1.341  -0.377  -0.334  0.00  0.00    -0.021 NA
ATOM      8  N   UNL     1       2.124   0.627  -0.106  0.00  0.00    -0.042 NA
ATOM      9  N   UNL     1      -1.045   2.162  -0.211  0.00  0.00    -0.282 N 
ATOM     10  H   UNL     1      -1.954   1.827  -0.181  0.00  0.00    +0.155 HD
ENDROOT
BRANCH   1  14
ATOM     11  C   UNL     1      -3.957   6.246  -1.016  0.00  0.00    +0.122 A 
ATOM     12  C   UNL     1      -4.205   4.880  -0.975  0.00  0.00    +0.046 A 
ATOM     13  C   UNL     1      -3.174   3.999  -0.726  0.00  0.00    +0.013 A 
ATOM     14  C   UNL     1      -1.881   4.480  -0.517  0.00  0.00    -0.004 A 
ATOM     15  C   UNL     1      -1.637   5.853  -0.555  0.00  0.00    +0.013 A 
ATOM     16  C   UNL     1      -2.672   6.729  -0.809  0.00  0.00    +0.046 A 
BRANCH  11  17
ATOM     17  O   UNL     1      -4.975   7.112  -1.261  0.00  0.00    -0.478 OA
BRANCH  17  19
ATOM     18  C   UNL     1      -6.538   6.051  -2.768  0.00  0.00    +0.064 C 
ATOM     19  C   UNL     1      -6.290   6.559  -1.346  0.00  0.00    +0.282 C 
BRANCH  19  20
ATOM     20  C   UNL     1      -7.304   7.622  -1.009  0.00  0.00    +0.395 C 
ATOM     21  O   UNL     1      -6.945   8.759  -0.813  0.00  0.00    -0.242 OA
ATOM     22  O   UNL     1      -8.606   7.306  -0.926  0.00  0.00    -0.242 OA
ENDBRANCH  19  20
ENDBRANCH  17  19
ENDBRANCH  11  17
ENDBRANCH   1  14
BRANCH   3  23
ATOM     23  C   UNL     1       2.052   3.318   1.673  0.00  0.00    +0.018 A 
ATOM     24  C   UNL     1       1.259   3.036   2.790  0.00  0.00    +0.140 A 
ATOM     25  N   UNL     1       1.955   3.306   3.864  0.00  0.00    -0.179 NA
ATOM     26  N   UNL     1       3.216   3.768   3.464  0.00  0.00    -0.267 N 
ATOM     27  C   UNL     1       3.251   3.761   2.115  0.00  0.00    +0.114 A 
BRANCH  26  28
ATOM     28  C   UNL     1       4.304   4.181   4.353  0.00  0.00    +0.180 C 
BRANCH  28  29
ATOM     29  C   UNL     1       3.808   5.249   5.293  0.00  0.00    -0.008 A 
ATOM     30  C   UNL     1       4.001   6.583   4.988  0.00  0.00    +0.007 A 
ATOM     31  C   UNL     1       3.541   7.563   5.848  0.00  0.00    +0.000 A 
ATOM     32  C   UNL     1       2.897   7.208   7.019  0.00  0.00    +0.001 A 
ATOM     33  C   UNL     1       2.708   5.875   7.328  0.00  0.00    +0.020 A 
ATOM     34  C   UNL     1       3.164   4.894   6.465  0.00  0.00    +0.046 A 
ATOM     35 CL   UNL     1       2.928   3.218   6.852  0.00  0.00    -0.083 Cl
ENDBRANCH  28  29
ENDBRANCH  26  28
ENDBRANCH   3  23
TORSDOF 7
