REMARK  Name = ZINC06782984
REMARK  11 active torsions:
REMARK  status: ('A' for Active; 'I' for Inactive)
REMARK    1  A    between atoms: C_1  and  C_2
REMARK    2  A    between atoms: C_2  and  C_3
REMARK    3  A    between atoms: C_3  and  C_4
REMARK    4  A    between atoms: C_4  and  C_5
REMARK    5  A    between atoms: C_5  and  C_6
REMARK    6  A    between atoms: C_6  and  N_7
REMARK    7  A    between atoms: C_11  and  N_12
REMARK    8  A    between atoms: N_12  and  C_13
REMARK    9  A    between atoms: C_14  and  C_26
REMARK   10  A    between atoms: N_15  and  C_25
REMARK   11  A    between atoms: N_16  and  C_19
REMARK                            x       y       z     vdW  Elec       q    Type
REMARK                         _______ _______ _______ _____ _____    ______ ____
ROOT
ATOM      1  N   UNL     1       2.462  -3.928  -3.963  0.00  0.00    -0.222 N 
ATOM      2  C   UNL     1       1.702  -4.207  -5.041  0.00  0.00    +0.260 C 
ATOM      3  O   UNL     1       0.519  -3.920  -5.063  0.00  0.00    -0.269 OA
ATOM      4  C   UNL     1       2.341  -4.866  -6.193  0.00  0.00    +0.113 C 
ATOM      5  C   UNL     1       1.624  -5.182  -7.335  0.00  0.00    +0.090 C 
ATOM      6  C   UNL     1       3.777  -5.174  -6.077  0.00  0.00    +0.258 C 
ATOM      7  O   UNL     1       4.375  -5.718  -6.987  0.00  0.00    -0.270 OA
ATOM      8  N   UNL     1       4.412  -4.837  -4.936  0.00  0.00    -0.235 N 
ATOM      9  C   UNL     1       3.767  -4.233  -3.928  0.00  0.00    +0.315 C 
ATOM     10  O   UNL     1       4.398  -3.951  -2.928  0.00  0.00    -0.252 OA
ATOM     11  H   UNL     1       5.357  -5.033  -4.844  0.00  0.00    +0.159 HD
ENDROOT
BRANCH   5  12
ATOM     12  N   UNL     1       2.261  -5.667  -8.417  0.00  0.00    -0.314 N 
ATOM     13  H   UNL     1       3.209  -5.865  -8.373  0.00  0.00    +0.152 HD
BRANCH  12  14
ATOM     14  C   UNL     1       1.551  -5.887  -9.610  0.00  0.00    +0.119 A 
ATOM     15  C   UNL     1       2.057  -6.372 -10.768  0.00  0.00    +0.059 A 
ATOM     16  N   UNL     1       1.049  -6.438 -11.692  0.00  0.00    -0.282 N 
ATOM     17  N   UNL     1      -0.139  -5.980 -11.110  0.00  0.00    -0.216 N 
ATOM     18  C   UNL     1       0.126  -5.639  -9.831  0.00  0.00    +0.293 A 
ATOM     19  O   UNL     1      -0.670  -5.204  -9.018  0.00  0.00    -0.264 OA
ATOM     20  C   UNL     1       1.192  -6.910 -13.071  0.00  0.00    +0.171 C 
ATOM     21  C   UNL     1       3.491  -6.774 -11.001  0.00  0.00    +0.067 C 
BRANCH  17  22
ATOM     22  C   UNL     1      -1.383  -5.898 -11.741  0.00  0.00    +0.067 A 
ATOM     23  C   UNL     1      -2.131  -4.730 -11.657  0.00  0.00    +0.028 A 
ATOM     24  C   UNL     1      -3.360  -4.652 -12.281  0.00  0.00    +0.002 A 
ATOM     25  C   UNL     1      -3.847  -5.735 -12.991  0.00  0.00    +0.000 A 
ATOM     26  C   UNL     1      -3.105  -6.899 -13.077  0.00  0.00    +0.002 A 
ATOM     27  C   UNL     1      -1.873  -6.982 -12.459  0.00  0.00    +0.028 A 
ENDBRANCH  17  22
ENDBRANCH  12  14
ENDBRANCH   5  12
BRANCH   1  28
ATOM     28  C   UNL     1       1.849  -3.273  -2.805  0.00  0.00    +0.118 C 
BRANCH  28  29
ATOM     29  C   UNL     1       1.952  -1.754  -2.965  0.00  0.00    +0.019 C 
BRANCH  29  30
ATOM     30  C   UNL     1       1.312  -1.070  -1.755  0.00  0.00    +0.002 C 
BRANCH  30  31
ATOM     31  C   UNL     1       1.414   0.448  -1.915  0.00  0.00    -0.000 C 
BRANCH  31  33
ATOM     32  C   UNL     1       0.877   2.651  -0.866  0.00  0.00    +0.004 C 
ATOM     33  C   UNL     1       0.774   1.133  -0.706  0.00  0.00    -0.003 C 
ENDBRANCH  31  33
ENDBRANCH  30  31
ENDBRANCH  29  30
ENDBRANCH  28  29
ENDBRANCH   1  28
TORSDOF 8
