REMARK  Name = ZINC13061151
REMARK  11 active torsions:
REMARK  status: ('A' for Active; 'I' for Inactive)
REMARK    1  A    between atoms: C_1  and  C_2
REMARK    2  A    between atoms: C_7  and  O_8
REMARK    3  A    between atoms: O_8  and  C_9
REMARK    4  A    between atoms: C_9  and  C_10
REMARK    5  A    between atoms: C_10  and  N_11
REMARK    6  A    between atoms: N_11  and  N_12
REMARK    7  A    between atoms: C_13  and  C_14
REMARK    8  A    between atoms: C_13  and  C_15
REMARK    9  A    between atoms: C_18  and  S_21
REMARK   10  A    between atoms: S_21  and  N_24
REMARK   11  A    between atoms: C_27  and  C_30
REMARK                            x       y       z     vdW  Elec       q    Type
REMARK                         _______ _______ _______ _____ _____    ______ ____
ROOT
ATOM      1  C   UNL     1       1.194  -5.704   0.672  0.00  0.00    -0.002 A 
ATOM      2  C   UNL     1       2.091  -5.040   1.513  0.00  0.00    +0.011 A 
ATOM      3  C   UNL     1       1.787  -3.778   1.981  0.00  0.00    +0.029 A 
ATOM      4  C   UNL     1       0.598  -3.170   1.618  0.00  0.00    +0.106 A 
ATOM      5  C   UNL     1      -0.297  -3.824   0.790  0.00  0.00    +0.029 A 
ATOM      6  C   UNL     1      -0.004  -5.084   0.310  0.00  0.00    +0.011 A 
ENDROOT
BRANCH   1   8
ATOM      7  N   UNL     1       2.626  -7.626   0.506  0.00  0.00    -0.191 NA
ATOM      8  C   UNL     1       1.512  -7.053   0.168  0.00  0.00    +0.063 C 
ATOM      9  C   UNL     1       0.543  -7.766  -0.739  0.00  0.00    +0.068 C 
BRANCH   7  10
ATOM     10  N   UNL     1       2.928  -8.908   0.028  0.00  0.00    -0.265 N 
ATOM     11  H   UNL     1       2.304  -9.367  -0.556  0.00  0.00    +0.168 HD
BRANCH  10  12
ATOM     12  C   UNL     1       4.185  -9.555   0.410  0.00  0.00    +0.163 C 
BRANCH  12  13
ATOM     13  C   UNL     1       4.267 -10.937  -0.243  0.00  0.00    +0.249 C 
BRANCH  13  14
ATOM     14  O   UNL     1       4.333 -10.789  -1.663  0.00  0.00    -0.490 OA
BRANCH  14  21
ATOM     15  C   UNL     1       4.466 -10.520  -4.472  0.00  0.00    +0.047 C 
ATOM     16  C   UNL     1       4.478 -11.860  -3.782  0.00  0.00    -0.009 A 
ATOM     17  C   UNL     1       4.556 -13.020  -4.528  0.00  0.00    +0.007 A 
ATOM     18  C   UNL     1       4.567 -14.250  -3.896  0.00  0.00    +0.000 A 
ATOM     19  C   UNL     1       4.501 -14.322  -2.517  0.00  0.00    +0.004 A 
ATOM     20  C   UNL     1       4.428 -13.164  -1.766  0.00  0.00    +0.046 A 
ATOM     21  C   UNL     1       4.410 -11.929  -2.399  0.00  0.00    +0.123 A 
ENDBRANCH  14  21
ENDBRANCH  13  14
ENDBRANCH  12  13
ENDBRANCH  10  12
ENDBRANCH   7  10
ENDBRANCH   1   8
BRANCH   4  22
ATOM     22  S   UNL     1       0.219  -1.558   2.220  0.00  0.00    +0.061 S 
ATOM     23  O   UNL     1       0.963  -1.386   3.418  0.00  0.00    -0.153 OA
ATOM     24  O   UNL     1      -1.196  -1.431   2.177  0.00  0.00    -0.153 OA
BRANCH  22  25
ATOM     25  N   UNL     1       0.824  -0.472   1.126  0.00  0.00    -0.177 NA
ATOM     26  C   UNL     1       0.002  -0.004   0.002  0.00  0.00    +0.110 C 
ATOM     27  C   UNL     1      -0.019   1.528   0.010  0.00  0.00    +0.032 C 
ATOM     28  C   UNL     1       1.419   2.053  -0.001  0.00  0.00    +0.105 C 
ATOM     29  C   UNL     1       2.149   1.573   1.256  0.00  0.00    +0.032 C 
ATOM     30  C   UNL     1       2.194   0.042   1.262  0.00  0.00    +0.110 C 
BRANCH  28  31
ATOM     31  C   UNL     1       1.402   3.560  -0.027  0.00  0.00    +0.359 C 
ATOM     32  O   UNL     1       0.349   4.152  -0.035  0.00  0.00    -0.246 OA
ATOM     33  O   UNL     1       2.557   4.244  -0.040  0.00  0.00    -0.246 OA
ENDBRANCH  28  31
ENDBRANCH  22  25
ENDBRANCH   4  22
TORSDOF 9
