REMARK  Name = ZINC39477960
REMARK  8 active torsions:
REMARK  status: ('A' for Active; 'I' for Inactive)
REMARK    1  A    between atoms: C_4  and  C_7
REMARK    2  A    between atoms: C_10  and  S_22
REMARK    3  A    between atoms: N_11  and  C_12
REMARK    4  A    between atoms: C_12  and  C_13
REMARK    5  A    between atoms: S_22  and  C_23
REMARK    6  A    between atoms: C_23  and  C_24
REMARK    7  A    between atoms: N_26  and  N_27
REMARK    8  A    between atoms: C_28  and  C_30
REMARK                            x       y       z     vdW  Elec       q    Type
REMARK                         _______ _______ _______ _____ _____    ______ ____
ROOT
ATOM      1  C   UNL     1       3.712  -0.678  -0.004  0.00  0.00    +0.165 A 
ATOM      2  N   UNL     1       4.873  -0.195  -0.382  0.00  0.00    -0.128 NA
ATOM      3  N   UNL     1       5.773  -1.110  -0.310  0.00  0.00    -0.122 NA
ATOM      4  C   UNL     1       5.241  -2.233   0.118  0.00  0.00    +0.193 A 
ATOM      5  N   UNL     1       3.913  -1.997   0.332  0.00  0.00    -0.298 N 
ENDROOT
BRANCH   1   9
ATOM      6  C   UNL     1       0.033   1.438   0.162  0.00  0.00    +0.000 A 
ATOM      7  C   UNL     1       1.216   2.089   0.462  0.00  0.00    +0.001 A 
ATOM      8  C   UNL     1       2.414   1.408   0.410  0.00  0.00    +0.011 A 
ATOM      9  C   UNL     1       2.431   0.058   0.054  0.00  0.00    +0.019 A 
ATOM     10  C   UNL     1       1.234  -0.593  -0.247  0.00  0.00    +0.011 A 
ATOM     11  C   UNL     1       0.043   0.101  -0.192  0.00  0.00    +0.001 A 
ENDBRANCH   1   9
BRANCH   5  12
ATOM     12  C   UNL     1       2.911  -2.949   0.817  0.00  0.00    +0.161 C 
BRANCH  12  13
ATOM     13  C   UNL     1       2.729  -2.775   2.303  0.00  0.00    -0.024 A 
ATOM     14  C   UNL     1       3.584  -3.413   3.182  0.00  0.00    +0.009 A 
ATOM     15  C   UNL     1       3.422  -3.256   4.545  0.00  0.00    +0.050 A 
ATOM     16  C   UNL     1       2.401  -2.458   5.035  0.00  0.00    +0.166 A 
ATOM     17  C   UNL     1       1.540  -1.815   4.149  0.00  0.00    +0.167 A 
ATOM     18  C   UNL     1       1.712  -1.972   2.784  0.00  0.00    +0.055 A 
ATOM     19  O   UNL     1       0.630  -1.097   4.870  0.00  0.00    -0.453 OA
ATOM     20  C   UNL     1       0.689  -1.631   6.205  0.00  0.00    +0.466 C 
ATOM     21  O   UNL     1       2.031  -2.143   6.310  0.00  0.00    -0.453 OA
ENDBRANCH  12  13
ENDBRANCH   5  12
BRANCH   4  22
ATOM     22  S   UNL     1       6.085  -3.759   0.373  0.00  0.00    -0.077 S 
BRANCH  22  23
ATOM     23  C   UNL     1       7.801  -3.393  -0.086  0.00  0.00    +0.174 C 
BRANCH  23  24
ATOM     24  C   UNL     1       8.643  -4.630   0.089  0.00  0.00    +0.239 C 
ATOM     25  O   UNL     1       8.135  -5.658   0.484  0.00  0.00    -0.273 OA
ATOM     26  N   UNL     1       9.960  -4.595  -0.195  0.00  0.00    -0.233 N 
ATOM     27  H   UNL     1      10.366  -3.773  -0.511  0.00  0.00    +0.173 HD
BRANCH  26  28
ATOM     28  N   UNL     1      10.743  -5.746  -0.032  0.00  0.00    -0.230 N 
ATOM     29  C   UNL     1      12.060  -5.711  -0.315  0.00  0.00    +0.260 C 
ATOM     30  O   UNL     1      12.569  -4.680  -0.712  0.00  0.00    -0.269 OA
ATOM     31  H   UNL     1      10.336  -6.568   0.284  0.00  0.00    +0.173 HD
BRANCH  29  32
ATOM     32  C   UNL     1      12.886  -6.925  -0.144  0.00  0.00    +0.038 A 
ATOM     33  C   UNL     1      12.303  -8.111   0.305  0.00  0.00    +0.013 A 
ATOM     34  C   UNL     1      13.079  -9.241   0.463  0.00  0.00    +0.001 A 
ATOM     35  C   UNL     1      14.432  -9.200   0.177  0.00  0.00    +0.000 A 
ATOM     36  C   UNL     1      15.016  -8.027  -0.269  0.00  0.00    +0.001 A 
ATOM     37  C   UNL     1      14.250  -6.892  -0.436  0.00  0.00    +0.013 A 
ENDBRANCH  29  32
ENDBRANCH  26  28
ENDBRANCH  23  24
ENDBRANCH  22  23
ENDBRANCH   4  22
TORSDOF 8
