REMARK  Name = ZINC63205507
REMARK  10 active torsions:
REMARK  status: ('A' for Active; 'I' for Inactive)
REMARK    1  A    between atoms: C_1  and  C_2
REMARK    2  A    between atoms: C_2  and  C_3
REMARK    3  A    between atoms: C_3  and  C_5
REMARK    4  A    between atoms: C_3  and  S_19
REMARK    5  A    between atoms: C_10  and  C_18
REMARK    6  A    between atoms: C_11  and  C_13
REMARK    7  A    between atoms: C_13  and  O_15
REMARK    8  A    between atoms: O_15  and  C_16
REMARK    9  A    between atoms: C_16  and  C_17
REMARK   10  A    between atoms: S_19  and  C_20
REMARK                            x       y       z     vdW  Elec       q    Type
REMARK                         _______ _______ _______ _____ _____    ______ ____
ROOT
ATOM      1  C   UNL     1      -1.429  -0.519   0.143  0.00  0.00    +0.136 C 
ENDROOT
BRANCH   1   2
ATOM      2  C   UNL     1      -1.365  -2.006   0.379  0.00  0.00    +0.232 C 
ATOM      3  O   UNL     1      -1.459  -2.773  -0.556  0.00  0.00    -0.274 OA
ATOM      4  N   UNL     1      -1.204  -2.484   1.629  0.00  0.00    -0.264 N 
ATOM      5  C   UNL     1      -1.146  -3.850   1.845  0.00  0.00    +0.165 A 
ATOM      6  N   UNL     1      -0.999  -4.490   2.991  0.00  0.00    -0.229 NA
ATOM      7  C   UNL     1      -0.961  -5.797   3.045  0.00  0.00    +0.062 A 
ATOM      8  C   UNL     1      -1.083  -6.467   1.835  0.00  0.00    +0.120 A 
ATOM      9  S   UNL     1      -1.253  -5.089   0.712  0.00  0.00    -0.045 S 
ATOM     10  C   UNL     1      -0.792  -6.534   4.349  0.00  0.00    +0.067 C 
ATOM     11  H   UNL     1      -1.129  -1.871   2.377  0.00  0.00    +0.157 HD
BRANCH   8  12
ATOM     12  C   UNL     1      -1.079  -7.902   1.558  0.00  0.00    +0.348 C 
ATOM     13  O   UNL     1      -0.954  -8.697   2.471  0.00  0.00    -0.244 OA
BRANCH  12  14
ATOM     14  O   UNL     1      -1.214  -8.345   0.291  0.00  0.00    -0.461 OA
BRANCH  14  15
ATOM     15  C   UNL     1      -1.201  -9.760   0.093  0.00  0.00    +0.229 C 
ATOM     16  C   UNL     1      -1.364 -10.069  -1.396  0.00  0.00    +0.048 C 
ENDBRANCH  14  15
ENDBRANCH  12  14
ENDBRANCH   8  12
ENDBRANCH   1   2
BRANCH   1  18
ATOM     17  C   UNL     1      -0.068   1.563  -0.084  0.00  0.00    +0.005 C 
ATOM     18  C   UNL     1      -0.010   0.038   0.016  0.00  0.00    +0.020 C 
ENDBRANCH   1  18
BRANCH   1  19
ATOM     19  S   UNL     1      -2.348  -0.188  -1.385  0.00  0.00    -0.102 S 
BRANCH  19  20
ATOM     20  C   UNL     1      -4.065  -0.590  -0.960  0.00  0.00    +0.236 C 
ATOM     21  N   UNL     1      -4.179  -2.011  -0.610  0.00  0.00    -0.355 N 
ATOM     22  C   UNL     1      -4.602  -2.078   0.619  0.00  0.00    +0.061 A 
ATOM     23  C   UNL     1      -4.904  -3.206   1.512  0.00  0.00    +0.027 A 
ATOM     24  C   UNL     1      -5.338  -2.964   2.765  0.00  0.00    +0.002 A 
ATOM     25  C   UNL     1      -5.518  -1.663   3.267  0.00  0.00    +0.002 A 
ATOM     26  C   UNL     1      -5.271  -0.560   2.533  0.00  0.00    +0.027 A 
ATOM     27  C   UNL     1      -4.793  -0.701   1.151  0.00  0.00    +0.061 A 
ATOM     28  N   UNL     1      -4.479   0.164   0.230  0.00  0.00    -0.355 N 
ATOM     29  H   UNL     1      -3.976  -2.763  -1.189  0.00  0.00    +0.162 HD
ATOM     30  H   UNL     1      -4.513   1.130   0.314  0.00  0.00    +0.162 HD
ENDBRANCH  19  20
ENDBRANCH   1  19
TORSDOF 7
