REMARK  Name = ZINC12329091
REMARK  12 active torsions:
REMARK  status: ('A' for Active; 'I' for Inactive)
REMARK    1  A    between atoms: C_1  and  C_2
REMARK    2  A    between atoms: C_2  and  C_3
REMARK    3  A    between atoms: C_2  and  C_4
REMARK    4  A    between atoms: C_4  and  C_5
REMARK    5  A    between atoms: C_5  and  C_7
REMARK    6  A    between atoms: C_5  and  N_28
REMARK    7  A    between atoms: C_17  and  C_19
REMARK    8  A    between atoms: C_20  and  C_21
REMARK    9  A    between atoms: C_29  and  C_31
REMARK   10  A    between atoms: C_31  and  N_66
REMARK   11  A    between atoms: C_32  and  N_66
REMARK   12  A    between atoms: C_33  and  N_66
REMARK                            x       y       z     vdW  Elec       q    Type
REMARK                         _______ _______ _______ _____ _____    ______ ____
ROOT
ATOM      1  C   UNL     1      -5.924  -0.151   2.320  0.00  0.00    +0.154 A 
ATOM      2  N   UNL     1      -6.162  -1.374   1.929  0.00  0.00    -0.132 NA
ATOM      3  N   UNL     1      -5.347  -1.694   0.986  0.00  0.00    -0.134 NA
ATOM      4  C   UNL     1      -4.563  -0.685   0.727  0.00  0.00    +0.135 A 
ATOM      5  N   UNL     1      -4.884   0.310   1.585  0.00  0.00    -0.312 N 
ATOM      6  C   UNL     1      -4.234   1.613   1.735  0.00  0.00    +0.144 C 
ATOM      7  C   UNL     1      -3.617   2.048   0.408  0.00  0.00    +0.130 C 
ATOM      8  N   UNL     1      -2.301   1.409   0.255  0.00  0.00    -0.294 N 
ATOM      9  C   UNL     1      -2.211  -0.052   0.277  0.00  0.00    +0.116 C 
ATOM     10  C   UNL     1      -3.495  -0.624  -0.333  0.00  0.00    +0.095 C 
ATOM     11  C   UNL     1      -1.192   2.159   0.101  0.00  0.00    +0.275 C 
ATOM     12  O   UNL     1      -1.286   3.366  -0.029  0.00  0.00    -0.267 OA
ENDROOT
BRANCH  11  13
ATOM     13  C   UNL     1       0.129   1.522   0.090  0.00  0.00    +0.185 C 
ATOM     14  C   UNL     1       1.228   2.251  -0.193  0.00  0.00    +0.051 C 
ATOM     15  F   UNL     1       0.244   0.203   0.358  0.00  0.00    -0.200 F 
BRANCH  14  16
ATOM     16  C   UNL     1       2.564   1.647  -0.067  0.00  0.00    -0.022 A 
ATOM     17  C   UNL     1       3.709   2.438  -0.209  0.00  0.00    +0.008 A 
ATOM     18  C   UNL     1       4.957   1.867  -0.085  0.00  0.00    +0.001 A 
ATOM     19  C   UNL     1       5.080   0.511   0.168  0.00  0.00    +0.000 A 
ATOM     20  C   UNL     1       3.952  -0.279   0.304  0.00  0.00    +0.001 A 
ATOM     21  C   UNL     1       2.696   0.279   0.189  0.00  0.00    +0.008 A 
ENDBRANCH  14  16
ENDBRANCH  11  13
BRANCH   1  22
ATOM     22  C   UNL     1      -6.668   0.605   3.391  0.00  0.00    +0.141 C 
BRANCH  22  23
ATOM     23  N   UNL     1      -6.861  -0.261   4.556  0.00  0.00    -0.307 N 
ATOM     24  C   UNL     1      -7.026   0.281   5.779  0.00  0.00    +0.197 C 
ATOM     25  O   UNL     1      -7.014   1.486   5.914  0.00  0.00    -0.278 OA
ATOM     26  H   UNL     1      -6.871  -1.225   4.448  0.00  0.00    +0.149 HD
BRANCH  24  27
ATOM     27  C   UNL     1      -7.225  -0.610   6.978  0.00  0.00    +0.018 C 
BRANCH  27  30
ATOM     28  C   UNL     1      -7.810  -0.596   9.328  0.00  0.00    -0.096 C 
ATOM     29  C   UNL     1      -6.138   0.940   8.487  0.00  0.00    -0.096 C 
ATOM     30  N   UNL     1      -7.400   0.236   8.177  0.00  0.00    +0.382 N 
ATOM     31  H   UNL     1      -8.133   0.932   7.991  0.00  0.00    -0.082 HD
ENDBRANCH  27  30
ENDBRANCH  24  27
ENDBRANCH  22  23
BRANCH  22  32
ATOM     32  C   UNL     1      -8.030   1.046   2.851  0.00  0.00    +0.033 C 
BRANCH  32  34
ATOM     33  C   UNL     1      -7.939   3.212   4.093  0.00  0.00    +0.007 C 
ATOM     34  C   UNL     1      -8.733   1.919   3.892  0.00  0.00    -0.015 C 
ATOM     35  C   UNL     1     -10.143   2.257   3.405  0.00  0.00    +0.007 C 
ENDBRANCH  32  34
ENDBRANCH  22  32
ENDBRANCH   1  22
TORSDOF 8
