REMARK  Name = ZINC20724214
REMARK  6 active torsions:
REMARK  status: ('A' for Active; 'I' for Inactive)
REMARK    1  A    between atoms: C_1  and  C_2
REMARK    2  A    between atoms: C_2  and  C_4
REMARK    3  A    between atoms: C_2  and  N_8
REMARK    4  A    between atoms: C_4  and  O_6
REMARK    5  A    between atoms: O_6  and  C_7
REMARK    6  A    between atoms: C_20  and  C_22
REMARK                            x       y       z     vdW  Elec       q    Type
REMARK                         _______ _______ _______ _____ _____    ______ ____
ROOT
ATOM      1  N   UNL     1      -1.400  -0.360   2.504  0.00  0.00    -0.286 N 
ATOM      2  C   UNL     1      -0.083  -0.607   2.364  0.00  0.00    +0.304 C 
ATOM      3  O   UNL     1       0.438  -0.527   1.268  0.00  0.00    -0.253 OA
ATOM      4  N   UNL     1       0.657  -0.944   3.438  0.00  0.00    -0.273 N 
ATOM      5  C   UNL     1       2.114  -1.111   3.327  0.00  0.00    +0.116 C 
ATOM      6  C   UNL     1       2.475  -2.573   3.621  0.00  0.00    +0.074 C 
ATOM      7  C   UNL     1       1.717  -3.024   4.841  0.00  0.00    +0.040 A 
ATOM      8  C   UNL     1       0.629  -2.404   5.347  0.00  0.00    +0.062 A 
ATOM      9  N   UNL     1       0.225  -3.084   6.422  0.00  0.00    -0.348 N 
ATOM     10  C   UNL     1       1.022  -4.105   6.607  0.00  0.00    +0.171 A 
ATOM     11  N   UNL     1       1.968  -4.099   5.639  0.00  0.00    -0.349 N 
ATOM     12  H   UNL     1       2.688  -4.740   5.534  0.00  0.00    +0.166 HD
ATOM     13  C   UNL     1       0.027  -1.147   4.755  0.00  0.00    +0.159 C 
ATOM     14  H   UNL     1      -1.830  -0.494   3.363  0.00  0.00    +0.151 HD
ATOM     15  H   UNL     1      -0.538  -2.858   6.977  0.00  0.00    +0.167 HD
ENDROOT
BRANCH  13  16
ATOM     16  C   UNL     1       0.313   0.033   5.648  0.00  0.00    +0.017 A 
ATOM     17  C   UNL     1       1.265  -0.069   6.646  0.00  0.00    +0.009 A 
ATOM     18  C   UNL     1       1.529   1.012   7.465  0.00  0.00    +0.003 A 
ATOM     19  C   UNL     1       0.841   2.198   7.289  0.00  0.00    +0.041 A 
ATOM     20  C   UNL     1      -0.112   2.304   6.292  0.00  0.00    +0.159 A 
ATOM     21  C   UNL     1      -0.373   1.221   5.466  0.00  0.00    +0.164 A 
ATOM     22  F   UNL     1      -1.299   1.323   4.488  0.00  0.00    -0.202 F 
ATOM     23  F   UNL     1      -0.785   3.463   6.120  0.00  0.00    -0.202 F 
ENDBRANCH  13  16
BRANCH   1  25
ATOM     24  C   UNL     1      -2.646  -1.087   0.528  0.00  0.00    +0.040 C 
ATOM     25  C   UNL     1      -2.183   0.112   1.358  0.00  0.00    +0.180 C 
BRANCH  25  26
ATOM     26  C   UNL     1      -3.385   0.876   1.851  0.00  0.00    +0.327 C 
ATOM     27  O   UNL     1      -3.569   1.012   3.038  0.00  0.00    -0.249 OA
BRANCH  26  28
ATOM     28  O   UNL     1      -4.251   1.404   0.973  0.00  0.00    -0.467 OA
ATOM     29  C   UNL     1      -5.367   2.115   1.510  0.00  0.00    +0.280 C 
ENDBRANCH  26  28
ENDBRANCH  25  26
ENDBRANCH   1  25
TORSDOF 4
