REMARK  Name = ZINC38872007
REMARK  6 active torsions:
REMARK  status: ('A' for Active; 'I' for Inactive)
REMARK    1  A    between atoms: C_1  and  C_2
REMARK    2  A    between atoms: C_9  and  C_14
REMARK    3  A    between atoms: C_16  and  N_26
REMARK    4  A    between atoms: C_20  and  C_25
REMARK    5  A    between atoms: N_26  and  C_27
REMARK    6  A    between atoms: C_27  and  C_28
REMARK                            x       y       z     vdW  Elec       q    Type
REMARK                         _______ _______ _______ _____ _____    ______ ____
ROOT
ATOM      1  C   UNL     1      -1.108  -4.908   3.021  0.00  0.00    +0.131 C 
ATOM      2  C   UNL     1      -1.116  -6.447   2.990  0.00  0.00    +0.171 C 
ATOM      3  N   UNL     1      -2.328  -6.771   2.219  0.00  0.00    -0.275 N 
ATOM      4  C   UNL     1      -2.853  -7.981   1.866  0.00  0.00    +0.081 C 
ATOM      5  C   UNL     1      -3.990  -8.060   1.146  0.00  0.00    -0.036 C 
ATOM      6  C   UNL     1      -4.653  -6.886   0.748  0.00  0.00    +0.008 C 
ATOM      7  C   UNL     1      -4.146  -5.677   1.089  0.00  0.00    +0.042 C 
ATOM      8  C   UNL     1      -2.944  -5.604   1.850  0.00  0.00    +0.100 C 
ATOM      9  N   UNL     1      -2.309  -4.527   2.271  0.00  0.00    -0.366 N 
ATOM     10  C   UNL     1      -4.551  -9.407   0.769  0.00  0.00    +0.045 C 
ATOM     11  H   UNL     1      -2.594  -3.614   2.109  0.00  0.00    +0.161 HD
ENDROOT
BRANCH   1  20
ATOM     12  C   UNL     1       5.374  -3.554   5.695  0.00  0.00    +0.044 C 
ATOM     13  C   UNL     1       4.153  -3.205   4.885  0.00  0.00    -0.050 A 
ATOM     14  C   UNL     1       3.862  -1.865   4.630  0.00  0.00    +0.005 A 
ATOM     15  C   UNL     1       2.780  -1.474   3.908  0.00  0.00    +0.024 A 
ATOM     16  C   UNL     1       1.893  -2.428   3.377  0.00  0.00    +0.040 A 
ATOM     17  N   UNL     1       0.835  -2.033   2.669  0.00  0.00    -0.284 N 
ATOM     18  C   UNL     1      -0.038  -2.876   2.143  0.00  0.00    +0.226 C 
ATOM     19  O   UNL     1      -0.985  -2.455   1.506  0.00  0.00    -0.275 OA
ATOM     20  C   UNL     1       0.147  -4.364   2.336  0.00  0.00    +0.124 C 
ATOM     21  C   UNL     1       1.349  -4.819   3.140  0.00  0.00    -0.003 C 
ATOM     22  C   UNL     1       2.175  -3.852   3.630  0.00  0.00    -0.007 A 
ATOM     23  C   UNL     1       3.361  -4.203   4.412  0.00  0.00    +0.012 A 
ATOM     24  H   UNL     1       0.698  -1.082   2.534  0.00  0.00    +0.155 HD
ENDBRANCH   1  20
BRANCH   2  25
ATOM     25  N   UNL     1       0.084  -6.956   2.312  0.00  0.00    -0.292 NA
ATOM     26  H   UNL     1      -0.121  -7.209   1.357  0.00  0.00    +0.124 HD
BRANCH  25  27
ATOM     27  C   UNL     1       0.661  -8.091   3.045  0.00  0.00    +0.118 C 
BRANCH  27  28
ATOM     28  C   UNL     1       1.887  -8.585   2.321  0.00  0.00    -0.033 A 
ATOM     29  C   UNL     1       1.768  -9.563   1.350  0.00  0.00    +0.008 A 
ATOM     30  C   UNL     1       2.892 -10.017   0.685  0.00  0.00    +0.038 A 
ATOM     31  C   UNL     1       4.136  -9.492   0.991  0.00  0.00    +0.123 A 
ATOM     32  C   UNL     1       4.253  -8.512   1.963  0.00  0.00    +0.038 A 
ATOM     33  C   UNL     1       3.128  -8.057   2.623  0.00  0.00    +0.008 A 
ATOM     34  F   UNL     1       5.235  -9.935   0.342  0.00  0.00    -0.205 F 
ENDBRANCH  27  28
ENDBRANCH  25  27
ENDBRANCH   2  25
TORSDOF 4
