REMARK  Name = ZINC39570109
REMARK  7 active torsions:
REMARK  status: ('A' for Active; 'I' for Inactive)
REMARK    1  A    between atoms: C_1  and  C_2
REMARK    2  A    between atoms: C_5  and  C_8
REMARK    3  A    between atoms: C_8  and  C_10
REMARK    4  A    between atoms: C_10  and  N_11
REMARK    5  A    between atoms: C_14  and  C_18
REMARK    6  A    between atoms: C_14  and  C_19
REMARK    7  A    between atoms: C_22  and  N_25
REMARK                            x       y       z     vdW  Elec       q    Type
REMARK                         _______ _______ _______ _____ _____    ______ ____
ROOT
ATOM      1  N   UNL     1       0.092  -6.445   1.004  0.00  0.00    -0.216 N 
ATOM      2  C   UNL     1      -1.014  -7.202   0.862  0.00  0.00    +0.251 C 
ATOM      3  O   UNL     1      -2.167  -6.834   0.935  0.00  0.00    -0.272 OA
ATOM      4  C   UNL     1      -0.516  -8.607   0.590  0.00  0.00    +0.135 C 
ATOM      5  N   UNL     1       0.950  -8.466   0.613  0.00  0.00    -0.281 N 
ATOM      6  C   UNL     1       1.207  -7.168   0.857  0.00  0.00    +0.310 C 
ATOM      7  O   UNL     1       2.328  -6.706   0.937  0.00  0.00    -0.252 OA
ATOM      8  C   UNL     1      -0.982  -9.565   1.689  0.00  0.00    +0.047 C 
ATOM      9  H   UNL     1       1.602  -9.171   0.476  0.00  0.00    +0.152 HD
ENDROOT
BRANCH   4  10
ATOM     10  C   UNL     1      -0.983  -9.083  -0.761  0.00  0.00    -0.015 A 
ATOM     11  C   UNL     1      -2.174  -8.616  -1.286  0.00  0.00    +0.008 A 
ATOM     12  C   UNL     1      -2.601  -9.052  -2.526  0.00  0.00    +0.033 A 
ATOM     13  C   UNL     1      -1.837  -9.955  -3.242  0.00  0.00    +0.126 A 
ATOM     14  C   UNL     1      -0.646 -10.421  -2.718  0.00  0.00    +0.033 A 
ATOM     15  C   UNL     1      -0.216  -9.981  -1.480  0.00  0.00    +0.008 A 
BRANCH  13  16
ATOM     16  N   UNL     1      -2.296 -10.423  -4.569  0.00  0.00    +0.056 N 
ATOM     17  O   UNL     1      -3.338 -10.015  -5.027  0.00  0.00    -0.126 OA
ATOM     18  O   UNL     1      -1.628 -11.212  -5.196  0.00  0.00    -0.126 OA
ENDBRANCH  13  16
ENDBRANCH   4  10
BRANCH   1  19
ATOM     19  C   UNL     1       0.075  -5.006   1.280  0.00  0.00    +0.197 C 
BRANCH  19  20
ATOM     20  C   UNL     1       0.058  -4.245  -0.021  0.00  0.00    +0.181 C 
ATOM     21  O   UNL     1       0.060  -4.846  -1.075  0.00  0.00    -0.290 OA
BRANCH  20  26
ATOM     22  C   UNL     1      -0.018   1.503   0.010  0.00  0.00    +0.044 C 
ATOM     23  C   UNL     1       0.002  -0.004   0.002  0.00  0.00    -0.050 A 
ATOM     24  C   UNL     1       0.006  -0.686  -1.202  0.00  0.00    +0.004 A 
ATOM     25  C   UNL     1       0.024  -2.064  -1.218  0.00  0.00    +0.011 A 
ATOM     26  C   UNL     1       0.039  -2.774  -0.013  0.00  0.00    +0.019 A 
ATOM     27  C   UNL     1       0.036  -2.078   1.200  0.00  0.00    +0.011 A 
ATOM     28  C   UNL     1       0.023  -0.699   1.199  0.00  0.00    +0.004 A 
ENDBRANCH  20  26
ENDBRANCH  19  20
ENDBRANCH   1  19
TORSDOF 5
