REMARK  Name = ZINC38773222
REMARK  6 active torsions:
REMARK  status: ('A' for Active; 'I' for Inactive)
REMARK    1  A    between atoms: C_4  and  N_10
REMARK    2  A    between atoms: C_5  and  C_7
REMARK    3  A    between atoms: C_11  and  C_13
REMARK    4  A    between atoms: N_16  and  S_19
REMARK    5  A    between atoms: S_19  and  C_22
REMARK    6  A    between atoms: C_22  and  C_23
REMARK                            x       y       z     vdW  Elec       q    Type
REMARK                         _______ _______ _______ _____ _____    ______ ____
ROOT
ATOM      1  C   UNL     1       5.952  -0.443  -0.353  0.00  0.00    +0.078 C 
ATOM      2  C   UNL     1       5.943  -1.344  -1.590  0.00  0.00    +0.030 C 
ATOM      3  C   UNL     1       7.300  -2.045  -1.715  0.00  0.00    +0.110 C 
ATOM      4  N   UNL     1       8.360  -1.028  -1.718  0.00  0.00    -0.181 NA
ATOM      5  C   UNL     1       8.405  -0.052  -0.620  0.00  0.00    +0.110 C 
ATOM      6  C   UNL     1       7.036   0.627  -0.507  0.00  0.00    +0.030 C 
ENDROOT
BRANCH   1   8
ATOM      7  N   UNL     1       3.498  -0.527  -0.058  0.00  0.00    -0.285 N 
ATOM      8  C   UNL     1       4.608   0.223  -0.207  0.00  0.00    +0.220 C 
ATOM      9  O   UNL     1       4.525   1.432  -0.225  0.00  0.00    -0.275 OA
ATOM     10  H   UNL     1       3.571  -1.490   0.038  0.00  0.00    +0.155 HD
BRANCH   7  14
ATOM     11  C   UNL     1      -0.254   1.292  -0.007  0.00  0.00    +0.001 A 
ATOM     12  C   UNL     1       0.809   1.903  -0.652  0.00  0.00    +0.002 A 
ATOM     13  C   UNL     1       2.052   1.303  -0.670  0.00  0.00    +0.024 A 
ATOM     14  C   UNL     1       2.244   0.080  -0.040  0.00  0.00    +0.046 A 
ATOM     15  C   UNL     1       1.169  -0.540   0.614  0.00  0.00    +0.058 A 
ATOM     16  C   UNL     1      -0.083   0.079   0.624  0.00  0.00    +0.015 A 
BRANCH  15  17
ATOM     17  C   UNL     1       1.360  -1.839   1.287  0.00  0.00    +0.243 C 
ATOM     18  O   UNL     1       2.471  -2.329   1.359  0.00  0.00    -0.270 OA
ATOM     19  N   UNL     1       0.304  -2.482   1.821  0.00  0.00    -0.325 N 
ATOM     20  H   UNL     1      -0.582  -2.091   1.764  0.00  0.00    +0.145 HD
ATOM     21  H   UNL     1       0.429  -3.337   2.264  0.00  0.00    +0.145 HD
ENDBRANCH  15  17
ENDBRANCH   7  14
ENDBRANCH   1   8
BRANCH   4  22
ATOM     22  S   UNL     1       9.482  -0.982  -2.934  0.00  0.00    +0.036 S 
ATOM     23  O   UNL     1      10.624  -0.368  -2.351  0.00  0.00    -0.158 OA
ATOM     24  O   UNL     1       9.545  -2.315  -3.421  0.00  0.00    -0.158 OA
BRANCH  22  25
ATOM     25  C   UNL     1       8.761   0.109  -4.192  0.00  0.00    +0.220 C 
BRANCH  25  26
ATOM     26  C   UNL     1       9.709   0.224  -5.359  0.00  0.00    -0.025 A 
ATOM     27  C   UNL     1      10.670   1.218  -5.373  0.00  0.00    +0.006 A 
ATOM     28  C   UNL     1      11.539   1.324  -6.442  0.00  0.00    +0.015 A 
ATOM     29  C   UNL     1      11.447   0.436  -7.499  0.00  0.00    +0.018 A 
ATOM     30  C   UNL     1      10.485  -0.558  -7.484  0.00  0.00    +0.015 A 
ATOM     31  C   UNL     1       9.620  -0.667  -6.412  0.00  0.00    +0.006 A 
ATOM     32 BR   UNL     1      12.635   0.581  -8.962  0.00  0.00    -0.050 Br
ENDBRANCH  25  26
ENDBRANCH  22  25
ENDBRANCH   4  22
TORSDOF 6
