REMARK  Name = ZINC66596297
REMARK  7 active torsions:
REMARK  status: ('A' for Active; 'I' for Inactive)
REMARK    1  A    between atoms: C_1  and  C_2
REMARK    2  A    between atoms: C_2  and  C_7
REMARK    3  A    between atoms: C_7  and  N_8
REMARK    4  A    between atoms: N_11  and  C_12
REMARK    5  A    between atoms: C_12  and  C_13
REMARK    6  A    between atoms: C_13  and  C_14
REMARK    7  A    between atoms: C_14  and  N_15
REMARK                            x       y       z     vdW  Elec       q    Type
REMARK                         _______ _______ _______ _____ _____    ______ ____
ROOT
ATOM      1  C   UNL     1      -5.423  -0.335  -2.802  0.00  0.00    +0.107 C 
ENDROOT
BRANCH   1   5
ATOM      2  N   UNL     1      -2.117  -0.054  -1.217  0.00  0.00    -0.299 N 
ATOM      3  C   UNL     1      -3.397  -0.406  -1.450  0.00  0.00    +0.300 C 
ATOM      4  O   UNL     1      -3.980  -1.132  -0.668  0.00  0.00    -0.253 OA
ATOM      5  N   UNL     1      -4.032   0.047  -2.549  0.00  0.00    -0.299 N 
ATOM      6  H   UNL     1      -1.653   0.525  -1.841  0.00  0.00    +0.150 HD
ATOM      7  H   UNL     1      -3.567   0.627  -3.173  0.00  0.00    +0.150 HD
BRANCH   2   8
ATOM      8  C   UNL     1      -1.428  -0.547  -0.022  0.00  0.00    +0.112 C 
BRANCH   8  10
ATOM      9  C   UNL     1      -0.019   1.526   0.010  0.00  0.00    +0.013 C 
ATOM     10  C   UNL     1       0.002  -0.004   0.002  0.00  0.00    -0.016 C 
ATOM     11  C   UNL     1       0.783  -0.515  -1.226  0.00  0.00    +0.008 C 
ATOM     12  C   UNL     1       2.213  -0.768  -0.688  0.00  0.00    +0.001 C 
ATOM     13  C   UNL     1       1.950  -1.339   0.728  0.00  0.00    +0.001 C 
ATOM     14  C   UNL     1       0.744  -0.528   1.244  0.00  0.00    +0.008 C 
ENDBRANCH   8  10
ENDBRANCH   2   8
ENDBRANCH   1   5
BRANCH   1  15
ATOM     15  C   UNL     1      -5.900   0.310  -4.105  0.00  0.00    +0.038 C 
BRANCH  15  16
ATOM     16  C   UNL     1      -7.354  -0.089  -4.370  0.00  0.00    +0.119 C 
BRANCH  16  17
ATOM     17  N   UNL     1      -7.810   0.528  -5.617  0.00  0.00    -0.224 N 
ATOM     18  C   UNL     1      -8.392   1.744  -5.694  0.00  0.00    +0.246 C 
ATOM     19  O   UNL     1      -8.627   2.506  -4.781  0.00  0.00    -0.273 OA
ATOM     20  C   UNL     1      -8.685   1.953  -7.158  0.00  0.00    +0.113 C 
ATOM     21  C   UNL     1      -7.958   3.193  -7.695  0.00  0.00    +0.035 C 
ATOM     22  C   UNL     1      -8.944   3.783  -8.737  0.00  0.00    +0.003 C 
ATOM     23  C   UNL     1     -10.326   3.536  -8.082  0.00  0.00    +0.003 C 
ATOM     24  C   UNL     1     -10.182   2.156  -7.401  0.00  0.00    +0.035 C 
ATOM     25  N   UNL     1      -8.199   0.733  -7.807  0.00  0.00    -0.285 N 
ATOM     26  C   UNL     1      -7.698  -0.042  -6.824  0.00  0.00    +0.309 C 
ATOM     27  O   UNL     1      -7.204  -1.137  -7.012  0.00  0.00    -0.252 OA
ATOM     28  H   UNL     1      -8.229   0.526  -8.754  0.00  0.00    +0.151 HD
ENDBRANCH  16  17
ENDBRANCH  15  16
ENDBRANCH   1  15
TORSDOF 6
