REMARK  Name = ZINC13957891
REMARK  9 active torsions:
REMARK  status: ('A' for Active; 'I' for Inactive)
REMARK    1  A    between atoms: C_1  and  N_2
REMARK    2  A    between atoms: N_2  and  C_3
REMARK    3  A    between atoms: N_2  and  S_19
REMARK    4  A    between atoms: C_3  and  C_4
REMARK    5  A    between atoms: C_4  and  O_6
REMARK    6  A    between atoms: O_6  and  N_7
REMARK    7  A    between atoms: C_8  and  C_9
REMARK    8  A    between atoms: C_13  and  N_15
REMARK    9  A    between atoms: S_19  and  C_22
REMARK                            x       y       z     vdW  Elec       q    Type
REMARK                         _______ _______ _______ _____ _____    ______ ____
ROOT
ATOM      1  C   UNL     1      -1.384  -0.909   1.776  0.00  0.00    +0.351 C 
ATOM      2  O   UNL     1      -2.315  -0.455   1.145  0.00  0.00    -0.247 OA
ENDROOT
BRANCH   1   3
ATOM      3  C   UNL     1       0.024  -0.743   1.267  0.00  0.00    +0.232 C 
BRANCH   3   5
ATOM      4  C   UNL     1      -0.018   1.461   0.010  0.00  0.00    +0.132 C 
ATOM      5  N   UNL     1       0.002  -0.004   0.002  0.00  0.00    -0.169 NA
BRANCH   5   6
ATOM      6  S   UNL     1      -0.000  -0.824  -1.437  0.00  0.00    +0.061 S 
ATOM      7  O   UNL     1      -0.531  -2.115  -1.167  0.00  0.00    -0.153 OA
ATOM      8  O   UNL     1      -0.572   0.049  -2.401  0.00  0.00    -0.153 OA
BRANCH   6   9
ATOM      9  C   UNL     1       1.682  -1.059  -1.905  0.00  0.00    +0.106 A 
ATOM     10  C   UNL     1       2.324  -0.109  -2.677  0.00  0.00    +0.029 A 
ATOM     11  C   UNL     1       3.643  -0.293  -3.044  0.00  0.00    +0.017 A 
ATOM     12  C   UNL     1       4.322  -1.428  -2.640  0.00  0.00    +0.018 A 
ATOM     13  C   UNL     1       3.679  -2.379  -1.867  0.00  0.00    +0.017 A 
ATOM     14  C   UNL     1       2.361  -2.192  -1.496  0.00  0.00    +0.029 A 
ATOM     15 BR   UNL     1       6.127  -1.680  -3.142  0.00  0.00    -0.050 Br
ENDBRANCH   6   9
ENDBRANCH   5   6
ENDBRANCH   3   5
ENDBRANCH   1   3
BRANCH   1  16
ATOM     16  O   UNL     1      -1.609  -1.559   2.928  0.00  0.00    -0.314 OA
BRANCH  16  17
ATOM     17  N   UNL     1      -2.976  -1.641   3.286  0.00  0.00    -0.059 NA
ATOM     18  C   UNL     1      -3.327  -2.248   4.383  0.00  0.00    +0.163 C 
ATOM     19  N   UNL     1      -2.363  -2.813   5.198  0.00  0.00    -0.340 N 
ATOM     20  H   UNL     1      -1.426  -2.757   4.953  0.00  0.00    +0.144 HD
ATOM     21  H   UNL     1      -2.624  -3.265   6.016  0.00  0.00    +0.144 HD
BRANCH  18  22
ATOM     22  C   UNL     1      -4.756  -2.333   4.757  0.00  0.00    +0.020 A 
ATOM     23  C   UNL     1      -5.731  -1.769   3.934  0.00  0.00    +0.011 A 
ATOM     24  C   UNL     1      -7.062  -1.852   4.288  0.00  0.00    +0.003 A 
ATOM     25  C   UNL     1      -7.430  -2.493   5.458  0.00  0.00    +0.033 A 
ATOM     26  C   UNL     1      -6.469  -3.054   6.279  0.00  0.00    +0.127 A 
ATOM     27  C   UNL     1      -5.135  -2.982   5.932  0.00  0.00    +0.044 A 
BRANCH  26  28
ATOM     28  N   UNL     1      -6.872  -3.737   7.528  0.00  0.00    +0.056 N 
ATOM     29  O   UNL     1      -8.040  -3.804   7.831  0.00  0.00    -0.126 OA
ATOM     30  O   UNL     1      -6.032  -4.228   8.247  0.00  0.00    -0.126 OA
ENDBRANCH  26  28
ENDBRANCH  18  22
ENDBRANCH  16  17
ENDBRANCH   1  16
TORSDOF 8
