REMARK  Name = ZINC36027152
REMARK  7 active torsions:
REMARK  status: ('A' for Active; 'I' for Inactive)
REMARK    1  A    between atoms: C_1  and  C_2
REMARK    2  A    between atoms: C_2  and  C_3
REMARK    3  A    between atoms: C_3  and  C_5
REMARK    4  A    between atoms: C_3  and  N_6
REMARK    5  A    between atoms: C_9  and  C_29
REMARK    6  A    between atoms: N_15  and  S_18
REMARK    7  A    between atoms: S_18  and  C_21
REMARK                            x       y       z     vdW  Elec       q    Type
REMARK                         _______ _______ _______ _____ _____    ______ ____
ROOT
ATOM      1  N   UNL     1      -2.132  -0.163   1.116  0.00  0.00    -0.311 N 
ATOM      2  C   UNL     1      -1.612  -0.492   2.317  0.00  0.00    +0.200 C 
ATOM      3  O   UNL     1      -0.563  -1.072   2.500  0.00  0.00    -0.277 OA
ATOM      4  C   UNL     1      -2.558  -0.014   3.397  0.00  0.00    +0.016 C 
ATOM      5  N   UNL     1      -3.442   0.965   2.719  0.00  0.00    +0.401 N 
ATOM      6  C   UNL     1      -3.409   0.528   1.309  0.00  0.00    +0.006 C 
ATOM      7  C   UNL     1      -4.572  -0.425   1.041  0.00  0.00    +0.023 C 
ATOM      8  C   UNL     1      -4.513  -0.904  -0.413  0.00  0.00    +0.109 C 
ATOM      9  N   UNL     1      -4.467   0.269  -1.296  0.00  0.00    -0.177 NA
ATOM     10  C   UNL     1      -3.428   1.283  -1.071  0.00  0.00    +0.109 C 
ATOM     11  C   UNL     1      -3.497   1.744   0.388  0.00  0.00    +0.023 C 
ATOM     12  C   UNL     1      -3.377  -1.184   3.945  0.00  0.00    -0.004 C 
ATOM     13  H   UNL     1      -4.380   0.914   3.088  0.00  0.00    -0.082 HD
ATOM     14  H   UNL     1      -3.073   1.900   2.807  0.00  0.00    -0.082 HD
ENDROOT
BRANCH   9  15
ATOM     15  S   UNL     1      -5.566   0.445  -2.522  0.00  0.00    +0.061 S 
ATOM     16  O   UNL     1      -4.965   1.296  -3.488  0.00  0.00    -0.153 OA
ATOM     17  O   UNL     1      -6.033  -0.859  -2.840  0.00  0.00    -0.153 OA
BRANCH  15  18
ATOM     18  C   UNL     1      -6.944   1.326  -1.864  0.00  0.00    +0.107 A 
ATOM     19  C   UNL     1      -7.995   0.635  -1.289  0.00  0.00    +0.030 A 
ATOM     20  C   UNL     1      -9.075   1.325  -0.773  0.00  0.00    +0.023 A 
ATOM     21  C   UNL     1      -9.106   2.707  -0.831  0.00  0.00    +0.059 A 
ATOM     22  C   UNL     1      -8.053   3.398  -1.406  0.00  0.00    +0.061 A 
ATOM     23  C   UNL     1      -6.970   2.707  -1.917  0.00  0.00    +0.050 A 
ATOM     24 CL   UNL     1      -8.091   5.132  -1.480  0.00  0.00    -0.082 Cl
ATOM     25 CL   UNL     1     -10.464   3.573  -0.183  0.00  0.00    -0.082 Cl
ENDBRANCH  15  18
ENDBRANCH   9  15
BRANCH   1  26
ATOM     26  C   UNL     1      -1.512  -0.449  -0.180  0.00  0.00    +0.071 C 
ATOM     27  C   UNL     1      -1.024  -1.899  -0.204  0.00  0.00    +0.028 C 
BRANCH  26  29
ATOM     28  C   UNL     1      -0.829   1.934  -0.497  0.00  0.00    +0.005 C 
ATOM     29  C   UNL     1      -0.325   0.492  -0.396  0.00  0.00    +0.019 C 
ENDBRANCH  26  29
ENDBRANCH   1  26
TORSDOF 4
