REMARK  Name = ZINC64959855
REMARK  6 active torsions:
REMARK  status: ('A' for Active; 'I' for Inactive)
REMARK    1  A    between atoms: C_1  and  C_2
REMARK    2  A    between atoms: C_2  and  O_3
REMARK    3  A    between atoms: O_3  and  C_4
REMARK    4  A    between atoms: C_7  and  N_10
REMARK    5  A    between atoms: C_11  and  C_13
REMARK    6  A    between atoms: C_18  and  C_26
REMARK                            x       y       z     vdW  Elec       q    Type
REMARK                         _______ _______ _______ _____ _____    ______ ____
ROOT
ATOM      1  C   UNL     1       2.070  -7.957   2.869  0.00  0.00    +0.247 C 
ATOM      2  N   UNL     1       3.143  -8.236   3.821  0.00  0.00    -0.319 N 
ATOM      3  C   UNL     1       3.019  -8.040   5.193  0.00  0.00    +0.056 A 
ATOM      4  C   UNL     1       4.175  -7.885   5.957  0.00  0.00    +0.028 A 
ATOM      5  C   UNL     1       4.086  -7.705   7.322  0.00  0.00    -0.049 A 
ATOM      6  C   UNL     1       2.850  -7.679   7.943  0.00  0.00    +0.005 A 
ATOM      7  C   UNL     1       1.698  -7.825   7.191  0.00  0.00    +0.030 A 
ATOM      8  C   UNL     1       1.783  -7.997   5.825  0.00  0.00    +0.126 A 
ATOM      9  S   UNL     1       0.308  -8.143   4.863  0.00  0.00    +0.062 S 
ATOM     10  O   UNL     1      -0.429  -9.234   5.397  0.00  0.00    -0.153 OA
ATOM     11  O   UNL     1      -0.236  -6.837   4.735  0.00  0.00    -0.153 OA
ATOM     12  N   UNL     1       0.831  -8.606   3.344  0.00  0.00    -0.161 NA
ATOM     13  C   UNL     1       5.340  -7.537   8.140  0.00  0.00    +0.044 C 
ATOM     14  H   UNL     1       3.985  -8.576   3.479  0.00  0.00    +0.148 HD
ATOM     15  H   UNL     1       0.354  -9.259   2.809  0.00  0.00    +0.151 HD
ENDROOT
BRANCH   1  17
ATOM     16  N   UNL     1       1.135  -5.957   1.754  0.00  0.00    -0.283 N 
ATOM     17  C   UNL     1       1.856  -6.469   2.771  0.00  0.00    +0.254 C 
ATOM     18  O   UNL     1       2.332  -5.731   3.608  0.00  0.00    -0.272 OA
ATOM     19  H   UNL     1       0.691  -6.550   1.128  0.00  0.00    +0.155 HD
BRANCH  16  23
ATOM     20  C   UNL     1       0.817  -1.825   1.294  0.00  0.00    +0.121 A 
ATOM     21  C   UNL     1       1.984  -2.378   1.801  0.00  0.00    +0.047 A 
ATOM     22  C   UNL     1       2.090  -3.747   1.954  0.00  0.00    +0.027 A 
ATOM     23  C   UNL     1       1.028  -4.569   1.600  0.00  0.00    +0.034 A 
ATOM     24  C   UNL     1      -0.139  -4.014   1.093  0.00  0.00    +0.027 A 
ATOM     25  C   UNL     1      -0.246  -2.645   0.946  0.00  0.00    +0.047 A 
BRANCH  20  26
ATOM     26  O   UNL     1       0.714  -0.477   1.145  0.00  0.00    -0.492 OA
BRANCH  26  28
ATOM     27  C   UNL     1       1.545   1.787   1.285  0.00  0.00    +0.048 C 
ATOM     28  C   UNL     1       1.847   0.306   1.523  0.00  0.00    +0.225 C 
ENDBRANCH  26  28
ENDBRANCH  20  26
ENDBRANCH  16  23
ENDBRANCH   1  17
TORSDOF 4
