REMARK  Name = ZINC04100071
REMARK  7 active torsions:
REMARK  status: ('A' for Active; 'I' for Inactive)
REMARK    1  A    between atoms: C_3  and  N_10
REMARK    2  A    between atoms: C_5  and  N_7
REMARK    3  A    between atoms: C_14  and  S_18
REMARK    4  A    between atoms: S_18  and  C_19
REMARK    5  A    between atoms: N_21  and  N_22
REMARK    6  A    between atoms: C_23  and  C_24
REMARK    7  A    between atoms: C_27  and  O_30
REMARK                            x       y       z     vdW  Elec       q    Type
REMARK                         _______ _______ _______ _____ _____    ______ ____
ROOT
ATOM      1  S   UNL     1       5.407   4.969   1.344  0.00  0.00    -0.078 S 
ENDROOT
BRANCH   1   6
ATOM      2  N   UNL     1       3.586   2.125  -0.021  0.00  0.00    -0.209 N 
ATOM      3  C   UNL     1       4.783   1.530   0.057  0.00  0.00    +0.228 C 
ATOM      4  O   UNL     1       4.969   0.335   0.141  0.00  0.00    -0.275 OA
ATOM      5  C   UNL     1       5.867   2.585   0.022  0.00  0.00    +0.120 C 
ATOM      6  C   UNL     1       5.080   3.908  -0.090  0.00  0.00    +0.149 C 
ATOM      7  C   UNL     1       3.635   3.460  -0.113  0.00  0.00    +0.240 C 
ATOM      8  O   UNL     1       2.674   4.194  -0.199  0.00  0.00    -0.274 OA
BRANCH   2  11
ATOM      9  C   UNL     1       0.398   0.667  -1.139  0.00  0.00    +0.004 A 
ATOM     10  C   UNL     1       1.585   1.374  -1.150  0.00  0.00    +0.024 A 
ATOM     11  C   UNL     1       2.381   1.409  -0.013  0.00  0.00    +0.046 A 
ATOM     12  C   UNL     1       1.981   0.733   1.132  0.00  0.00    +0.056 A 
ATOM     13  C   UNL     1       0.793   0.028   1.137  0.00  0.00    +0.128 A 
ATOM     14  C   UNL     1       0.003  -0.005   0.003  0.00  0.00    +0.033 A 
BRANCH  13  15
ATOM     15  N   UNL     1       0.367  -0.693   2.357  0.00  0.00    +0.056 N 
ATOM     16  O   UNL     1       1.058  -0.665   3.348  0.00  0.00    -0.126 OA
ATOM     17  O   UNL     1      -0.673  -1.311   2.362  0.00  0.00    -0.126 OA
ENDBRANCH  13  15
ENDBRANCH   2  11
ENDBRANCH   1   6
BRANCH   1  18
ATOM     18  C   UNL     1       4.556   6.465   0.971  0.00  0.00    +0.146 C 
ATOM     19  N   UNL     1       3.895   6.577  -0.149  0.00  0.00    -0.380 N 
ATOM     20  N   UNL     1       4.588   7.516   1.859  0.00  0.00    -0.217 N 
ATOM     21  H   UNL     1       3.426   7.401  -0.354  0.00  0.00    +0.158 HD
ATOM     22  H   UNL     1       5.080   7.433   2.691  0.00  0.00    +0.176 HD
ATOM     23  H   UNL     1       3.872   5.837  -0.775  0.00  0.00    +0.158 HD
BRANCH  20  24
ATOM     24  N   UNL     1       3.911   8.706   1.562  0.00  0.00    -0.188 NA
ATOM     25  C   UNL     1       3.942   9.697   2.400  0.00  0.00    +0.138 C 
BRANCH  25  26
ATOM     26  C   UNL     1       3.229  10.949   2.087  0.00  0.00    -0.005 A 
ATOM     27  C   UNL     1       2.516  11.070   0.891  0.00  0.00    +0.013 A 
ATOM     28  C   UNL     1       1.851  12.242   0.603  0.00  0.00    +0.046 A 
ATOM     29  C   UNL     1       1.890  13.303   1.499  0.00  0.00    +0.117 A 
ATOM     30  C   UNL     1       2.598  13.188   2.688  0.00  0.00    +0.046 A 
ATOM     31  C   UNL     1       3.261  12.017   2.987  0.00  0.00    +0.013 A 
BRANCH  29  32
ATOM     32  O   UNL     1       1.233  14.457   1.211  0.00  0.00    -0.507 OA
ATOM     33  H   UNL     1       0.319  14.479   1.528  0.00  0.00    +0.292 HD
ENDBRANCH  29  32
ENDBRANCH  25  26
ENDBRANCH  20  24
ENDBRANCH   1  18
TORSDOF 7
