REMARK  Name = ZINC39665287
REMARK  7 active torsions:
REMARK  status: ('A' for Active; 'I' for Inactive)
REMARK    1  A    between atoms: C_1  and  C_2
REMARK    2  A    between atoms: C_2  and  C_4
REMARK    3  A    between atoms: C_2  and  O_29
REMARK    4  A    between atoms: C_4  and  N_5
REMARK    5  A    between atoms: C_6  and  C_8
REMARK    6  A    between atoms: C_19  and  C_21
REMARK    7  A    between atoms: O_29  and  C_30
REMARK                            x       y       z     vdW  Elec       q    Type
REMARK                         _______ _______ _______ _____ _____    ______ ____
ROOT
ATOM      1  C   UNL     1       1.885  -4.381   3.241  0.00  0.00    +0.100 C 
ATOM      2  C   UNL     1       2.482  -5.003   1.959  0.00  0.00    +0.121 C 
ATOM      3  N   UNL     1       3.928  -5.143   2.249  0.00  0.00    -0.296 N 
ATOM      4  C   UNL     1       3.980  -5.575   3.666  0.00  0.00    +0.115 C 
ATOM      5  C   UNL     1       2.868  -4.762   4.360  0.00  0.00    -0.004 C 
ATOM      6  C   UNL     1       2.167  -5.616   5.412  0.00  0.00    -0.010 C 
ATOM      7  C   UNL     1       3.150  -5.934   6.543  0.00  0.00    -0.082 C 
ATOM      8  N   UNL     1       3.631  -4.683   7.141  0.00  0.00    +0.379 N 
ATOM      9  C   UNL     1       4.385  -3.910   6.146  0.00  0.00    -0.082 C 
ATOM     10  C   UNL     1       3.454  -3.507   4.998  0.00  0.00    -0.010 C 
ATOM     11  C   UNL     1       4.964  -4.926   1.414  0.00  0.00    +0.249 C 
ATOM     12  O   UNL     1       6.098  -5.169   1.776  0.00  0.00    -0.270 OA
ATOM     13  H   UNL     1       2.843  -4.139   7.460  0.00  0.00    -0.086 HD
ATOM     14  H   UNL     1       4.230  -4.894   7.925  0.00  0.00    -0.086 HD
ENDROOT
BRANCH  11  15
ATOM     15  C   UNL     1       4.719  -4.394   0.058  0.00  0.00    +0.073 A 
ATOM     16  C   UNL     1       3.637  -4.857  -0.694  0.00  0.00    +0.036 A 
ATOM     17  C   UNL     1       3.415  -4.355  -1.959  0.00  0.00    +0.042 A 
ATOM     18  C   UNL     1       4.261  -3.393  -2.486  0.00  0.00    +0.023 A 
ATOM     19  C   UNL     1       5.334  -2.929  -1.750  0.00  0.00    +0.040 A 
ATOM     20  C   UNL     1       5.567  -3.419  -0.477  0.00  0.00    +0.136 A 
ATOM     21  F   UNL     1       6.613  -2.961   0.244  0.00  0.00    -0.205 F 
ATOM     22 CL   UNL     1       2.070  -4.931  -2.894  0.00  0.00    -0.084 Cl
ENDBRANCH  11  15
BRANCH   1  24
ATOM     23  N   UNL     1       0.917  -2.189   3.854  0.00  0.00    -0.312 N 
ATOM     24  C   UNL     1       1.798  -2.883   3.106  0.00  0.00    +0.218 C 
ATOM     25  O   UNL     1       2.521  -2.301   2.325  0.00  0.00    -0.275 OA
ATOM     26  H   UNL     1       0.339  -2.654   4.478  0.00  0.00    +0.149 HD
BRANCH  23  27
ATOM     27  C   UNL     1       0.832  -0.732   3.723  0.00  0.00    +0.148 C 
BRANCH  27  29
ATOM     28  C   UNL     1      -0.414   1.307   4.451  0.00  0.00    +0.053 C 
ATOM     29  C   UNL     1      -0.238  -0.196   4.676  0.00  0.00    +0.187 C 
BRANCH  29  30
ATOM     30  O   UNL     1       0.165  -0.431   6.026  0.00  0.00    -0.488 OA
BRANCH  30  31
ATOM     31  C   UNL     1      -0.819  -0.499   6.961  0.00  0.00    +0.121 A 
ATOM     32  C   UNL     1      -2.148  -0.381   6.580  0.00  0.00    +0.045 A 
ATOM     33  C   UNL     1      -3.147  -0.450   7.532  0.00  0.00    +0.004 A 
ATOM     34  C   UNL     1      -2.822  -0.637   8.864  0.00  0.00    +0.000 A 
ATOM     35  C   UNL     1      -1.499  -0.754   9.245  0.00  0.00    +0.004 A 
ATOM     36  C   UNL     1      -0.497  -0.692   8.296  0.00  0.00    +0.045 A 
ENDBRANCH  30  31
ENDBRANCH  29  30
ENDBRANCH  27  29
ENDBRANCH  23  27
ENDBRANCH   1  24
TORSDOF 6
