REMARK  Name = ZINC11030934
REMARK  9 active torsions:
REMARK  status: ('A' for Active; 'I' for Inactive)
REMARK    1  A    between atoms: C_1  and  N_2
REMARK    2  A    between atoms: N_2  and  C_3
REMARK    3  A    between atoms: N_2  and  C_4
REMARK    4  A    between atoms: C_7  and  C_10
REMARK    5  A    between atoms: C_10  and  O_12
REMARK    6  A    between atoms: O_12  and  C_13
REMARK    7  A    between atoms: C_13  and  C_14
REMARK    8  A    between atoms: N_16  and  C_17
REMARK    9  A    between atoms: C_20  and  N_24
REMARK                            x       y       z     vdW  Elec       q    Type
REMARK                         _______ _______ _______ _____ _____    ______ ____
ROOT
ATOM      1  C   UNL     1      -2.394   1.385  -0.084  0.00  0.00    +0.255 C 
ATOM      2  O   UNL     1      -2.383   0.172  -0.091  0.00  0.00    -0.272 OA
ATOM      3  N   UNL     1      -1.237   2.069   0.016  0.00  0.00    -0.282 N 
ATOM      4  H   UNL     1      -1.250   3.035   0.102  0.00  0.00    +0.155 HD
ENDROOT
BRANCH   3   5
ATOM      5  C   UNL     1      -0.016   1.385  -0.005  0.00  0.00    +0.048 A 
ATOM      6  C   UNL     1       0.076   0.144  -0.621  0.00  0.00    +0.026 A 
ATOM      7  C   UNL     1       1.283  -0.526  -0.645  0.00  0.00    +0.034 A 
ATOM      8  C   UNL     1       2.401   0.038  -0.057  0.00  0.00    +0.127 A 
ATOM      9  C   UNL     1       2.314   1.274   0.556  0.00  0.00    +0.049 A 
ATOM     10  C   UNL     1       1.108   1.949   0.585  0.00  0.00    +0.041 A 
ATOM     11 BR   UNL     1       0.990   3.640   1.424  0.00  0.00    -0.048 Br
BRANCH   8  12
ATOM     12  N   UNL     1       3.693  -0.683  -0.086  0.00  0.00    +0.056 N 
ATOM     13  O   UNL     1       3.772  -1.772  -0.626  0.00  0.00    -0.126 OA
ATOM     14  O   UNL     1       4.679  -0.187   0.431  0.00  0.00    -0.126 OA
ENDBRANCH   8  12
ENDBRANCH   3   5
BRANCH   1  15
ATOM     15  C   UNL     1      -3.702   2.128  -0.186  0.00  0.00    +0.328 C 
BRANCH  15  16
ATOM     16  O   UNL     1      -4.793   1.175  -0.282  0.00  0.00    -0.452 OA
BRANCH  16  17
ATOM     17  C   UNL     1      -6.039   1.679  -0.382  0.00  0.00    +0.340 C 
ATOM     18  O   UNL     1      -6.208   2.883  -0.388  0.00  0.00    -0.245 OA
BRANCH  17  22
ATOM     19  C   UNL     1      -9.367  -0.932  -0.674  0.00  0.00    +0.029 A 
ATOM     20  C   UNL     1      -9.563   0.446  -0.680  0.00  0.00    +0.024 A 
ATOM     21  C   UNL     1      -8.489   1.294  -0.586  0.00  0.00    +0.017 A 
ATOM     22  C   UNL     1      -7.195   0.772  -0.483  0.00  0.00    +0.059 A 
ATOM     23  C   UNL     1      -7.002  -0.613  -0.481  0.00  0.00    +0.017 A 
ATOM     24  C   UNL     1      -8.080  -1.455  -0.571  0.00  0.00    +0.024 A 
BRANCH  19  26
ATOM     25  C   UNL     1     -11.800  -1.243  -0.987  0.00  0.00    +0.129 C 
ATOM     26  N   UNL     1     -10.458  -1.788  -0.769  0.00  0.00    -0.336 N 
ATOM     27  C   UNL     1     -10.265  -3.236  -0.652  0.00  0.00    +0.129 C 
ENDBRANCH  19  26
ENDBRANCH  17  22
ENDBRANCH  16  17
ENDBRANCH  15  16
ENDBRANCH   1  15
TORSDOF 7
