REMARK  Name = ZINC38636001
REMARK  10 active torsions:
REMARK  status: ('A' for Active; 'I' for Inactive)
REMARK    1  A    between atoms: C_1  and  N_2
REMARK    2  A    between atoms: N_2  and  C_3
REMARK    3  A    between atoms: N_2  and  C_4
REMARK    4  A    between atoms: C_7  and  C_10
REMARK    5  A    between atoms: C_10  and  C_12
REMARK    6  A    between atoms: C_10  and  N_31
REMARK    7  A    between atoms: C_12  and  N_13
REMARK    8  A    between atoms: C_14  and  C_16
REMARK    9  A    between atoms: C_19  and  S_22
REMARK   10  A    between atoms: S_22  and  N_25
REMARK                            x       y       z     vdW  Elec       q    Type
REMARK                         _______ _______ _______ _____ _____    ______ ____
ROOT
ATOM      1  N   UNL     1      -2.276  -3.602  -4.516  0.00  0.00    -0.313 N 
ATOM      2  C   UNL     1      -3.589  -3.755  -4.780  0.00  0.00    +0.244 C 
ATOM      3  O   UNL     1      -4.095  -3.159  -5.711  0.00  0.00    -0.270 OA
ATOM      4  H   UNL     1      -1.872  -4.078  -3.773  0.00  0.00    +0.149 HD
ENDROOT
BRANCH   2   5
ATOM      5  C   UNL     1      -4.413  -4.648  -3.939  0.00  0.00    +0.037 A 
ATOM      6  C   UNL     1      -3.837  -5.330  -2.866  0.00  0.00    +0.015 A 
ATOM      7  C   UNL     1      -4.612  -6.161  -2.084  0.00  0.00    +0.029 A 
ATOM      8  C   UNL     1      -5.958  -6.321  -2.362  0.00  0.00    +0.106 A 
ATOM      9  C   UNL     1      -6.536  -5.648  -3.424  0.00  0.00    +0.029 A 
ATOM     10  C   UNL     1      -5.773  -4.809  -4.210  0.00  0.00    +0.015 A 
BRANCH   8  11
ATOM     11  S   UNL     1      -6.941  -7.385  -1.359  0.00  0.00    +0.061 S 
ATOM     12  O   UNL     1      -8.047  -7.787  -2.155  0.00  0.00    -0.153 OA
ATOM     13  O   UNL     1      -6.050  -8.319  -0.765  0.00  0.00    -0.153 OA
BRANCH  11  14
ATOM     14  N   UNL     1      -7.554  -6.466  -0.126  0.00  0.00    -0.172 NA
ATOM     15  C   UNL     1      -6.821  -6.311   1.141  0.00  0.00    +0.137 C 
ATOM     16  C   UNL     1      -6.734  -4.816   1.469  0.00  0.00    +0.177 C 
ATOM     17  O   UNL     1      -8.044  -4.246   1.420  0.00  0.00    -0.377 OA
ATOM     18  C   UNL     1      -8.663  -4.311   0.133  0.00  0.00    +0.177 C 
ATOM     19  C   UNL     1      -8.847  -5.776  -0.266  0.00  0.00    +0.137 C 
ENDBRANCH  11  14
ENDBRANCH   8  11
ENDBRANCH   2   5
BRANCH   1  20
ATOM     20  C   UNL     1      -1.459  -2.717  -5.350  0.00  0.00    +0.094 C 
BRANCH  20  21
ATOM     21  C   UNL     1      -0.050  -2.621  -4.763  0.00  0.00    -0.020 C 
BRANCH  21  25
ATOM     22  C   UNL     1      -0.223  -0.696  -0.950  0.00  0.00    +0.029 A 
ATOM     23  C   UNL     1      -0.134  -2.080  -1.028  0.00  0.00    +0.023 A 
ATOM     24  C   UNL     1      -0.079  -2.699  -2.261  0.00  0.00    +0.004 A 
ATOM     25  C   UNL     1      -0.111  -1.942  -3.418  0.00  0.00    -0.059 A 
ATOM     26  C   UNL     1      -0.199  -0.564  -3.345  0.00  0.00    +0.004 A 
ATOM     27  C   UNL     1      -0.261   0.061  -2.114  0.00  0.00    +0.023 A 
BRANCH  22  29
ATOM     28  C   UNL     1      -0.379   1.392   0.376  0.00  0.00    +0.129 C 
ATOM     29  N   UNL     1      -0.279  -0.067   0.296  0.00  0.00    -0.336 N 
ATOM     30  C   UNL     1      -0.239  -0.867   1.522  0.00  0.00    +0.129 C 
ENDBRANCH  22  29
ENDBRANCH  21  25
BRANCH  21  31
ATOM     31  N   UNL     1       0.805  -1.840  -5.667  0.00  0.00    +0.385 N 
ATOM     32  C   UNL     1       2.182  -1.748  -5.117  0.00  0.00    -0.078 C 
ATOM     33  C   UNL     1       3.042  -1.431  -6.367  0.00  0.00    -0.020 C 
ATOM     34  C   UNL     1       2.368  -2.276  -7.473  0.00  0.00    -0.020 C 
ATOM     35  C   UNL     1       0.936  -2.530  -6.968  0.00  0.00    -0.078 C 
ATOM     36  H   UNL     1       0.420  -0.917  -5.799  0.00  0.00    -0.081 HD
ENDBRANCH  21  31
ENDBRANCH  20  21
ENDBRANCH   1  20
TORSDOF 8
