REMARK  Name = ZINC54670782
REMARK  5 active torsions:
REMARK  status: ('A' for Active; 'I' for Inactive)
REMARK    1  A    between atoms: C_1  and  C_2
REMARK    2  A    between atoms: C_2  and  N_3
REMARK    3  A    between atoms: C_9  and  C_11
REMARK    4  A    between atoms: C_11  and  C_12
REMARK    5  A    between atoms: N_14  and  C_15
REMARK                            x       y       z     vdW  Elec       q    Type
REMARK                         _______ _______ _______ _____ _____    ______ ____
ROOT
ATOM      1  C   UNL     1       0.861  -1.861   0.657  0.00  0.00    +0.219 C 
ATOM      2  O   UNL     1       1.054  -0.946  -0.115  0.00  0.00    -0.275 OA
ATOM      3  N   UNL     1       1.878  -2.343   1.399  0.00  0.00    -0.285 N 
ATOM      4  H   UNL     1       1.710  -3.027   2.066  0.00  0.00    +0.155 HD
ENDROOT
BRANCH   3   5
ATOM      5  C   UNL     1       3.173  -1.858   1.208  0.00  0.00    +0.041 A 
ATOM      6  C   UNL     1       3.377  -0.539   0.865  0.00  0.00    +0.024 A 
ATOM      7  C   UNL     1       4.664  -0.045   0.672  0.00  0.00    +0.002 A 
ATOM      8  C   UNL     1       5.754  -0.848   0.817  0.00  0.00    +0.008 A 
ATOM      9  C   UNL     1       5.589  -2.199   1.166  0.00  0.00    -0.016 A 
ATOM     10  C   UNL     1       4.284  -2.712   1.369  0.00  0.00    +0.003 A 
ATOM     11  C   UNL     1       4.121  -4.061   1.723  0.00  0.00    +0.010 A 
ATOM     12  C   UNL     1       5.216  -4.857   1.870  0.00  0.00    +0.001 A 
ATOM     13  C   UNL     1       6.500  -4.352   1.675  0.00  0.00    +0.001 A 
ATOM     14  C   UNL     1       6.696  -3.052   1.321  0.00  0.00    +0.008 A 
ENDBRANCH   3   5
BRANCH   1  15
ATOM     15  C   UNL     1      -0.516  -2.460   0.785  0.00  0.00    +0.126 C 
BRANCH  15  22
ATOM     16  N   UNL     1      -2.821  -2.311  -0.045  0.00  0.00    -0.287 NA
ATOM     17  C   UNL     1      -2.917  -3.752  -0.318  0.00  0.00    +0.126 C 
ATOM     18  C   UNL     1      -2.542  -4.022  -1.777  0.00  0.00    +0.247 C 
ATOM     19  O   UNL     1      -1.218  -3.528  -2.018  0.00  0.00    -0.462 OA
ATOM     20  C   UNL     1      -1.004  -2.248  -1.645  0.00  0.00    +0.325 C 
ATOM     21  O   UNL     1      -0.480  -1.458  -2.394  0.00  0.00    -0.249 OA
ATOM     22  C   UNL     1      -1.444  -1.834  -0.257  0.00  0.00    +0.175 C 
BRANCH  16  24
ATOM     23  C   UNL     1      -4.805  -2.130   1.378  0.00  0.00    +0.020 C 
ATOM     24  C   UNL     1      -3.282  -1.999   1.314  0.00  0.00    +0.082 C 
ENDBRANCH  16  24
ENDBRANCH  15  22
ENDBRANCH   1  15
TORSDOF 4
