REMARK  Name = ZINC27017985
REMARK  12 active torsions:
REMARK  status: ('A' for Active; 'I' for Inactive)
REMARK    1  A    between atoms: C_1  and  C_2
REMARK    2  A    between atoms: C_3  and  C_33
REMARK    3  A    between atoms: C_4  and  C_10
REMARK    4  A    between atoms: N_12  and  C_27
REMARK    5  A    between atoms: C_14  and  C_15
REMARK    6  A    between atoms: C_18  and  S_21
REMARK    7  A    between atoms: S_21  and  N_24
REMARK    8  A    between atoms: N_24  and  C_25
REMARK    9  A    between atoms: N_24  and  C_26
REMARK   10  A    between atoms: C_33  and  O_35
REMARK   11  A    between atoms: O_35  and  C_36
REMARK   12  A    between atoms: C_36  and  C_37
REMARK                            x       y       z     vdW  Elec       q    Type
REMARK                         _______ _______ _______ _____ _____    ______ ____
ROOT
ATOM      1  C   UNL     1       1.620  -0.722  -0.097  0.00  0.00    +0.023 A 
ATOM      2  C   UNL     1       0.417  -0.253   0.302  0.00  0.00    +0.121 A 
ATOM      3  N   UNL     1       0.574   1.050   0.653  0.00  0.00    -0.239 N 
ATOM      4  N   UNL     1       1.919   1.392   0.463  0.00  0.00    -0.166 NA
ATOM      5  C   UNL     1       2.552   0.329   0.012  0.00  0.00    +0.098 A 
ENDROOT
BRANCH   1   9
ATOM      6  C   UNL     1      -0.559  -3.661  -3.099  0.00  0.00    +0.061 C 
ATOM      7  C   UNL     1       0.249  -3.390  -1.857  0.00  0.00    +0.021 C 
ATOM      8  C   UNL     1       1.120  -2.358  -1.843  0.00  0.00    +0.078 C 
ATOM      9  C   UNL     1       1.912  -2.121  -0.573  0.00  0.00    +0.147 C 
ATOM     10  N   UNL     1       1.666  -3.043   0.549  0.00  0.00    -0.288 N 
ATOM     11  C   UNL     1       0.763  -4.029   0.382  0.00  0.00    +0.304 C 
ATOM     12  O   UNL     1       0.553  -4.796   1.302  0.00  0.00    -0.252 OA
ATOM     13  N   UNL     1       0.090  -4.193  -0.763  0.00  0.00    -0.273 N 
ATOM     14  H   UNL     1       2.214  -2.917   1.494  0.00  0.00    +0.151 HD
ATOM     15  H   UNL     1      -0.625  -5.029  -0.794  0.00  0.00    +0.156 HD
BRANCH   8  16
ATOM     16  C   UNL     1       1.286  -1.525  -2.974  0.00  0.00    +0.339 C 
ATOM     17  O   UNL     1       0.720  -1.796  -4.017  0.00  0.00    -0.245 OA
BRANCH  16  18
ATOM     18  O   UNL     1       2.071  -0.431  -2.897  0.00  0.00    -0.457 OA
BRANCH  18  19
ATOM     19  C   UNL     1       2.107   0.424  -4.042  0.00  0.00    +0.259 C 
BRANCH  19  20
ATOM     20  C   UNL     1       3.114   1.522  -3.818  0.00  0.00    +0.006 C 
ATOM     21  C   UNL     1       3.989   1.809  -4.749  0.00  0.00    +0.007 C 
ENDBRANCH  19  20
ENDBRANCH  18  19
ENDBRANCH  16  18
ENDBRANCH   8  16
ENDBRANCH   1   9
BRANCH   5  22
ATOM     22  C   UNL     1       3.995   0.252  -0.323  0.00  0.00    +0.003 A 
ATOM     23  C   UNL     1       4.734  -0.878   0.023  0.00  0.00    +0.012 A 
ATOM     24  C   UNL     1       6.075  -0.947  -0.296  0.00  0.00    +0.029 A 
ATOM     25  C   UNL     1       6.688   0.107  -0.949  0.00  0.00    +0.105 A 
ATOM     26  C   UNL     1       5.961   1.233  -1.291  0.00  0.00    +0.029 A 
ATOM     27  C   UNL     1       4.618   1.311  -0.981  0.00  0.00    +0.012 A 
BRANCH  25  28
ATOM     28  S   UNL     1       8.402   0.016  -1.347  0.00  0.00    +0.060 S 
ATOM     29  O   UNL     1       8.705  -1.361  -1.523  0.00  0.00    -0.153 OA
ATOM     30  O   UNL     1       8.636   0.984  -2.360  0.00  0.00    -0.153 OA
BRANCH  28  31
ATOM     31  N   UNL     1       9.242   0.518  -0.010  0.00  0.00    -0.183 NA
ATOM     32  C   UNL     1       9.649  -0.455   1.007  0.00  0.00    +0.131 C 
ATOM     33  C   UNL     1       9.579   1.934   0.154  0.00  0.00    +0.131 C 
ENDBRANCH  28  31
ENDBRANCH  25  28
ENDBRANCH   5  22
BRANCH   3  34
ATOM     34  C   UNL     1      -0.435   1.905   1.118  0.00  0.00    +0.065 A 
ATOM     35  C   UNL     1      -1.736   1.438   1.249  0.00  0.00    +0.028 A 
ATOM     36  C   UNL     1      -2.727   2.281   1.712  0.00  0.00    +0.002 A 
ATOM     37  C   UNL     1      -2.427   3.592   2.035  0.00  0.00    +0.000 A 
ATOM     38  C   UNL     1      -1.133   4.061   1.901  0.00  0.00    +0.002 A 
ATOM     39  C   UNL     1      -0.137   3.221   1.443  0.00  0.00    +0.028 A 
ENDBRANCH   3  34
TORSDOF 9
