REMARK  Name = ZINC67239360
REMARK  13 active torsions:
REMARK  status: ('A' for Active; 'I' for Inactive)
REMARK    1  A    between atoms: C_1  and  C_2
REMARK    2  A    between atoms: C_2  and  O_3
REMARK    3  A    between atoms: O_3  and  C_4
REMARK    4  A    between atoms: C_9  and  N_12
REMARK    5  A    between atoms: C_13  and  C_15
REMARK    6  A    between atoms: C_15  and  S_16
REMARK    7  A    between atoms: S_16  and  C_17
REMARK    8  A    between atoms: C_21  and  C_33
REMARK    9  A    between atoms: N_27  and  C_28
REMARK   10  A    between atoms: C_28  and  C_29
REMARK   11  A    between atoms: C_29  and  C_30
REMARK   12  A    between atoms: C_30  and  C_31
REMARK   13  A    between atoms: C_30  and  C_32
REMARK                            x       y       z     vdW  Elec       q    Type
REMARK                         _______ _______ _______ _____ _____    ______ ____
ROOT
ATOM      1  S   UNL     1      -8.679  -6.731   2.744  0.00  0.00    -0.078 S 
ENDROOT
BRANCH   1   2
ATOM      2  C   UNL     1      -9.681  -7.063   4.155  0.00  0.00    +0.173 A 
ATOM      3  N   UNL     1      -9.592  -6.273   5.200  0.00  0.00    -0.222 NA
ATOM      4  C   UNL     1     -10.341  -6.492   6.298  0.00  0.00    +0.097 A 
ATOM      5  C   UNL     1     -10.466  -5.837   7.544  0.00  0.00    +0.051 A 
ATOM      6  C   UNL     1     -11.382  -6.505   8.273  0.00  0.00    +0.016 A 
ATOM      7  N   UNL     1     -11.853  -7.561   7.555  0.00  0.00    -0.353 N 
ATOM      8  H   UNL     1     -12.521  -8.197   7.856  0.00  0.00    +0.166 HD
ATOM      9  C   UNL     1     -11.226  -7.577   6.327  0.00  0.00    +0.131 A 
ATOM     10  C   UNL     1     -11.307  -8.413   5.198  0.00  0.00    +0.279 A 
ATOM     11  O   UNL     1     -12.065  -9.368   5.183  0.00  0.00    -0.265 OA
ATOM     12  N   UNL     1     -10.531  -8.130   4.129  0.00  0.00    -0.286 N 
ATOM     13  C   UNL     1     -11.816  -6.140   9.669  0.00  0.00    +0.063 C 
BRANCH  12  14
ATOM     14  C   UNL     1     -10.598  -8.979   2.936  0.00  0.00    +0.128 C 
BRANCH  14  15
ATOM     15  C   UNL     1      -9.581 -10.115   3.061  0.00  0.00    +0.025 C 
BRANCH  15  16
ATOM     16  C   UNL     1      -9.651 -11.001   1.816  0.00  0.00    -0.016 C 
ATOM     17  C   UNL     1      -8.552 -12.063   1.883  0.00  0.00    +0.007 C 
ATOM     18  C   UNL     1     -11.018 -11.686   1.753  0.00  0.00    +0.007 C 
ENDBRANCH  15  16
ENDBRANCH  14  15
ENDBRANCH  12  14
ENDBRANCH   1   2
BRANCH   1  19
ATOM     19  C   UNL     1      -7.731  -5.258   3.215  0.00  0.00    +0.173 C 
BRANCH  19  21
ATOM     20  N   UNL     1      -6.017  -3.787   2.206  0.00  0.00    -0.312 N 
ATOM     21  C   UNL     1      -6.821  -4.862   2.081  0.00  0.00    +0.224 C 
ATOM     22  O   UNL     1      -6.813  -5.510   1.056  0.00  0.00    -0.275 OA
ATOM     23  H   UNL     1      -6.024  -3.269   3.025  0.00  0.00    +0.149 HD
BRANCH  20  29
ATOM     24  C   UNL     1      -1.497  -1.836   0.006  0.00  0.00    +0.403 C 
ATOM     25  O   UNL     1      -0.523  -2.563  -0.007  0.00  0.00    -0.226 OA
ATOM     26  N   UNL     1      -2.735  -2.368   0.015  0.00  0.00    -0.267 N 
ATOM     27  C   UNL     1      -3.922  -1.502   0.025  0.00  0.00    +0.113 C 
ATOM     28  C   UNL     1      -4.819  -1.908   1.199  0.00  0.00    +0.041 C 
ATOM     29  C   UNL     1      -5.132  -3.402   1.103  0.00  0.00    +0.076 C 
ATOM     30  C   UNL     1      -3.832  -4.205   1.189  0.00  0.00    +0.041 C 
ATOM     31  C   UNL     1      -2.924  -3.825   0.009  0.00  0.00    +0.113 C 
BRANCH  24  32
ATOM     32  O   UNL     1      -1.339  -0.499   0.012  0.00  0.00    -0.451 OA
BRANCH  32  34
ATOM     33  C   UNL     1      -0.019   1.526   0.010  0.00  0.00    +0.048 C 
ATOM     34  C   UNL     1       0.002  -0.004   0.002  0.00  0.00    +0.230 C 
ENDBRANCH  32  34
ENDBRANCH  24  32
ENDBRANCH  20  29
ENDBRANCH  19  21
ENDBRANCH   1  19
TORSDOF 9
