REMARK  Name = ZINC06122365
REMARK  6 active torsions:
REMARK  status: ('A' for Active; 'I' for Inactive)
REMARK    1  A    between atoms: C_1  and  C_2
REMARK    2  A    between atoms: C_2  and  C_3
REMARK    3  A    between atoms: C_10  and  N_15
REMARK    4  A    between atoms: C_11  and  C_12
REMARK    5  A    between atoms: C_16  and  C_18
REMARK    6  A    between atoms: C_21  and  N_24
REMARK                            x       y       z     vdW  Elec       q    Type
REMARK                         _______ _______ _______ _____ _____    ______ ____
ROOT
ATOM      1  C   UNL     1      -1.050 -11.318  -0.429  0.00  0.00    -0.006 C 
ATOM      2  C   UNL     1      -2.290 -11.030   0.422  0.00  0.00    +0.008 C 
ATOM      3  C   UNL     1      -2.930  -9.712  -0.020  0.00  0.00    +0.037 C 
ATOM      4  C   UNL     1      -1.861  -8.626  -0.025  0.00  0.00    -0.023 A 
ATOM      5  C   UNL     1      -0.548  -8.942  -0.040  0.00  0.00    -0.004 A 
ATOM      6  S   UNL     1       0.292  -7.384  -0.039  0.00  0.00    -0.077 S 
ATOM      7  C   UNL     1      -1.079  -6.326  -0.020  0.00  0.00    +0.085 A 
ATOM      8  C   UNL     1      -2.155  -7.203  -0.009  0.00  0.00    +0.068 A 
ATOM      9  C   UNL     1       0.051 -10.315  -0.055  0.00  0.00    +0.046 C 
ENDROOT
BRANCH   8  10
ATOM     10  C   UNL     1      -3.536  -6.712   0.015  0.00  0.00    +0.244 C 
ATOM     11  O   UNL     1      -4.126  -6.503  -1.029  0.00  0.00    -0.270 OA
ATOM     12  N   UNL     1      -4.153  -6.492   1.193  0.00  0.00    -0.325 N 
ATOM     13  H   UNL     1      -3.684  -6.659   2.025  0.00  0.00    +0.145 HD
ATOM     14  H   UNL     1      -5.067  -6.168   1.208  0.00  0.00    +0.145 HD
ENDBRANCH   8  10
BRANCH   7  15
ATOM     15  N   UNL     1      -1.098  -4.941  -0.013  0.00  0.00    -0.275 N 
ATOM     16  C   UNL     1       0.060  -4.251  -0.020  0.00  0.00    +0.249 C 
ATOM     17  O   UNL     1       1.121  -4.844  -0.034  0.00  0.00    -0.270 OA
ATOM     18  H   UNL     1      -1.945  -4.467  -0.002  0.00  0.00    +0.156 HD
BRANCH  16  19
ATOM     19  C   UNL     1       0.040  -2.773  -0.012  0.00  0.00    +0.037 A 
ATOM     20  C   UNL     1       1.237  -2.056  -0.020  0.00  0.00    +0.015 A 
ATOM     21  C   UNL     1       1.211  -0.676  -0.013  0.00  0.00    +0.033 A 
ATOM     22  C   UNL     1       0.002  -0.004   0.002  0.00  0.00    +0.126 A 
ATOM     23  C   UNL     1      -1.188  -0.709   0.015  0.00  0.00    +0.033 A 
ATOM     24  C   UNL     1      -1.177  -2.088   0.003  0.00  0.00    +0.015 A 
BRANCH  22  25
ATOM     25  N   UNL     1      -0.018   1.476   0.010  0.00  0.00    +0.056 N 
ATOM     26  O   UNL     1       1.028   2.099   0.004  0.00  0.00    -0.126 OA
ATOM     27  O   UNL     1      -1.081   2.071   0.018  0.00  0.00    -0.126 OA
ENDBRANCH  22  25
ENDBRANCH  16  19
ENDBRANCH   7  15
BRANCH   1  29
ATOM     28  C   UNL     1       0.599 -13.072  -1.098  0.00  0.00    +0.004 C 
ATOM     29  C   UNL     1      -0.563 -12.743  -0.158  0.00  0.00    +0.000 C 
ENDBRANCH   1  29
TORSDOF 5
