REMARK  Name = ZINC08936005
REMARK  11 active torsions:
REMARK  status: ('A' for Active; 'I' for Inactive)
REMARK    1  A    between atoms: C_1  and  C_2
REMARK    2  A    between atoms: C_2  and  C_3
REMARK    3  A    between atoms: C_2  and  C_4
REMARK    4  A    between atoms: C_4  and  C_6
REMARK    5  A    between atoms: C_4  and  N_16
REMARK    6  A    between atoms: C_17  and  C_19
REMARK    7  A    between atoms: C_19  and  S_20
REMARK    8  A    between atoms: S_20  and  C_21
REMARK    9  A    between atoms: C_24  and  C_27
REMARK   10  A    between atoms: N_25  and  N_26
REMARK   11  A    between atoms: C_27  and  C_28
REMARK                            x       y       z     vdW  Elec       q    Type
REMARK                         _______ _______ _______ _____ _____    ______ ____
ROOT
ATOM      1  N   UNL     1      -4.657  -0.137  -0.860  0.00  0.00    -0.308 N 
ATOM      2  C   UNL     1      -5.660  -0.844  -1.419  0.00  0.00    +0.224 C 
ATOM      3  O   UNL     1      -5.762  -2.031  -1.195  0.00  0.00    -0.275 OA
ATOM      4  H   UNL     1      -4.575   0.813  -1.039  0.00  0.00    +0.149 HD
ENDROOT
BRANCH   1   5
ATOM      5  C   UNL     1      -3.692  -0.803   0.018  0.00  0.00    +0.106 C 
BRANCH   5   6
ATOM      6  C   UNL     1      -2.397  -0.033   0.016  0.00  0.00    -0.023 A 
ATOM      7  C   UNL     1      -2.415   1.349   0.025  0.00  0.00    +0.009 A 
ATOM      8  C   UNL     1      -1.229   2.059   0.019  0.00  0.00    +0.050 A 
ATOM      9  C   UNL     1      -0.017   1.385   0.010  0.00  0.00    +0.162 A 
ATOM     10  C   UNL     1       0.002  -0.004   0.002  0.00  0.00    +0.162 A 
ATOM     11  C   UNL     1      -1.192  -0.710   0.004  0.00  0.00    +0.055 A 
ATOM     12  O   UNL     1       1.181  -0.685  -0.007  0.00  0.00    -0.485 OA
ATOM     13  C   UNL     1       2.347   0.053  -0.387  0.00  0.00    +0.270 C 
ATOM     14  C   UNL     1       2.334   1.392   0.364  0.00  0.00    +0.270 C 
ATOM     15  O   UNL     1       1.143   2.098   0.002  0.00  0.00    -0.485 OA
ENDBRANCH   5   6
BRANCH   5  17
ATOM     16  C   UNL     1      -5.566  -1.640   1.443  0.00  0.00    +0.009 C 
ATOM     17  C   UNL     1      -4.250  -0.858   1.441  0.00  0.00    +0.008 C 
ATOM     18  C   UNL     1      -3.242  -1.554   2.358  0.00  0.00    +0.009 C 
ENDBRANCH   5  17
ENDBRANCH   1   5
BRANCH   2  19
ATOM     19  C   UNL     1      -6.653  -0.158  -2.322  0.00  0.00    +0.173 C 
BRANCH  19  20
ATOM     20  S   UNL     1      -7.866  -1.365  -2.910  0.00  0.00    -0.075 S 
BRANCH  20  21
ATOM     21  C   UNL     1      -8.873  -0.323  -3.913  0.00  0.00    +0.209 A 
ATOM     22  N   UNL     1      -8.706   0.963  -4.115  0.00  0.00    -0.121 NA
ATOM     23  N   UNL     1      -9.623   1.404  -4.900  0.00  0.00    -0.132 NA
ATOM     24  C   UNL     1     -10.423   0.434  -5.243  0.00  0.00    +0.155 A 
ATOM     25  N   UNL     1      -9.970  -0.702  -4.632  0.00  0.00    -0.228 N 
BRANCH  25  26
ATOM     26  N   UNL     1     -10.507  -1.955  -4.719  0.00  0.00    -0.295 N 
ATOM     27  H   UNL     1     -11.199  -2.103  -3.999  0.00  0.00    +0.163 HD
ATOM     28  H   UNL     1     -10.897  -2.119  -5.635  0.00  0.00    +0.163 HD
ENDBRANCH  25  26
BRANCH  24  29
ATOM     29  C   UNL     1     -11.621   0.543  -6.151  0.00  0.00    +0.116 C 
BRANCH  29  30
ATOM     30  C   UNL     1     -11.196   0.296  -7.576  0.00  0.00    -0.005 A 
ATOM     31  C   UNL     1     -11.406  -0.941  -8.155  0.00  0.00    +0.007 A 
ATOM     32  C   UNL     1     -11.016  -1.168  -9.461  0.00  0.00    +0.000 A 
ATOM     33  C   UNL     1     -10.417  -0.158 -10.191  0.00  0.00    +0.003 A 
ATOM     34  C   UNL     1     -10.206   1.080  -9.614  0.00  0.00    +0.038 A 
ATOM     35  C   UNL     1     -10.600   1.310  -8.306  0.00  0.00    +0.127 A 
ATOM     36  F   UNL     1     -10.399   2.521  -7.743  0.00  0.00    -0.205 F 
ENDBRANCH  29  30
ENDBRANCH  24  29
ENDBRANCH  20  21
ENDBRANCH  19  20
ENDBRANCH   2  19
TORSDOF 9
