REMARK  Name = ZINC67044300
REMARK  4 active torsions:
REMARK  status: ('A' for Active; 'I' for Inactive)
REMARK    1  A    between atoms: C_3  and  C_11
REMARK    2  A    between atoms: N_19  and  C_20
REMARK    3  A    between atoms: C_20  and  C_21
REMARK    4  A    between atoms: C_21  and  C_22
REMARK                            x       y       z     vdW  Elec       q    Type
REMARK                         _______ _______ _______ _____ _____    ______ ____
ROOT
ATOM      1  C   UNL     1       3.670   2.195  -0.023  0.00  0.00    +0.111 C 
ATOM      2  C   UNL     1       4.165   2.372  -1.474  0.00  0.00    +0.029 C 
ATOM      3  C   UNL     1       4.736   3.815  -1.472  0.00  0.00    +0.021 C 
ATOM      4  C   UNL     1       3.757   4.535  -0.512  0.00  0.00    +0.110 C 
ATOM      5  N   UNL     1       3.449   3.538   0.533  0.00  0.00    -0.278 N 
ATOM      6  C   UNL     1       3.034   3.810   1.786  0.00  0.00    +0.303 C 
ATOM      7  O   UNL     1       2.808   2.902   2.563  0.00  0.00    -0.253 OA
ATOM      8  N   UNL     1       2.869   5.089   2.178  0.00  0.00    -0.299 N 
ATOM      9  H   UNL     1       3.048   5.813   1.558  0.00  0.00    +0.150 HD
ENDROOT
BRANCH   1  12
ATOM     10  C   UNL     1      -0.017   1.378   0.010  0.00  0.00    +0.004 A 
ATOM     11  C   UNL     1       1.170   2.088   0.002  0.00  0.00    +0.009 A 
ATOM     12  C   UNL     1       2.378   1.418  -0.014  0.00  0.00    +0.018 A 
ATOM     13  C   UNL     1       2.404   0.031  -0.023  0.00  0.00    +0.167 A 
ATOM     14  C   UNL     1       1.212  -0.683  -0.013  0.00  0.00    +0.162 A 
ATOM     15  C   UNL     1       0.002  -0.004   0.002  0.00  0.00    +0.049 A 
ATOM     16  O   UNL     1       1.214  -2.044  -0.013  0.00  0.00    -0.485 OA
ATOM     17  C   UNL     1       2.434  -2.685  -0.404  0.00  0.00    +0.270 C 
ATOM     18  C   UNL     1       3.594  -1.997   0.328  0.00  0.00    +0.270 C 
ATOM     19  O   UNL     1       3.602  -0.615  -0.043  0.00  0.00    -0.485 OA
ENDBRANCH   1  12
BRANCH   8  20
ATOM     20  C   UNL     1       2.417   5.385   3.540  0.00  0.00    +0.112 C 
BRANCH  20  21
ATOM     21  C   UNL     1       2.312   6.901   3.724  0.00  0.00    +0.073 C 
BRANCH  21  22
ATOM     22  C   UNL     1       1.849   7.205   5.125  0.00  0.00    +0.035 A 
ATOM     23  C   UNL     1       0.568   7.236   5.546  0.00  0.00    +0.108 A 
ATOM     24  N   UNL     1       0.599   7.549   6.872  0.00  0.00    -0.336 N 
ATOM     25  C   UNL     1       1.898   7.702   7.222  0.00  0.00    +0.087 A 
ATOM     26  N   UNL     1       2.638   7.488   6.174  0.00  0.00    -0.347 N 
ATOM     27  C   UNL     1       2.362   8.056   8.615  0.00  0.00    +0.072 C 
ATOM     28  C   UNL     1       1.156   8.588   9.401  0.00  0.00    +0.009 C 
ATOM     29  C   UNL     1      -0.023   7.627   9.228  0.00  0.00    +0.022 C 
ATOM     30  C   UNL     1      -0.536   7.701   7.786  0.00  0.00    +0.123 C 
ATOM     31  H   UNL     1       3.607   7.529   6.152  0.00  0.00    +0.167 HD
ENDBRANCH  21  22
ENDBRANCH  20  21
ENDBRANCH   8  20
TORSDOF 4
