REMARK  Name = ZINC16137665
REMARK  12 active torsions:
REMARK  status: ('A' for Active; 'I' for Inactive)
REMARK    1  A    between atoms: C_3  and  C_23
REMARK    2  A    between atoms: C_6  and  C_9
REMARK    3  A    between atoms: C_9  and  N_10
REMARK    4  A    between atoms: N_13  and  C_14
REMARK    5  A    between atoms: C_14  and  C_15
REMARK    6  A    between atoms: C_15  and  C_16
REMARK    7  A    between atoms: C_16  and  N_17
REMARK    8  A    between atoms: C_23  and  N_24
REMARK    9  A    between atoms: N_27  and  C_28
REMARK   10  A    between atoms: C_28  and  C_29
REMARK   11  A    between atoms: C_29  and  C_30
REMARK   12  A    between atoms: C_30  and  N_31
REMARK                            x       y       z     vdW  Elec       q    Type
REMARK                         _______ _______ _______ _____ _____    ______ ____
ROOT
ATOM      1  C   UNL     1      -0.019   1.526   0.010  0.00  0.00    +0.001 C 
ATOM      2  C   UNL     1       1.417   2.055  -0.000  0.00  0.00    +0.005 C 
ATOM      3  C   UNL     1       2.133   1.562  -1.259  0.00  0.00    +0.006 C 
ATOM      4  C   UNL     1       2.154   0.032  -1.268  0.00  0.00    +0.010 C 
ATOM      5  C   UNL     1       0.718  -0.497  -1.257  0.00  0.00    +0.006 C 
ATOM      6  C   UNL     1       0.002  -0.004   0.002  0.00  0.00    +0.005 C 
ENDROOT
BRANCH   5   7
ATOM      7  C   UNL     1       0.739  -2.027  -1.265  0.00  0.00    +0.109 C 
BRANCH   7   8
ATOM      8  N   UNL     1      -0.631  -2.534  -1.375  0.00  0.00    -0.299 N 
ATOM      9  C   UNL     1      -0.859  -3.862  -1.402  0.00  0.00    +0.300 C 
ATOM     10  O   UNL     1       0.073  -4.640  -1.334  0.00  0.00    -0.253 OA
ATOM     11  N   UNL     1      -2.119  -4.328  -1.503  0.00  0.00    -0.299 N 
ATOM     12  H   UNL     1      -1.375  -1.913  -1.429  0.00  0.00    +0.150 HD
ATOM     13  H   UNL     1      -2.863  -3.707  -1.557  0.00  0.00    +0.150 HD
BRANCH  11  14
ATOM     14  C   UNL     1      -2.367  -5.771  -1.532  0.00  0.00    +0.104 C 
BRANCH  14  15
ATOM     15  C   UNL     1      -3.870  -6.029  -1.650  0.00  0.00    +0.000 C 
BRANCH  15  16
ATOM     16  C   UNL     1      -4.129  -7.537  -1.680  0.00  0.00    -0.077 C 
BRANCH  16  17
ATOM     17  N   UNL     1      -5.572  -7.784  -1.794  0.00  0.00    +0.383 N 
ATOM     18  C   UNL     1      -6.250  -7.299  -0.584  0.00  0.00    -0.050 C 
ATOM     19  C   UNL     1      -7.753  -7.557  -0.706  0.00  0.00    +0.141 C 
ATOM     20  O   UNL     1      -7.977  -8.956  -0.907  0.00  0.00    -0.383 OA
ATOM     21  C   UNL     1      -7.317  -9.481  -2.062  0.00  0.00    +0.141 C 
ATOM     22  C   UNL     1      -5.812  -9.226  -1.944  0.00  0.00    -0.050 C 
ATOM     23  H   UNL     1      -5.934  -7.298  -2.601  0.00  0.00    -0.082 HD
ENDBRANCH  16  17
ENDBRANCH  15  16
ENDBRANCH  14  15
ENDBRANCH  11  14
ENDBRANCH   7   8
ENDBRANCH   5   7
BRANCH   3  24
ATOM     24  C   UNL     1       1.393   2.069  -2.499  0.00  0.00    +0.109 C 
BRANCH  24  25
ATOM     25  N   UNL     1       1.476   3.530  -2.553  0.00  0.00    -0.299 N 
ATOM     26  C   UNL     1       0.892   4.201  -3.566  0.00  0.00    +0.300 C 
ATOM     27  O   UNL     1       0.296   3.593  -4.434  0.00  0.00    -0.253 OA
ATOM     28  N   UNL     1       0.968   5.546  -3.616  0.00  0.00    -0.299 N 
ATOM     29  H   UNL     1       1.951   4.015  -1.861  0.00  0.00    +0.150 HD
ATOM     30  H   UNL     1       1.443   6.031  -2.924  0.00  0.00    +0.150 HD
BRANCH  28  31
ATOM     31  C   UNL     1       0.333   6.275  -4.717  0.00  0.00    +0.107 C 
BRANCH  31  32
ATOM     32  C   UNL     1       0.568   7.776  -4.537  0.00  0.00    +0.034 C 
BRANCH  32  33
ATOM     33  C   UNL     1      -0.095   8.537  -5.686  0.00  0.00    +0.086 C 
BRANCH  33  34
ATOM     34  N   UNL     1       0.130   9.979  -5.513  0.00  0.00    -0.298 NA
ATOM     35  C   UNL     1      -0.569  10.481  -4.321  0.00  0.00    +0.112 C 
ATOM     36  C   UNL     1      -0.260  11.970  -4.145  0.00  0.00    +0.175 C 
ATOM     37  O   UNL     1      -0.638  12.674  -5.331  0.00  0.00    -0.377 OA
ATOM     38  C   UNL     1       0.023  12.211  -6.511  0.00  0.00    +0.175 C 
ATOM     39  C   UNL     1      -0.283  10.724  -6.711  0.00  0.00    +0.112 C 
ENDBRANCH  33  34
ENDBRANCH  32  33
ENDBRANCH  31  32
ENDBRANCH  28  31
ENDBRANCH  24  25
ENDBRANCH   3  24
TORSDOF 12
