REMARK  Name = ZINC63869256
REMARK  7 active torsions:
REMARK  status: ('A' for Active; 'I' for Inactive)
REMARK    1  A    between atoms: C_1  and  C_2
REMARK    2  A    between atoms: C_4  and  C_10
REMARK    3  A    between atoms: C_5  and  C_9
REMARK    4  A    between atoms: N_6  and  C_8
REMARK    5  A    between atoms: N_16  and  C_17
REMARK    6  A    between atoms: C_17  and  C_18
REMARK    7  A    between atoms: C_18  and  C_19
REMARK                            x       y       z     vdW  Elec       q    Type
REMARK                         _______ _______ _______ _____ _____    ______ ____
ROOT
ATOM      1  C   UNL     1      -2.686  -0.119  -0.597  0.00  0.00    +0.075 A 
ATOM      2  C   UNL     1      -3.937  -0.676  -0.290  0.00  0.00    +0.048 A 
ATOM      3  C   UNL     1      -5.019  -0.330  -1.073  0.00  0.00    +0.116 A 
ATOM      4  N   UNL     1      -4.848   0.511  -2.083  0.00  0.00    -0.223 NA
ATOM      5  C   UNL     1      -3.656   1.024  -2.352  0.00  0.00    +0.216 A 
ATOM      6  N   UNL     1      -2.591   0.726  -1.626  0.00  0.00    -0.215 NA
ATOM      7  N   UNL     1      -3.524   1.899  -3.417  0.00  0.00    -0.313 N 
ATOM      8  H   UNL     1      -2.657   2.281  -3.625  0.00  0.00    +0.149 HD
ENDROOT
BRANCH   1  11
ATOM      9  C   UNL     1      -1.741  -2.876   0.785  0.00  0.00    +0.031 C 
ATOM     10  C   UNL     1      -1.420  -1.479   1.319  0.00  0.00    +0.103 C 
ATOM     11  C   UNL     1      -1.501  -0.455   0.206  0.00  0.00    +0.014 C 
ATOM     12  C   UNL     1      -0.279   0.083   0.097  0.00  0.00    +0.025 C 
ATOM     13  N   UNL     1       0.592  -0.461   1.001  0.00  0.00    -0.273 N 
ATOM     14  N   UNL     1      -0.018  -1.409   1.776  0.00  0.00    -0.233 NA
ATOM     15  C   UNL     1       2.000  -0.076   1.125  0.00  0.00    +0.149 C 
ATOM     16  C   UNL     1       0.090   1.154  -0.897  0.00  0.00    +0.062 C 
ATOM     17  H   UNL     1       0.031  -1.166   2.754  0.00  0.00    +0.145 HD
ENDBRANCH   1  11
BRANCH   7  18
ATOM     18  C   UNL     1      -4.692   2.246  -4.229  0.00  0.00    +0.108 C 
BRANCH  18  19
ATOM     19  C   UNL     1      -4.275   3.222  -5.332  0.00  0.00    +0.065 C 
BRANCH  19  20
ATOM     20  C   UNL     1      -5.495   3.585  -6.180  0.00  0.00    +0.175 C 
ATOM     21  N   UNL     1      -6.028   2.384  -6.836  0.00  0.00    -0.363 N 
ATOM     22  C   UNL     1      -5.959   2.577  -8.121  0.00  0.00    +0.060 A 
ATOM     23  C   UNL     1      -6.334   1.749  -9.277  0.00  0.00    +0.030 A 
ATOM     24  C   UNL     1      -6.143   2.222 -10.524  0.00  0.00    +0.040 A 
ATOM     25  C   UNL     1      -5.590   3.494 -10.776  0.00  0.00    +0.125 A 
ATOM     26  C   UNL     1      -5.212   4.332  -9.786  0.00  0.00    +0.065 A 
ATOM     27  C   UNL     1      -5.375   3.920  -8.388  0.00  0.00    +0.063 A 
ATOM     28  N   UNL     1      -5.106   4.507  -7.255  0.00  0.00    -0.363 N 
ATOM     29  F   UNL     1      -5.431   3.889 -12.058  0.00  0.00    -0.205 F 
ATOM     30  H   UNL     1      -6.369   1.592  -6.393  0.00  0.00    +0.162 HD
ATOM     31  H   UNL     1      -4.719   5.389  -7.142  0.00  0.00    +0.162 HD
ENDBRANCH  19  20
ENDBRANCH  18  19
ENDBRANCH   7  18
TORSDOF 4
