REMARK  Name = ZINC39707970
REMARK  5 active torsions:
REMARK  status: ('A' for Active; 'I' for Inactive)
REMARK    1  A    between atoms: C_3  and  N_26
REMARK    2  A    between atoms: C_6  and  C_7
REMARK    3  A    between atoms: N_8  and  N_9
REMARK    4  A    between atoms: C_10  and  C_12
REMARK    5  A    between atoms: C_15  and  C_18
REMARK                            x       y       z     vdW  Elec       q    Type
REMARK                         _______ _______ _______ _____ _____    ______ ____
ROOT
ATOM      1  N   UNL     1      -2.477  -2.765   0.007  0.00  0.00    -0.205 N 
ATOM      2  C   UNL     1      -2.439  -4.112   0.005  0.00  0.00    +0.263 C 
ATOM      3  O   UNL     1      -1.371  -4.688   0.001  0.00  0.00    -0.271 OA
ATOM      4  H   UNL     1      -3.331  -2.304   0.010  0.00  0.00    +0.177 HD
ENDROOT
BRANCH   2   5
ATOM      5  C   UNL     1      -3.722  -4.902   0.010  0.00  0.00    +0.240 C 
ATOM      6  C   UNL     1      -4.272  -5.024   1.419  0.00  0.00    +0.041 C 
ATOM      7  C   UNL     1      -4.272  -6.350   1.653  0.00  0.00    +0.093 C 
ATOM      8  N   UNL     1      -3.796  -7.022   0.572  0.00  0.00    -0.153 NA
ATOM      9  N   UNL     1      -3.472  -6.301  -0.378  0.00  0.00    -0.170 NA
BRANCH   7  10
ATOM     10  C   UNL     1      -4.727  -6.988   2.913  0.00  0.00    +0.020 A 
ATOM     11  C   UNL     1      -5.083  -6.200   4.007  0.00  0.00    +0.013 A 
ATOM     12  C   UNL     1      -5.505  -6.798   5.176  0.00  0.00    +0.021 A 
ATOM     13  C   UNL     1      -5.575  -8.178   5.266  0.00  0.00    +0.042 A 
ATOM     14  C   UNL     1      -5.222  -8.965   4.184  0.00  0.00    +0.040 A 
ATOM     15  C   UNL     1      -4.805  -8.377   3.006  0.00  0.00    +0.052 A 
ATOM     16 CL   UNL     1      -4.370  -9.365   1.647  0.00  0.00    -0.083 Cl
ATOM     17 CL   UNL     1      -6.106  -8.922   6.742  0.00  0.00    -0.083 Cl
ENDBRANCH   7  10
ENDBRANCH   2   5
BRANCH   1  19
ATOM     18  C   UNL     1      -1.321  -0.733   0.004  0.00  0.00    +0.138 C 
ATOM     19  N   UNL     1      -1.284  -2.030   0.003  0.00  0.00    -0.188 NA
BRANCH  18  25
ATOM     20  C   UNL     1      -0.102   1.437   0.002  0.00  0.00    +0.012 A 
ATOM     21  C   UNL     1       1.077   2.154  -0.002  0.00  0.00    +0.033 A 
ATOM     22  C   UNL     1       2.292   1.493  -0.007  0.00  0.00    +0.126 A 
ATOM     23  C   UNL     1       2.336   0.110  -0.008  0.00  0.00    +0.033 A 
ATOM     24  C   UNL     1       1.165  -0.620  -0.005  0.00  0.00    +0.012 A 
ATOM     25  C   UNL     1      -0.066   0.041   0.000  0.00  0.00    -0.005 A 
BRANCH  22  26
ATOM     26  N   UNL     1       3.553   2.270  -0.012  0.00  0.00    +0.056 N 
ATOM     27  O   UNL     1       3.518   3.478  -0.011  0.00  0.00    -0.126 OA
ATOM     28  O   UNL     1       4.616   1.695  -0.016  0.00  0.00    -0.126 OA
ENDBRANCH  22  26
ENDBRANCH  18  25
ENDBRANCH   1  19
TORSDOF 5
