REMARK  Name = ZINC09703792
REMARK  10 active torsions:
REMARK  status: ('A' for Active; 'I' for Inactive)
REMARK    1  A    between atoms: C_1  and  C_2
REMARK    2  A    between atoms: C_2  and  C_4
REMARK    3  A    between atoms: C_2  and  N_15
REMARK    4  A    between atoms: C_7  and  N_10
REMARK    5  A    between atoms: C_16  and  C_18
REMARK    6  A    between atoms: C_18  and  C_20
REMARK    7  A    between atoms: C_18  and  N_21
REMARK    8  A    between atoms: N_21  and  C_22
REMARK    9  A    between atoms: C_25  and  C_31
REMARK   10  A    between atoms: C_27  and  N_28
REMARK                            x       y       z     vdW  Elec       q    Type
REMARK                         _______ _______ _______ _____ _____    ______ ____
ROOT
ATOM      1  N   UNL     1      -0.587   1.616   1.381  0.00  0.00    -0.307 N 
ATOM      2  C   UNL     1      -1.702   0.955   1.750  0.00  0.00    +0.233 C 
ATOM      3  O   UNL     1      -2.143   0.070   1.047  0.00  0.00    -0.274 OA
ATOM      4  H   UNL     1      -0.235   2.324   1.942  0.00  0.00    +0.149 HD
ENDROOT
BRANCH   1   6
ATOM      5  C   UNL     1      -0.560   2.015  -1.032  0.00  0.00    +0.033 C 
ATOM      6  C   UNL     1       0.092   1.266   0.131  0.00  0.00    +0.100 C 
BRANCH   6   7
ATOM      7  C   UNL     1       1.546   1.651   0.225  0.00  0.00    -0.027 A 
ATOM      8  C   UNL     1       1.907   2.842   0.828  0.00  0.00    +0.007 A 
ATOM      9  C   UNL     1       3.239   3.196   0.920  0.00  0.00    +0.028 A 
ATOM     10  C   UNL     1       4.215   2.359   0.397  0.00  0.00    +0.067 A 
ATOM     11  C   UNL     1       3.850   1.167  -0.213  0.00  0.00    +0.028 A 
ATOM     12  C   UNL     1       2.517   0.816  -0.297  0.00  0.00    +0.007 A 
BRANCH  10  13
ATOM     13  N   UNL     1       5.568   2.717   0.485  0.00  0.00    -0.220 N 
ATOM     14  C   UNL     1       6.072   3.837   1.039  0.00  0.00    +0.225 A 
ATOM     15  N   UNL     1       7.375   3.795   0.922  0.00  0.00    -0.222 NA
ATOM     16  C   UNL     1       7.737   2.676   0.295  0.00  0.00    +0.245 A 
ATOM     17  N   UNL     1       6.666   1.984   0.008  0.00  0.00    -0.154 NA
ENDBRANCH  10  13
ENDBRANCH   6   7
ENDBRANCH   1   6
BRANCH   2  18
ATOM     18  C   UNL     1      -2.402   1.316   3.035  0.00  0.00    +0.154 C 
ATOM     19  C   UNL     1      -1.445   1.111   4.211  0.00  0.00    +0.038 C 
BRANCH  18  20
ATOM     20  N   UNL     1      -3.578   0.460   3.208  0.00  0.00    -0.331 N 
ATOM     21  H   UNL     1      -3.610  -0.411   2.783  0.00  0.00    +0.147 HD
BRANCH  20  22
ATOM     22  C   UNL     1      -4.652   0.898   3.985  0.00  0.00    +0.058 A 
ATOM     23  C   UNL     1      -4.661   2.190   4.496  0.00  0.00    +0.026 A 
ATOM     24  C   UNL     1      -5.727   2.622   5.259  0.00  0.00    +0.014 A 
ATOM     25  C   UNL     1      -6.781   1.767   5.525  0.00  0.00    +0.057 A 
ATOM     26  C   UNL     1      -6.774   0.478   5.022  0.00  0.00    +0.047 A 
ATOM     27  C   UNL     1      -5.712   0.042   4.253  0.00  0.00    +0.147 A 
BRANCH  25  28
ATOM     28  C   UNL     1      -7.941   2.239   6.364  0.00  0.00    +0.417 C 
ATOM     29  F   UNL     1      -7.683   1.965   7.711  0.00  0.00    -0.166 F 
ATOM     30  F   UNL     1      -8.109   3.618   6.192  0.00  0.00    -0.166 F 
ATOM     31  F   UNL     1      -9.105   1.574   5.966  0.00  0.00    -0.166 F 
ENDBRANCH  25  28
BRANCH  27  32
ATOM     32  N   UNL     1      -5.705  -1.337   3.716  0.00  0.00    +0.058 N 
ATOM     33  O   UNL     1      -6.743  -1.846   3.332  0.00  0.00    -0.126 OA
ATOM     34  O   UNL     1      -4.662  -1.962   3.657  0.00  0.00    -0.126 OA
ENDBRANCH  27  32
ENDBRANCH  20  22
ENDBRANCH  18  20
ENDBRANCH   2  18
TORSDOF 8
