REMARK  Name = ZINC18054095
REMARK  8 active torsions:
REMARK  status: ('A' for Active; 'I' for Inactive)
REMARK    1  A    between atoms: C_1  and  C_2
REMARK    2  A    between atoms: C_2  and  C_4
REMARK    3  A    between atoms: C_2  and  O_29
REMARK    4  A    between atoms: N_6  and  N_7
REMARK    5  A    between atoms: C_8  and  C_10
REMARK    6  A    between atoms: N_13  and  S_16
REMARK    7  A    between atoms: S_16  and  C_19
REMARK    8  A    between atoms: O_29  and  C_30
REMARK                            x       y       z     vdW  Elec       q    Type
REMARK                         _______ _______ _______ _____ _____    ______ ____
ROOT
ATOM      1  C   UNL     1      -2.447   0.321   0.407  0.00  0.00    +0.079 C 
ATOM      2  C   UNL     1      -2.547  -0.350  -0.965  0.00  0.00    +0.030 C 
ATOM      3  C   UNL     1      -3.791  -1.244  -1.002  0.00  0.00    +0.110 C 
ATOM      4  N   UNL     1      -4.964  -0.437  -0.637  0.00  0.00    -0.177 NA
ATOM      5  C   UNL     1      -4.936   0.323   0.620  0.00  0.00    +0.110 C 
ATOM      6  C   UNL     1      -3.679   1.199   0.639  0.00  0.00    +0.030 C 
ENDROOT
BRANCH   1   8
ATOM      7  N   UNL     1       0.006   0.613   0.280  0.00  0.00    -0.234 N 
ATOM      8  C   UNL     1      -1.206   1.175   0.458  0.00  0.00    +0.232 C 
ATOM      9  O   UNL     1      -1.298   2.367   0.660  0.00  0.00    -0.274 OA
ATOM     10  H   UNL     1       0.080  -0.341   0.118  0.00  0.00    +0.173 HD
BRANCH   7  13
ATOM     11  C   UNL     1       2.371   0.846   0.138  0.00  0.00    +0.270 C 
ATOM     12  O   UNL     1       2.463  -0.346  -0.065  0.00  0.00    -0.270 OA
ATOM     13  N   UNL     1       1.159   1.407   0.322  0.00  0.00    -0.231 N 
ATOM     14  H   UNL     1       1.086   2.361   0.483  0.00  0.00    +0.173 HD
BRANCH  11  16
ATOM     15  C   UNL     1       3.532   2.774  -0.905  0.00  0.00    +0.062 C 
ATOM     16  C   UNL     1       3.612   1.701   0.183  0.00  0.00    +0.257 C 
BRANCH  16  17
ATOM     17  O   UNL     1       4.762   0.882  -0.039  0.00  0.00    -0.477 OA
BRANCH  17  18
ATOM     18  C   UNL     1       5.944   1.329   0.464  0.00  0.00    +0.157 A 
ATOM     19  C   UNL     1       6.018   2.581   1.056  0.00  0.00    +0.048 A 
ATOM     20  C   UNL     1       7.219   3.033   1.567  0.00  0.00    +0.004 A 
ATOM     21  C   UNL     1       8.348   2.238   1.490  0.00  0.00    +0.003 A 
ATOM     22  C   UNL     1       8.279   0.989   0.901  0.00  0.00    +0.042 A 
ATOM     23  C   UNL     1       7.077   0.530   0.392  0.00  0.00    +0.165 A 
ATOM     24  F   UNL     1       7.008  -0.693  -0.179  0.00  0.00    -0.202 F 
ENDBRANCH  17  18
ENDBRANCH  16  17
ENDBRANCH  11  16
ENDBRANCH   7  13
ENDBRANCH   1   8
BRANCH   4  25
ATOM     25  S   UNL     1      -6.292  -0.385  -1.625  0.00  0.00    +0.061 S 
ATOM     26  O   UNL     1      -6.269  -1.576  -2.400  0.00  0.00    -0.153 OA
ATOM     27  O   UNL     1      -7.396  -0.033  -0.803  0.00  0.00    -0.153 OA
BRANCH  25  28
ATOM     28  C   UNL     1      -6.054   0.951  -2.748  0.00  0.00    +0.106 A 
ATOM     29  C   UNL     1      -6.515   2.223  -2.410  0.00  0.00    +0.029 A 
ATOM     30  C   UNL     1      -6.342   3.277  -3.253  0.00  0.00    +0.010 A 
ATOM     31  C   UNL     1      -5.700   3.083  -4.488  0.00  0.00    -0.018 A 
ATOM     32  C   UNL     1      -5.509   4.147  -5.386  0.00  0.00    +0.008 A 
ATOM     33  C   UNL     1      -4.883   3.921  -6.573  0.00  0.00    +0.001 A 
ATOM     34  C   UNL     1      -4.426   2.649  -6.913  0.00  0.00    +0.001 A 
ATOM     35  C   UNL     1      -4.593   1.595  -6.068  0.00  0.00    +0.008 A 
ATOM     36  C   UNL     1      -5.236   1.790  -4.833  0.00  0.00    -0.016 A 
ATOM     37  C   UNL     1      -5.427   0.726  -3.935  0.00  0.00    +0.037 A 
ENDBRANCH  25  28
ENDBRANCH   4  25
TORSDOF 7
