REMARK  Name = ZINC43548324
REMARK  7 active torsions:
REMARK  status: ('A' for Active; 'I' for Inactive)
REMARK    1  A    between atoms: C_1  and  C_2
REMARK    2  A    between atoms: N_9  and  C_10
REMARK    3  A    between atoms: C_12  and  C_33
REMARK    4  A    between atoms: C_15  and  O_32
REMARK    5  A    between atoms: C_17  and  C_21
REMARK    6  A    between atoms: C_21  and  C_23
REMARK    7  A    between atoms: C_21  and  C_24
REMARK                            x       y       z     vdW  Elec       q    Type
REMARK                         _______ _______ _______ _____ _____    ______ ____
ROOT
ATOM      1  C   UNL     1       0.973   2.493   0.941  0.00  0.00    +0.014 C 
ATOM      2  C   UNL     1       0.531   1.029   0.994  0.00  0.00    +0.039 C 
ATOM      3  C   UNL     1      -0.889   0.947   1.531  0.00  0.00    +0.031 A 
ATOM      4  C   UNL     1      -1.241  -0.025   2.409  0.00  0.00    +0.013 A 
ATOM      5  S   UNL     1      -2.952   0.319   2.705  0.00  0.00    -0.059 S 
ATOM      6  C   UNL     1      -3.083   1.664   1.698  0.00  0.00    +0.136 A 
ATOM      7  N   UNL     1      -1.871   1.785   1.202  0.00  0.00    -0.340 N 
ATOM      8  N   UNL     1      -4.197   2.451   1.452  0.00  0.00    -0.328 N 
ATOM      9  C   UNL     1      -5.469   2.147   2.112  0.00  0.00    +0.127 C 
ATOM     10  C   UNL     1      -0.374  -1.101   2.966  0.00  0.00    +0.051 C 
ATOM     11  C   UNL     1       0.920  -1.167   2.151  0.00  0.00    -0.022 C 
ATOM     12  C   UNL     1       1.469   0.245   1.919  0.00  0.00    +0.033 C 
ATOM     13  C   UNL     1       2.827   0.110   1.212  0.00  0.00    +0.123 C 
ATOM     14  C   UNL     1       2.609  -0.561  -0.146  0.00  0.00    +0.029 C 
ATOM     15  C   UNL     1       2.002  -1.951   0.049  0.00  0.00    +0.007 C 
ATOM     16  C   UNL     1       0.673  -1.836   0.800  0.00  0.00    +0.008 C 
ATOM     17  C   UNL     1       1.964  -1.971   2.928  0.00  0.00    +0.012 C 
ATOM     18  H   UNL     1      -4.134   3.204   0.843  0.00  0.00    +0.148 HD
ATOM     19  H   UNL     1      -1.687   2.505   0.579  0.00  0.00    +0.167 HD
ENDROOT
BRANCH  14  20
ATOM     20  C   UNL     1       3.951  -0.693  -0.869  0.00  0.00    +0.078 C 
ATOM     21  C   UNL     1       3.759  -1.491  -2.160  0.00  0.00    +0.017 C 
BRANCH  20  22
ATOM     22  C   UNL     1       4.934  -1.408   0.022  0.00  0.00    +0.219 C 
ATOM     23  O   UNL     1       4.533  -2.131   0.909  0.00  0.00    -0.275 OA
ATOM     24  N   UNL     1       6.258  -1.243  -0.167  0.00  0.00    -0.297 N 
ATOM     25  C   UNL     1       6.769  -0.285  -1.161  0.00  0.00    +0.136 C 
ATOM     26  C   UNL     1       7.814   0.606  -0.481  0.00  0.00    +0.179 C 
ATOM     27  O   UNL     1       8.788  -0.220   0.164  0.00  0.00    -0.377 OA
ATOM     28  C   UNL     1       8.260  -1.041   1.208  0.00  0.00    +0.179 C 
ATOM     29  C   UNL     1       7.237  -2.012   0.619  0.00  0.00    +0.136 C 
ENDBRANCH  20  22
ENDBRANCH  14  20
BRANCH  13  30
ATOM     30  O   UNL     1       3.400   1.405   1.023  0.00  0.00    -0.391 OA
ATOM     31  H   UNL     1       4.252   1.396   0.566  0.00  0.00    +0.210 HD
ENDBRANCH  13  30
TORSDOF 3
