REMARK  Name = ZINC02479043
REMARK  11 active torsions:
REMARK  status: ('A' for Active; 'I' for Inactive)
REMARK    1  A    between atoms: C_1  and  C_2
REMARK    2  A    between atoms: C_2  and  O_3
REMARK    3  A    between atoms: O_3  and  C_4
REMARK    4  A    between atoms: C_4  and  C_6
REMARK    5  A    between atoms: C_7  and  C_29
REMARK    6  A    between atoms: C_9  and  N_28
REMARK    7  A    between atoms: C_10  and  C_22
REMARK    8  A    between atoms: C_22  and  O_24
REMARK    9  A    between atoms: O_24  and  C_25
REMARK   10  A    between atoms: C_25  and  C_26
REMARK   11  A    between atoms: C_25  and  C_27
REMARK                            x       y       z     vdW  Elec       q    Type
REMARK                         _______ _______ _______ _____ _____    ______ ____
ROOT
ATOM      1  C   UNL     1      -1.329   1.799   0.188  0.00  0.00    +0.098 C 
ATOM      2  C   UNL     1      -2.535   1.215   0.144  0.00  0.00    +0.116 C 
ATOM      3  O   UNL     1      -3.665   1.920  -0.010  0.00  0.00    -0.446 OA
ATOM      4  C   UNL     1      -3.668   3.238   0.248  0.00  0.00    +0.195 C 
ATOM      5  C   UNL     1      -2.516   3.958   0.299  0.00  0.00    +0.117 C 
ATOM      6  C   UNL     1      -1.192   3.289   0.072  0.00  0.00    +0.145 C 
ATOM      7  C   UNL     1      -0.641   3.666  -1.280  0.00  0.00    -0.001 A 
ATOM      8  C   UNL     1      -1.098   3.482  -2.566  0.00  0.00    +0.022 A 
ATOM      9  C   UNL     1      -0.356   3.949  -3.637  0.00  0.00    +0.018 A 
ATOM     10  C   UNL     1       0.844   4.600  -3.410  0.00  0.00    +0.017 A 
ATOM     11  C   UNL     1       1.304   4.785  -2.123  0.00  0.00    +0.025 A 
ATOM     12  C   UNL     1       0.562   4.318  -1.040  0.00  0.00    +0.038 A 
ATOM     13  N   UNL     1       0.811   4.381   0.333  0.00  0.00    -0.284 N 
ATOM     14  C   UNL     1      -0.166   3.803   1.054  0.00  0.00    +0.237 C 
ATOM     15  O   UNL     1      -0.213   3.711   2.262  0.00  0.00    -0.274 OA
ATOM     16 BR   UNL     1      -0.980   3.699  -5.404  0.00  0.00    -0.050 Br
ATOM     17  C   UNL     1      -2.623  -0.284   0.273  0.00  0.00    +0.087 C 
ATOM     18  H   UNL     1       1.598   4.795   0.721  0.00  0.00    +0.155 HD
ENDROOT
BRANCH   4  19
ATOM     19  N   UNL     1      -4.862   3.872   0.468  0.00  0.00    -0.329 N 
ATOM     20  H   UNL     1      -4.912   4.607   1.098  0.00  0.00    +0.145 HD
ATOM     21  H   UNL     1      -5.658   3.586  -0.008  0.00  0.00    +0.145 HD
ENDBRANCH   4  19
BRANCH   1  22
ATOM     22  C   UNL     1      -0.170   1.000   0.350  0.00  0.00    +0.340 C 
ATOM     23  O   UNL     1       0.543   0.761  -0.606  0.00  0.00    -0.245 OA
BRANCH  22  24
ATOM     24  O   UNL     1       0.145   0.509   1.567  0.00  0.00    -0.462 OA
BRANCH  24  26
ATOM     25  C   UNL     1       1.523  -0.748   3.104  0.00  0.00    +0.048 C 
ATOM     26  C   UNL     1       1.331  -0.283   1.659  0.00  0.00    +0.229 C 
ENDBRANCH  24  26
ENDBRANCH  22  24
ENDBRANCH   1  22
BRANCH   5  27
ATOM     27  C   UNL     1      -2.564   5.335   0.568  0.00  0.00    +0.342 C 
ATOM     28  O   UNL     1      -3.639   5.901   0.652  0.00  0.00    -0.245 OA
BRANCH  27  29
ATOM     29  O   UNL     1      -1.419   6.031   0.734  0.00  0.00    -0.458 OA
BRANCH  29  30
ATOM     30  C   UNL     1      -1.543   7.428   1.006  0.00  0.00    +0.171 C 
ATOM     31  C   UNL     1      -0.361   7.888   1.862  0.00  0.00    +0.052 C 
ATOM     32  C   UNL     1      -1.552   8.205  -0.312  0.00  0.00    +0.052 C 
ENDBRANCH  29  30
ENDBRANCH  27  29
ENDBRANCH   5  27
TORSDOF 7
