REMARK  Name = ZINC00308593
REMARK  5 active torsions:
REMARK  status: ('A' for Active; 'I' for Inactive)
REMARK    1  A    between atoms: C_1  and  C_2
REMARK    2  A    between atoms: N_8  and  S_9
REMARK    3  A    between atoms: S_9  and  C_12
REMARK    4  A    between atoms: C_15  and  O_18
REMARK    5  A    between atoms: O_18  and  C_19
REMARK                            x       y       z     vdW  Elec       q    Type
REMARK                         _______ _______ _______ _____ _____    ______ ____
ROOT
ATOM      1  C   UNL     1      -0.035  -5.919   3.704  0.00  0.00    +0.113 A 
ATOM      2  C   UNL     1       1.166  -6.213   4.323  0.00  0.00    +0.032 A 
ATOM      3  C   UNL     1       1.221  -6.350   5.696  0.00  0.00    +0.048 A 
ATOM      4  C   UNL     1       0.070  -6.192   6.455  0.00  0.00    +0.129 A 
ATOM      5  C   UNL     1      -1.134  -5.896   5.832  0.00  0.00    +0.048 A 
ATOM      6  C   UNL     1      -1.183  -5.755   4.459  0.00  0.00    +0.032 A 
ENDROOT
BRANCH   1   7
ATOM      7  S   UNL     1      -0.103  -5.745   1.952  0.00  0.00    +0.101 S 
ATOM      8  O   UNL     1      -1.447  -6.001   1.570  0.00  0.00    -0.146 OA
ATOM      9  O   UNL     1       0.993  -6.483   1.428  0.00  0.00    -0.146 OA
BRANCH   7  17
ATOM     10  C   UNL     1       0.718  -0.532  -1.583  0.00  0.00    +0.044 C 
ATOM     11  C   UNL     1       0.454  -1.975  -1.241  0.00  0.00    -0.046 A 
ATOM     12  C   UNL     1       0.211  -2.910  -2.262  0.00  0.00    +0.021 A 
ATOM     13  C   UNL     1      -0.026  -4.204  -1.961  0.00  0.00    +0.084 A 
ATOM     14  N   UNL     1      -0.034  -4.628  -0.666  0.00  0.00    -0.345 N 
ATOM     15  C   UNL     1       0.200  -3.740   0.356  0.00  0.00    +0.153 A 
ATOM     16  C   UNL     1       0.455  -2.381   0.056  0.00  0.00    +0.051 A 
ATOM     17  N   UNL     1       0.192  -4.152   1.607  0.00  0.00    -0.111 NA
ATOM     18  H   UNL     1      -0.207  -5.561  -0.464  0.00  0.00    +0.167 HD
ENDBRANCH   7  17
ENDBRANCH   1   7
BRANCH   4  19
ATOM     19  O   UNL     1       0.122  -6.326   7.806  0.00  0.00    -0.456 OA
BRANCH  19  20
ATOM     20  C   UNL     1       1.324  -6.608   8.374  0.00  0.00    +0.128 A 
ATOM     21  C   UNL     1       2.163  -5.577   8.773  0.00  0.00    +0.046 A 
ATOM     22  C   UNL     1       3.385  -5.867   9.349  0.00  0.00    +0.004 A 
ATOM     23  C   UNL     1       3.772  -7.182   9.528  0.00  0.00    +0.000 A 
ATOM     24  C   UNL     1       2.938  -8.211   9.131  0.00  0.00    +0.004 A 
ATOM     25  C   UNL     1       1.712  -7.927   8.560  0.00  0.00    +0.046 A 
ENDBRANCH  19  20
ENDBRANCH   4  19
TORSDOF 4
