REMARK  Name = ZINC09453876
REMARK  8 active torsions:
REMARK  status: ('A' for Active; 'I' for Inactive)
REMARK    1  A    between atoms: C_1  and  N_43
REMARK    2  A    between atoms: C_2  and  C_3
REMARK    3  A    between atoms: C_2  and  N_43
REMARK    4  A    between atoms: N_5  and  C_6
REMARK    5  A    between atoms: C_13  and  C_14
REMARK    6  A    between atoms: C_13  and  N_43
REMARK    7  A    between atoms: N_16  and  C_17
REMARK    8  A    between atoms: C_20  and  N_24
REMARK                            x       y       z     vdW  Elec       q    Type
REMARK                         _______ _______ _______ _____ _____    ______ ____
ROOT
ATOM      1  C   UNL     1       1.426   1.271  -0.142  0.00  0.00    +0.019 C 
ENDROOT
BRANCH   1   2
ATOM      2  C   UNL     1       0.238   0.344  -0.122  0.00  0.00    +0.201 C 
ATOM      3  O   UNL     1       0.406  -0.857  -0.123  0.00  0.00    -0.278 OA
ATOM      4  N   UNL     1      -1.011   0.849  -0.109  0.00  0.00    -0.286 N 
ATOM      5  H   UNL     1      -1.147   1.806  -0.028  0.00  0.00    +0.155 HD
BRANCH   4   6
ATOM      6  C   UNL     1      -2.114  -0.007  -0.212  0.00  0.00    +0.048 A 
ATOM      7  C   UNL     1      -2.034  -1.154  -0.991  0.00  0.00    +0.026 A 
ATOM      8  C   UNL     1      -3.123  -1.997  -1.091  0.00  0.00    +0.034 A 
ATOM      9  C   UNL     1      -4.293  -1.700  -0.416  0.00  0.00    +0.127 A 
ATOM     10  C   UNL     1      -4.377  -0.559   0.361  0.00  0.00    +0.049 A 
ATOM     11  C   UNL     1      -3.289   0.286   0.469  0.00  0.00    +0.041 A 
ATOM     12 BR   UNL     1      -3.401   1.841   1.538  0.00  0.00    -0.048 Br
BRANCH   9  13
ATOM     13  N   UNL     1      -5.458  -2.607  -0.524  0.00  0.00    +0.056 N 
ATOM     14  O   UNL     1      -5.386  -3.612  -1.208  0.00  0.00    -0.126 OA
ATOM     15  O   UNL     1      -6.490  -2.347   0.070  0.00  0.00    -0.126 OA
ENDBRANCH   9  13
ENDBRANCH   4   6
ENDBRANCH   1   2
BRANCH   1  17
ATOM     16  C   UNL     1       2.828  -0.270   1.092  0.00  0.00    -0.095 C 
ATOM     17  N   UNL     1       2.662   0.462  -0.182  0.00  0.00    +0.389 N 
ATOM     18  H   UNL     1       2.592  -0.216  -0.950  0.00  0.00    -0.081 HD
BRANCH  17  19
ATOM     19  C   UNL     1       3.830   1.335  -0.418  0.00  0.00    +0.019 C 
BRANCH  19  20
ATOM     20  C   UNL     1       5.039   0.472  -0.673  0.00  0.00    +0.201 C 
ATOM     21  O   UNL     1       4.939  -0.736  -0.643  0.00  0.00    -0.278 OA
ATOM     22  N   UNL     1       6.232   1.043  -0.935  0.00  0.00    -0.287 N 
ATOM     23  H   UNL     1       6.331   2.006  -0.880  0.00  0.00    +0.155 HD
BRANCH  22  24
ATOM     24  C   UNL     1       7.327   0.246  -1.284  0.00  0.00    +0.036 A 
ATOM     25  C   UNL     1       8.607   0.606  -0.881  0.00  0.00    +0.023 A 
ATOM     26  C   UNL     1       9.686  -0.184  -1.223  0.00  0.00    +0.005 A 
ATOM     27  C   UNL     1       9.497  -1.329  -1.975  0.00  0.00    +0.038 A 
ATOM     28  C   UNL     1       8.223  -1.690  -2.383  0.00  0.00    +0.125 A 
ATOM     29  C   UNL     1       7.138  -0.904  -2.039  0.00  0.00    +0.061 A 
ATOM     30  F   UNL     1       8.041  -2.809  -3.117  0.00  0.00    -0.205 F 
ENDBRANCH  22  24
ENDBRANCH  19  20
ENDBRANCH  17  19
ENDBRANCH   1  17
TORSDOF 7
