REMARK  Name = ZINC03535218
REMARK  13 active torsions:
REMARK  status: ('A' for Active; 'I' for Inactive)
REMARK    1  A    between atoms: C_1  and  C_2
REMARK    2  A    between atoms: C_2  and  C_3
REMARK    3  A    between atoms: C_3  and  C_4
REMARK    4  A    between atoms: C_4  and  N_5
REMARK    5  A    between atoms: N_5  and  C_6
REMARK    6  A    between atoms: C_7  and  N_18
REMARK    7  A    between atoms: N_8  and  C_15
REMARK    8  A    between atoms: C_15  and  C_16
REMARK    9  A    between atoms: C_16  and  C_17
REMARK   10  A    between atoms: C_19  and  C_21
REMARK   11  A    between atoms: C_21  and  O_22
REMARK   12  A    between atoms: O_22  and  C_23
REMARK   13  A    between atoms: C_23  and  C_25
REMARK                            x       y       z     vdW  Elec       q    Type
REMARK                         _______ _______ _______ _____ _____    ______ ____
ROOT
ATOM      1  N   UNL     1       0.065  -2.847  -2.324  0.00  0.00    -0.261 N 
ATOM      2  C   UNL     1      -0.084  -2.264  -3.532  0.00  0.00    +0.258 C 
ATOM      3  O   UNL     1      -0.147  -1.056  -3.619  0.00  0.00    -0.272 OA
ENDROOT
BRANCH   1   4
ATOM      4  C   UNL     1       0.042  -2.059  -1.154  0.00  0.00    +0.140 A 
ATOM      5  C   UNL     1       1.171  -1.931  -0.371  0.00  0.00    +0.127 A 
ATOM      6  N   UNL     1       1.116  -1.161   0.767  0.00  0.00    -0.280 N 
ATOM      7  C   UNL     1      -0.023  -0.531   1.108  0.00  0.00    +0.331 A 
ATOM      8  O   UNL     1      -0.050   0.149   2.116  0.00  0.00    -0.246 OA
ATOM      9  N   UNL     1      -1.132  -0.640   0.355  0.00  0.00    -0.273 N 
ATOM     10  H   UNL     1      -1.966  -0.162   0.631  0.00  0.00    +0.173 HD
ATOM     11  C   UNL     1      -1.132  -1.387  -0.767  0.00  0.00    +0.277 A 
ATOM     12  O   UNL     1      -2.143  -1.479  -1.442  0.00  0.00    -0.266 OA
BRANCH   5  13
ATOM     13  N   UNL     1       2.337  -2.570  -0.723  0.00  0.00    -0.343 N 
ATOM     14  H   UNL     1       3.139  -2.442  -0.193  0.00  0.00    +0.144 HD
ATOM     15  H   UNL     1       2.357  -3.148  -1.502  0.00  0.00    +0.144 HD
ENDBRANCH   5  13
BRANCH   6  16
ATOM     16  C   UNL     1       2.306  -1.021   1.610  0.00  0.00    +0.128 C 
BRANCH  16  17
ATOM     17  C   UNL     1       2.313  -2.124   2.670  0.00  0.00    +0.018 C 
ATOM     18  C   UNL     1       3.555  -1.978   3.550  0.00  0.00    +0.005 C 
ENDBRANCH  16  17
ENDBRANCH   6  16
ENDBRANCH   1   4
BRANCH   1  19
ATOM     19  C   UNL     1       0.251  -4.297  -2.228  0.00  0.00    +0.114 C 
BRANCH  19  20
ATOM     20  C   UNL     1      -1.114  -4.987  -2.236  0.00  0.00    +0.019 C 
BRANCH  20  22
ATOM     21  C   UNL     1      -2.285  -7.193  -2.143  0.00  0.00    +0.004 C 
ATOM     22  C   UNL     1      -0.920  -6.502  -2.136  0.00  0.00    -0.002 C 
ENDBRANCH  20  22
ENDBRANCH  19  20
ENDBRANCH   1  19
BRANCH   2  23
ATOM     23  C   UNL     1      -0.171  -3.115  -4.773  0.00  0.00    +0.328 C 
BRANCH  23  24
ATOM     24  O   UNL     1      -0.327  -2.259  -5.936  0.00  0.00    -0.452 OA
BRANCH  24  25
ATOM     25  C   UNL     1      -0.421  -2.868  -7.135  0.00  0.00    +0.340 C 
ATOM     26  O   UNL     1      -0.373  -4.079  -7.206  0.00  0.00    -0.245 OA
BRANCH  25  27
ATOM     27  C   UNL     1      -0.582  -2.061  -8.361  0.00  0.00    +0.060 A 
ATOM     28  C   UNL     1      -0.643  -0.658  -8.272  0.00  0.00    +0.015 A 
ATOM     29  C   UNL     1      -0.786   0.104  -9.385  0.00  0.00    +0.009 A 
ATOM     30  C   UNL     1      -0.885  -0.506 -10.649  0.00  0.00    -0.018 A 
ATOM     31  C   UNL     1      -1.040   0.262 -11.815  0.00  0.00    +0.008 A 
ATOM     32  C   UNL     1      -1.135  -0.357 -13.024  0.00  0.00    +0.001 A 
ATOM     33  C   UNL     1      -1.081  -1.746 -13.125  0.00  0.00    +0.001 A 
ATOM     34  C   UNL     1      -0.933  -2.523 -12.018  0.00  0.00    +0.008 A 
ATOM     35  C   UNL     1      -0.831  -1.920 -10.752  0.00  0.00    -0.017 A 
ATOM     36  C   UNL     1      -0.678  -2.692  -9.591  0.00  0.00    +0.023 A 
ENDBRANCH  25  27
ENDBRANCH  24  25
ENDBRANCH  23  24
ENDBRANCH   2  23
TORSDOF 11
