REMARK  Name = ZINC50551617
REMARK  5 active torsions:
REMARK  status: ('A' for Active; 'I' for Inactive)
REMARK    1  A    between atoms: C_6  and  N_7
REMARK    2  A    between atoms: C_8  and  C_10
REMARK    3  A    between atoms: C_10  and  N_11
REMARK    4  A    between atoms: N_14  and  C_15
REMARK    5  A    between atoms: C_15  and  C_16
REMARK                            x       y       z     vdW  Elec       q    Type
REMARK                         _______ _______ _______ _____ _____    ______ ____
ROOT
ATOM      1  N   UNL     1      -1.202  -0.720   0.010  0.00  0.00    -0.284 N 
ATOM      2  C   UNL     1      -2.374  -0.066   0.127  0.00  0.00    +0.234 C 
ATOM      3  O   UNL     1      -2.394   1.147   0.134  0.00  0.00    -0.274 OA
ATOM      4  H   UNL     1      -1.192  -1.687  -0.072  0.00  0.00    +0.155 HD
ENDROOT
BRANCH   1  10
ATOM      5  C   UNL     1       0.122   1.153   0.764  0.00  0.00    +0.027 A 
ATOM      6  C   UNL     1       1.310   1.863   0.764  0.00  0.00    +0.051 A 
ATOM      7  C   UNL     1       2.379   1.414   0.009  0.00  0.00    +0.162 A 
ATOM      8  C   UNL     1       2.263   0.257  -0.748  0.00  0.00    +0.164 A 
ATOM      9  C   UNL     1       1.076  -0.455  -0.751  0.00  0.00    +0.072 A 
ATOM     10  C   UNL     1       0.002  -0.004   0.008  0.00  0.00    +0.037 A 
ATOM     11  O   UNL     1       3.325  -0.175  -1.487  0.00  0.00    -0.488 OA
ATOM     12  C   UNL     1       3.685   0.643  -2.602  0.00  0.00    +0.232 C 
ATOM     13  C   UNL     1       4.595   1.780  -2.166  0.00  0.00    +0.082 C 
ATOM     14  C   UNL     1       3.898   2.750  -1.225  0.00  0.00    +0.232 C 
ATOM     15  O   UNL     1       3.556   2.107   0.004  0.00  0.00    -0.488 OA
ENDBRANCH   1  10
BRANCH   2  16
ATOM     16  C   UNL     1      -3.661  -0.841   0.249  0.00  0.00    +0.202 C 
BRANCH  16  17
ATOM     17  N   UNL     1      -4.785   0.092   0.362  0.00  0.00    -0.291 N 
ATOM     18  C   UNL     1      -6.042  -0.379   0.482  0.00  0.00    +0.300 C 
ATOM     19  O   UNL     1      -6.244  -1.577   0.497  0.00  0.00    -0.253 OA
ATOM     20  N   UNL     1      -7.076   0.480   0.587  0.00  0.00    -0.299 N 
ATOM     21  H   UNL     1      -4.624   1.048   0.350  0.00  0.00    +0.151 HD
ATOM     22  H   UNL     1      -6.915   1.437   0.575  0.00  0.00    +0.150 HD
BRANCH  20  23
ATOM     23  C   UNL     1      -8.442  -0.031   0.718  0.00  0.00    +0.109 C 
BRANCH  23  24
ATOM     24  C   UNL     1      -9.418   1.142   0.817  0.00  0.00    +0.006 C 
ATOM     25  C   UNL     1      -9.208   1.893   2.148  0.00  0.00    +0.005 C 
ATOM     26  C   UNL     1     -10.637   2.304   2.583  0.00  0.00    +0.000 C 
ATOM     27  C   UNL     1     -11.486   1.077   2.168  0.00  0.00    +0.000 C 
ATOM     28  C   UNL     1     -10.867   0.623   0.830  0.00  0.00    +0.005 C 
ENDBRANCH  23  24
ENDBRANCH  20  23
ENDBRANCH  16  17
ENDBRANCH   2  16
TORSDOF 5
