REMARK  Name = ZINC61865508
REMARK  5 active torsions:
REMARK  status: ('A' for Active; 'I' for Inactive)
REMARK    1  A    between atoms: C_5  and  C_6
REMARK    2  A    between atoms: N_8  and  N_9
REMARK    3  A    between atoms: N_12  and  C_13
REMARK    4  A    between atoms: C_13  and  C_14
REMARK    5  A    between atoms: C_14  and  C_15
REMARK                            x       y       z     vdW  Elec       q    Type
REMARK                         _______ _______ _______ _____ _____    ______ ____
ROOT
ATOM      1  N   UNL     1      -2.077  -3.108   0.006  0.00  0.00    -0.218 N 
ATOM      2  C   UNL     1      -1.890  -4.442  -0.003  0.00  0.00    +0.316 C 
ATOM      3  O   UNL     1      -2.849  -5.190   0.002  0.00  0.00    -0.251 OA
ATOM      4  N   UNL     1      -0.641  -4.948  -0.018  0.00  0.00    -0.298 N 
ATOM      5  H   UNL     1      -2.976  -2.744   0.017  0.00  0.00    +0.174 HD
ATOM      6  H   UNL     1       0.123  -4.351  -0.022  0.00  0.00    +0.150 HD
ENDROOT
BRANCH   1   9
ATOM      7  C   UNL     1      -1.160  -0.911   0.009  0.00  0.00    +0.263 C 
ATOM      8  O   UNL     1      -2.287  -0.455   0.022  0.00  0.00    -0.269 OA
ATOM      9  N   UNL     1      -0.973  -2.246  -0.000  0.00  0.00    -0.229 N 
ATOM     10  H   UNL     1      -0.074  -2.609  -0.011  0.00  0.00    +0.173 HD
BRANCH   7  15
ATOM     11  C   UNL     1      -0.018   1.466   0.010  0.00  0.00    +0.054 A 
ATOM     12  C   UNL     1       1.267   1.852  -0.000  0.00  0.00    +0.195 A 
ATOM     13  O   UNL     1       2.053   0.765  -0.013  0.00  0.00    -0.470 OA
ATOM     14  C   UNL     1       1.321  -0.353  -0.012  0.00  0.00    +0.208 A 
ATOM     15  C   UNL     1       0.002  -0.004   0.002  0.00  0.00    +0.076 A 
ENDBRANCH   7  15
ENDBRANCH   1   9
BRANCH   4  16
ATOM     16  C   UNL     1      -0.438  -6.399  -0.028  0.00  0.00    +0.110 C 
BRANCH  16  17
ATOM     17  C   UNL     1       1.061  -6.704  -0.044  0.00  0.00    +0.057 C 
BRANCH  17  18
ATOM     18  C   UNL     1       1.270  -8.196  -0.054  0.00  0.00    -0.001 A 
ATOM     19  C   UNL     1       1.475  -8.873   1.132  0.00  0.00    +0.045 A 
ATOM     20  C   UNL     1       1.668 -10.243   1.123  0.00  0.00    +0.124 A 
ATOM     21  C   UNL     1       1.656 -10.937  -0.075  0.00  0.00    +0.047 A 
ATOM     22  C   UNL     1       1.452 -10.263  -1.264  0.00  0.00    +0.023 A 
ATOM     23  C   UNL     1       1.251  -8.891  -1.256  0.00  0.00    +0.132 A 
ATOM     24  O   UNL     1       1.034  -8.217  -2.417  0.00  0.00    -0.466 OA
ATOM     25  C   UNL     1       1.377  -8.894  -3.630  0.00  0.00    +0.394 C 
ATOM     26  O   UNL     1       0.839 -10.221  -3.582  0.00  0.00    -0.339 OA
ATOM     27  C   UNL     1       1.445 -11.028  -2.563  0.00  0.00    +0.202 C 
ATOM     28  F   UNL     1       1.868 -10.905   2.284  0.00  0.00    -0.205 F 
ENDBRANCH  17  18
ENDBRANCH  16  17
ENDBRANCH   4  16
TORSDOF 5
