REMARK  Name = ZINC46084784
REMARK  6 active torsions:
REMARK  status: ('A' for Active; 'I' for Inactive)
REMARK    1  A    between atoms: C_6  and  O_7
REMARK    2  A    between atoms: O_7  and  C_8
REMARK    3  A    between atoms: C_8  and  C_9
REMARK    4  A    between atoms: C_9  and  N_10
REMARK    5  A    between atoms: C_14  and  N_22
REMARK    6  A    between atoms: N_18  and  O_19
REMARK                            x       y       z     vdW  Elec       q    Type
REMARK                         _______ _______ _______ _____ _____    ______ ____
ROOT
ATOM      1  N   UNL     1      -3.167  -2.382  -1.231  0.00  0.00    -0.262 N 
ATOM      2  C   UNL     1      -3.940  -1.237  -1.402  0.00  0.00    +0.046 A 
ATOM      3  C   UNL     1      -4.250  -0.197  -0.533  0.00  0.00    +0.026 A 
ATOM      4  C   UNL     1      -5.054   0.843  -0.955  0.00  0.00    +0.034 A 
ATOM      5  C   UNL     1      -5.561   0.865  -2.243  0.00  0.00    +0.127 A 
ATOM      6  C   UNL     1      -5.263  -0.160  -3.120  0.00  0.00    +0.044 A 
ATOM      7  C   UNL     1      -4.454  -1.211  -2.704  0.00  0.00    +0.032 A 
ATOM      8  C   UNL     1      -3.955  -2.434  -3.377  0.00  0.00    +0.173 C 
ATOM      9  N   UNL     1      -4.186  -2.818  -4.600  0.00  0.00    -0.082 NA
ATOM     10  C   UNL     1      -3.130  -3.123  -2.351  0.00  0.00    +0.273 C 
ATOM     11  O   UNL     1      -2.532  -4.171  -2.498  0.00  0.00    -0.268 OA
ENDROOT
BRANCH   5  12
ATOM     12  N   UNL     1      -6.422   1.986  -2.681  0.00  0.00    +0.056 N 
ATOM     13  O   UNL     1      -6.683   2.883  -1.913  0.00  0.00    -0.126 OA
ATOM     14  O   UNL     1      -6.864   2.005  -3.806  0.00  0.00    -0.126 OA
ENDBRANCH   5  12
BRANCH   9  15
ATOM     15  O   UNL     1      -3.623  -4.025  -5.081  0.00  0.00    -0.409 OA
ATOM     16  H   UNL     1      -3.850  -4.226  -5.999  0.00  0.00    +0.328 HD
ENDBRANCH   9  15
BRANCH   1  17
ATOM     17  C   UNL     1      -2.475  -2.731   0.012  0.00  0.00    +0.155 C 
BRANCH  17  18
ATOM     18  C   UNL     1      -1.070  -2.126   0.001  0.00  0.00    +0.248 C 
BRANCH  18  19
ATOM     19  O   UNL     1      -1.165  -0.701   0.010  0.00  0.00    -0.490 OA
BRANCH  19  25
ATOM     20  C   UNL     1      -0.017   1.383   0.010  0.00  0.00    +0.047 A 
ATOM     21  C   UNL     1       1.171   2.089   0.002  0.00  0.00    +0.023 A 
ATOM     22  C   UNL     1       2.378   1.414  -0.013  0.00  0.00    +0.041 A 
ATOM     23  C   UNL     1       2.399   0.030  -0.021  0.00  0.00    +0.023 A 
ATOM     24  C   UNL     1       1.214  -0.679  -0.014  0.00  0.00    +0.047 A 
ATOM     25  C   UNL     1       0.002  -0.004   0.002  0.00  0.00    +0.121 A 
ATOM     26 CL   UNL     1       3.869   2.303  -0.024  0.00  0.00    -0.084 Cl
ENDBRANCH  19  25
ENDBRANCH  18  19
ENDBRANCH  17  18
ENDBRANCH   1  17
TORSDOF 6
