REMARK  Name = ZINC08819272
REMARK  8 active torsions:
REMARK  status: ('A' for Active; 'I' for Inactive)
REMARK    1  A    between atoms: C_5  and  C_7
REMARK    2  A    between atoms: N_11  and  C_15
REMARK    3  A    between atoms: C_15  and  C_16
REMARK    4  A    between atoms: C_16  and  C_17
REMARK    5  A    between atoms: N_19  and  N_20
REMARK    6  A    between atoms: C_21  and  C_23
REMARK    7  A    between atoms: C_23  and  S_24
REMARK    8  A    between atoms: S_24  and  C_25
REMARK                            x       y       z     vdW  Elec       q    Type
REMARK                         _______ _______ _______ _____ _____    ______ ____
ROOT
ATOM      1  C   UNL     1      -0.759  -0.065   0.364  0.00  0.00    +0.231 C 
ATOM      2  O   UNL     1      -0.505   1.114   0.235  0.00  0.00    -0.274 OA
ATOM      3  N   UNL     1       0.239  -0.955   0.532  0.00  0.00    -0.234 N 
ATOM      4  H   UNL     1       0.036  -1.897   0.635  0.00  0.00    +0.173 HD
ENDROOT
BRANCH   3   5
ATOM      5  N   UNL     1       1.571  -0.519   0.551  0.00  0.00    -0.234 N 
ATOM      6  C   UNL     1       2.569  -1.409   0.714  0.00  0.00    +0.239 C 
ATOM      7  O   UNL     1       2.315  -2.588   0.842  0.00  0.00    -0.273 OA
ATOM      8  H   UNL     1       1.774   0.424   0.448  0.00  0.00    +0.173 HD
BRANCH   6   9
ATOM      9  C   UNL     1       4.001  -0.941   0.735  0.00  0.00    +0.174 C 
BRANCH   9  10
ATOM     10  S   UNL     1       5.098  -2.362   0.966  0.00  0.00    -0.078 S 
BRANCH  10  11
ATOM     11  C   UNL     1       6.660  -1.548   0.953  0.00  0.00    +0.168 A 
ATOM     12  N   UNL     1       7.870  -2.167   1.093  0.00  0.00    -0.333 N 
ATOM     13  H   UNL     1       8.023  -3.147   1.220  0.00  0.00    +0.168 HD
ATOM     14  C   UNL     1       8.845  -1.185   1.027  0.00  0.00    +0.067 A 
ATOM     15  C   UNL     1      10.229  -1.198   1.104  0.00  0.00    +0.028 A 
ATOM     16  C   UNL     1      10.934  -0.016   0.999  0.00  0.00    +0.002 A 
ATOM     17  C   UNL     1      10.267   1.186   0.816  0.00  0.00    +0.002 A 
ATOM     18  C   UNL     1       8.892   1.217   0.738  0.00  0.00    +0.030 A 
ATOM     19  C   UNL     1       8.164   0.030   0.843  0.00  0.00    +0.090 A 
ATOM     20  N   UNL     1       6.837  -0.258   0.800  0.00  0.00    -0.222 NA
ENDBRANCH  10  11
ENDBRANCH   9  10
ENDBRANCH   6   9
ENDBRANCH   3   5
BRANCH   1  21
ATOM     21  C   UNL     1      -2.190  -0.534   0.337  0.00  0.00    +0.116 C 
BRANCH  21  22
ATOM     22  C   UNL     1      -3.117   0.666   0.136  0.00  0.00    +0.124 C 
BRANCH  22  27
ATOM     23  C   UNL     1      -7.514  -0.482   2.125  0.00  0.00    +0.031 C 
ATOM     24  C   UNL     1      -6.589  -0.320   1.146  0.00  0.00    +0.077 C 
ATOM     25  C   UNL     1      -5.190   0.148   1.241  0.00  0.00    +0.258 C 
ATOM     26  O   UNL     1      -4.691   0.461   2.306  0.00  0.00    -0.269 OA
ATOM     27  N   UNL     1      -4.509   0.210   0.109  0.00  0.00    -0.255 N 
ATOM     28  C   UNL     1      -5.068  -0.133  -1.070  0.00  0.00    +0.121 C 
ATOM     29  S   UNL     1      -4.358  -0.114  -2.628  0.00  0.00    -0.027 S 
ATOM     30  S   UNL     1      -6.725  -0.613  -0.612  0.00  0.00    -0.061 S 
BRANCH  23  35
ATOM     31  C   UNL     1     -10.160  -2.486   0.382  0.00  0.00    +0.001 A 
ATOM     32  C   UNL     1     -11.234  -2.317   1.240  0.00  0.00    +0.003 A 
ATOM     33  C   UNL     1     -11.102  -1.554   2.386  0.00  0.00    +0.039 A 
ATOM     34  C   UNL     1      -9.894  -0.952   2.683  0.00  0.00    +0.131 A 
ATOM     35  C   UNL     1      -8.803  -1.118   1.819  0.00  0.00    +0.011 A 
ATOM     36  C   UNL     1      -8.950  -1.889   0.660  0.00  0.00    +0.011 A 
ATOM     37  F   UNL     1      -9.765  -0.205   3.801  0.00  0.00    -0.205 F 
ENDBRANCH  23  35
ENDBRANCH  22  27
ENDBRANCH  21  22
ENDBRANCH   1  21
TORSDOF 8
