REMARK  Name = ZINC01921120
REMARK  6 active torsions:
REMARK  status: ('A' for Active; 'I' for Inactive)
REMARK    1  A    between atoms: C_6  and  N_7
REMARK    2  A    between atoms: C_11  and  S_13
REMARK    3  A    between atoms: S_13  and  C_14
REMARK    4  A    between atoms: C_14  and  C_15
REMARK    5  A    between atoms: N_17  and  C_18
REMARK    6  A    between atoms: N_25  and  C_26
REMARK                            x       y       z     vdW  Elec       q    Type
REMARK                         _______ _______ _______ _____ _____    ______ ____
ROOT
ATOM      1  C   UNL     1       0.174   2.136   0.901  0.00  0.00    +0.228 C 
ATOM      2  O   UNL     1       0.513   1.621   1.946  0.00  0.00    -0.275 OA
ATOM      3  N   UNL     1      -0.061   1.371  -0.183  0.00  0.00    -0.271 N 
ATOM      4  H   UNL     1      -0.292   1.842  -1.149  0.00  0.00    +0.156 HD
ENDROOT
BRANCH   3   5
ATOM      5  C   UNL     1      -0.011  -0.003  -0.080  0.00  0.00    +0.114 A 
ATOM      6  C   UNL     1       1.183  -0.658  -0.182  0.00  0.00    +0.114 A 
ATOM      7  C   UNL     1       1.205  -2.059  -0.068  0.00  0.00    +0.278 A 
ATOM      8  O   UNL     1       2.259  -2.665  -0.151  0.00  0.00    -0.266 OA
ATOM      9  N   UNL     1       0.051  -2.728   0.128  0.00  0.00    -0.154 NA
ATOM     10  C   UNL     1      -1.116  -2.066   0.221  0.00  0.00    +0.353 A 
ATOM     11  O   UNL     1      -2.145  -2.688   0.398  0.00  0.00    -0.244 OA
ATOM     12  N   UNL     1      -1.162  -0.725   0.120  0.00  0.00    -0.277 N 
BRANCH  12  13
ATOM     13  C   UNL     1      -2.447  -0.030   0.225  0.00  0.00    +0.093 C 
ATOM     14  C   UNL     1      -3.072  -0.318   1.591  0.00  0.00    +0.025 C 
ATOM     15  C   UNL     1      -4.415   0.408   1.701  0.00  0.00    +0.002 C 
ATOM     16  C   UNL     1      -5.353  -0.086   0.598  0.00  0.00    +0.000 C 
ATOM     17  C   UNL     1      -4.728   0.201  -0.769  0.00  0.00    +0.002 C 
ATOM     18  C   UNL     1      -3.385  -0.524  -0.879  0.00  0.00    +0.025 C 
ENDBRANCH  12  13
ENDBRANCH   3   5
BRANCH   1  19
ATOM     19  C   UNL     1       0.016   3.632   0.816  0.00  0.00    +0.172 C 
BRANCH  19  20
ATOM     20  S   UNL     1       0.399   4.373   2.422  0.00  0.00    -0.089 S 
BRANCH  20  28
ATOM     21  C   UNL     1      -0.524  10.875   1.212  0.00  0.00    +0.034 A 
ATOM     22  C   UNL     1      -0.629   9.716   0.463  0.00  0.00    +0.019 A 
ATOM     23  C   UNL     1      -0.357   8.505   1.047  0.00  0.00    +0.040 A 
ATOM     24  C   UNL     1       0.033   8.381   2.400  0.00  0.00    +0.082 A 
ATOM     25  C   UNL     1       0.131   9.585   3.135  0.00  0.00    +0.061 A 
ATOM     26  C   UNL     1      -0.144  10.791   2.543  0.00  0.00    +0.128 A 
ATOM     27  N   UNL     1       0.266   7.121   2.829  0.00  0.00    -0.233 NA
ATOM     28  C   UNL     1       0.141   6.074   2.045  0.00  0.00    +0.136 A 
ATOM     29  S   UNL     1      -0.352   6.816   0.495  0.00  0.00    -0.061 S 
BRANCH  26  30
ATOM     30  N   UNL     1      -0.031  12.031   3.343  0.00  0.00    +0.056 N 
ATOM     31  O   UNL     1      -0.271  13.110   2.830  0.00  0.00    -0.126 OA
ATOM     32  O   UNL     1       0.302  11.973   4.513  0.00  0.00    -0.126 OA
ENDBRANCH  26  30
ENDBRANCH  20  28
ENDBRANCH  19  20
ENDBRANCH   1  19
TORSDOF 6
