REMARK  Name = ZINC39040652
REMARK  7 active torsions:
REMARK  status: ('A' for Active; 'I' for Inactive)
REMARK    1  A    between atoms: C_1  and  O_2
REMARK    2  A    between atoms: O_2  and  C_3
REMARK    3  A    between atoms: C_7  and  N_17
REMARK    4  A    between atoms: C_8  and  C_13
REMARK    5  A    between atoms: C_13  and  O_15
REMARK    6  A    between atoms: O_15  and  C_16
REMARK    7  A    between atoms: C_18  and  C_20
REMARK                            x       y       z     vdW  Elec       q    Type
REMARK                         _______ _______ _______ _____ _____    ______ ____
ROOT
ATOM      1  C   UNL     1      -0.208  -2.056   0.733  0.00  0.00    +0.122 A 
ATOM      2  C   UNL     1      -0.984  -0.894   0.596  0.00  0.00    +0.046 A 
ATOM      3  C   UNL     1      -2.304  -0.955   0.299  0.00  0.00    +0.015 A 
ATOM      4  C   UNL     1      -2.927  -2.214   0.118  0.00  0.00    +0.018 A 
ATOM      5  C   UNL     1      -4.228  -2.575  -0.184  0.00  0.00    +0.053 C 
ATOM      6  C   UNL     1      -4.235  -4.086  -0.235  0.00  0.00    +0.234 C 
ATOM      7  N   UNL     1      -2.861  -4.508   0.059  0.00  0.00    -0.367 N 
ATOM      8  C   UNL     1      -2.117  -3.437   0.260  0.00  0.00    +0.048 A 
ATOM      9  C   UNL     1      -0.743  -3.297   0.567  0.00  0.00    +0.071 A 
ATOM     10  H   UNL     1      -2.550  -5.426   0.099  0.00  0.00    +0.161 HD
ENDROOT
BRANCH   5  11
ATOM     11  N   UNL     1      -5.283  -1.742  -0.392  0.00  0.00    -0.280 N 
ATOM     12  C   UNL     1      -6.524  -2.248  -0.531  0.00  0.00    +0.283 C 
ATOM     13  O   UNL     1      -6.716  -3.440  -0.380  0.00  0.00    -0.266 OA
ATOM     14  H   UNL     1      -5.142  -0.783  -0.441  0.00  0.00    +0.155 HD
BRANCH  12  15
ATOM     15  C   UNL     1      -7.646  -1.361  -0.866  0.00  0.00    +0.191 A 
ATOM     16  C   UNL     1      -8.936  -1.758  -1.025  0.00  0.00    +0.063 A 
ATOM     17  C   UNL     1      -9.694  -0.550  -1.348  0.00  0.00    +0.022 A 
ATOM     18  C   UNL     1     -11.040  -0.289  -1.621  0.00  0.00    +0.031 A 
ATOM     19  C   UNL     1     -11.439   0.990  -1.893  0.00  0.00    +0.042 A 
ATOM     20  C   UNL     1     -10.517   2.029  -1.900  0.00  0.00    +0.023 A 
ATOM     21  C   UNL     1      -9.186   1.791  -1.633  0.00  0.00    +0.048 A 
ATOM     22  C   UNL     1      -8.756   0.499  -1.353  0.00  0.00    +0.136 A 
ATOM     23  O   UNL     1      -7.553  -0.029  -1.056  0.00  0.00    -0.450 OA
ATOM     24 CL   UNL     1     -13.110   1.317  -2.233  0.00  0.00    -0.084 Cl
ENDBRANCH  12  15
ENDBRANCH   5  11
BRANCH   1  26
ATOM     25  C   UNL     1       1.622  -0.614   1.195  0.00  0.00    +0.277 C 
ATOM     26  O   UNL     1       1.110  -1.938   1.031  0.00  0.00    -0.495 OA
ENDBRANCH   1  26
BRANCH   6  27
ATOM     27  C   UNL     1      -4.642  -4.558  -1.607  0.00  0.00    +0.335 C 
ATOM     28  O   UNL     1      -3.837  -4.559  -2.509  0.00  0.00    -0.248 OA
BRANCH  27  29
ATOM     29  O   UNL     1      -5.898  -4.976  -1.828  0.00  0.00    -0.466 OA
ATOM     30  C   UNL     1      -6.214  -5.409  -3.153  0.00  0.00    +0.280 C 
ENDBRANCH  27  29
ENDBRANCH   6  27
TORSDOF 5
