REMARK  Name = ZINC06754991
REMARK  5 active torsions:
REMARK  status: ('A' for Active; 'I' for Inactive)
REMARK    1  A    between atoms: C_1  and  O_2
REMARK    2  A    between atoms: O_2  and  C_3
REMARK    3  A    between atoms: C_6  and  C_9
REMARK    4  A    between atoms: C_10  and  C_11
REMARK    5  A    between atoms: C_15  and  C_19
REMARK                            x       y       z     vdW  Elec       q    Type
REMARK                         _______ _______ _______ _____ _____    ______ ____
ROOT
ATOM      1  C   UNL     1      -2.841  -1.374   2.040  0.00  0.00    +0.242 C 
ATOM      2  O   UNL     1      -2.624  -2.562   1.889  0.00  0.00    -0.270 OA
ATOM      3  N   UNL     1      -2.035  -0.463   1.460  0.00  0.00    -0.262 N 
ATOM      4  C   UNL     1      -0.954  -0.881   0.689  0.00  0.00    +0.197 A 
ATOM      5  C   UNL     1       0.002  -0.004   0.002  0.00  0.00    +0.156 A 
ATOM      6  N   UNL     1       0.871  -0.755  -0.623  0.00  0.00    -0.047 NA
ATOM      7  O   UNL     1       0.535  -2.108  -0.370  0.00  0.00    -0.240 OA
ATOM      8  N   UNL     1      -0.617  -2.119   0.453  0.00  0.00    -0.033 NA
ATOM      9  H   UNL     1      -2.208   0.484   1.580  0.00  0.00    +0.157 HD
ENDROOT
BRANCH   5  10
ATOM     10  C   UNL     1      -0.018   1.479   0.010  0.00  0.00    +0.007 A 
ATOM     11  C   UNL     1      -1.233   2.161   0.020  0.00  0.00    +0.013 A 
ATOM     12  C   UNL     1      -1.247   3.541   0.032  0.00  0.00    +0.039 A 
ATOM     13  C   UNL     1      -0.056   4.248   0.024  0.00  0.00    +0.123 A 
ATOM     14  C   UNL     1       1.155   3.573   0.010  0.00  0.00    +0.039 A 
ATOM     15  C   UNL     1       1.178   2.194   0.003  0.00  0.00    +0.013 A 
ATOM     16  F   UNL     1      -0.074   5.599   0.031  0.00  0.00    -0.205 F 
ENDBRANCH   5  10
BRANCH   1  18
ATOM     17  C   UNL     1      -4.784  -1.847   3.431  0.00  0.00    +0.013 C 
ATOM     18  C   UNL     1      -3.976  -0.935   2.850  0.00  0.00    +0.068 C 
BRANCH  17  22
ATOM     19  C   UNL     1      -8.077  -0.574   5.781  0.00  0.00    +0.120 A 
ATOM     20  C   UNL     1      -7.832  -1.932   5.610  0.00  0.00    +0.046 A 
ATOM     21  C   UNL     1      -6.764  -2.350   4.848  0.00  0.00    +0.011 A 
ATOM     22  C   UNL     1      -5.925  -1.406   4.245  0.00  0.00    -0.025 A 
ATOM     23  C   UNL     1      -6.173  -0.040   4.425  0.00  0.00    +0.011 A 
ATOM     24  C   UNL     1      -7.247   0.368   5.184  0.00  0.00    +0.046 A 
BRANCH  19  26
ATOM     25  C   UNL     1      -9.326   1.243   6.667  0.00  0.00    +0.277 C 
ATOM     26  O   UNL     1      -9.131  -0.166   6.533  0.00  0.00    -0.495 OA
ENDBRANCH  19  26
ENDBRANCH  17  22
ENDBRANCH   1  18
TORSDOF 4
