REMARK  Name = ZINC13151126
REMARK  12 active torsions:
REMARK  status: ('A' for Active; 'I' for Inactive)
REMARK    1  A    between atoms: C_1  and  C_2
REMARK    2  A    between atoms: C_2  and  C_3
REMARK    3  A    between atoms: C_2  and  C_4
REMARK    4  A    between atoms: C_2  and  N_5
REMARK    5  A    between atoms: C_6  and  C_8
REMARK    6  A    between atoms: C_8  and  C_10
REMARK    7  A    between atoms: C_8  and  N_17
REMARK    8  A    between atoms: C_13  and  O_16
REMARK    9  A    between atoms: N_17  and  C_18
REMARK   10  A    between atoms: C_25  and  C_27
REMARK   11  A    between atoms: C_27  and  C_28
REMARK   12  A    between atoms: C_28  and  C_29
REMARK                            x       y       z     vdW  Elec       q    Type
REMARK                         _______ _______ _______ _____ _____    ______ ____
ROOT
ATOM      1  N   UNL     1       4.099  -0.582  -2.993  0.00  0.00    -0.255 N 
ATOM      2  C   UNL     1       4.389   0.169  -4.074  0.00  0.00    +0.221 C 
ATOM      3  O   UNL     1       3.498   0.708  -4.695  0.00  0.00    -0.275 OA
ENDROOT
BRANCH   1   4
ATOM      4  C   UNL     1       5.116  -1.281  -2.333  0.00  0.00    +0.040 A 
ATOM      5  C   UNL     1       5.167  -2.667  -2.405  0.00  0.00    +0.024 A 
ATOM      6  C   UNL     1       6.171  -3.356  -1.754  0.00  0.00    +0.005 A 
ATOM      7  C   UNL     1       7.127  -2.667  -1.030  0.00  0.00    +0.038 A 
ATOM      8  C   UNL     1       7.080  -1.285  -0.956  0.00  0.00    +0.125 A 
ATOM      9  C   UNL     1       6.079  -0.590  -1.611  0.00  0.00    +0.062 A 
ATOM     10  F   UNL     1       8.015  -0.615  -0.248  0.00  0.00    -0.205 F 
ENDBRANCH   1   4
BRANCH   1  11
ATOM     11  C   UNL     1       2.719  -0.666  -2.509  0.00  0.00    +0.197 C 
BRANCH  11  12
ATOM     12  C   UNL     1       2.642  -1.664  -1.382  0.00  0.00    -0.018 A 
ATOM     13  C   UNL     1       3.428  -1.497  -0.257  0.00  0.00    +0.009 A 
ATOM     14  C   UNL     1       3.360  -2.411   0.777  0.00  0.00    +0.046 A 
ATOM     15  C   UNL     1       2.501  -3.497   0.686  0.00  0.00    +0.117 A 
ATOM     16  C   UNL     1       1.713  -3.662  -0.444  0.00  0.00    +0.046 A 
ATOM     17  C   UNL     1       1.781  -2.743  -1.473  0.00  0.00    +0.009 A 
BRANCH  15  18
ATOM     18  O   UNL     1       2.432  -4.397   1.701  0.00  0.00    -0.507 OA
ATOM     19  H   UNL     1       1.771  -4.182   2.373  0.00  0.00    +0.292 HD
ENDBRANCH  15  18
ENDBRANCH  11  12
BRANCH  11  21
ATOM     20  N   UNL     1       1.034   0.850  -1.517  0.00  0.00    -0.309 N 
ATOM     21  C   UNL     1       2.277   0.686  -2.012  0.00  0.00    +0.239 C 
ATOM     22  O   UNL     1       3.040   1.628  -2.059  0.00  0.00    -0.273 OA
ATOM     23  H   UNL     1       0.424   0.096  -1.480  0.00  0.00    +0.149 HD
BRANCH  20  25
ATOM     24  C   UNL     1       0.683   3.178  -2.178  0.00  0.00    +0.031 C 
ATOM     25  C   UNL     1       0.605   2.164  -1.035  0.00  0.00    +0.026 C 
ATOM     26  C   UNL     1       1.519   2.613   0.107  0.00  0.00    +0.031 C 
ATOM     27  C   UNL     1      -0.837   2.076  -0.529  0.00  0.00    +0.031 C 
ENDBRANCH  20  25
ENDBRANCH  11  21
ENDBRANCH   1  11
BRANCH   2  28
ATOM     28  C   UNL     1       5.822   0.340  -4.510  0.00  0.00    +0.105 C 
BRANCH  28  29
ATOM     29  C   UNL     1       5.883   1.311  -5.691  0.00  0.00    +0.105 C 
BRANCH  29  30
ATOM     30  C   UNL     1       7.315   1.482  -6.127  0.00  0.00    +0.219 C 
ATOM     31  O   UNL     1       8.200   0.885  -5.551  0.00  0.00    -0.275 OA
ATOM     32  N   UNL     1       7.612   2.297  -7.159  0.00  0.00    -0.265 N 
ATOM     33  C   UNL     1       8.934   2.454  -7.561  0.00  0.00    +0.164 A 
ATOM     34  N   UNL     1      10.013   1.890  -7.063  0.00  0.00    -0.233 NA
ATOM     35  C   UNL     1      11.208   2.145  -7.562  0.00  0.00    +0.120 A 
ATOM     36  C   UNL     1      11.269   3.010  -8.604  0.00  0.00    +0.068 A 
ATOM     37  S   UNL     1       9.540   3.407  -8.809  0.00  0.00    -0.061 S 
ATOM     38  H   UNL     1       6.905   2.773  -7.620  0.00  0.00    +0.157 HD
ENDBRANCH  29  30
ENDBRANCH  28  29
ENDBRANCH   2  28
TORSDOF 9
