REMARK  Name = ZINC10562425
REMARK  10 active torsions:
REMARK  status: ('A' for Active; 'I' for Inactive)
REMARK    1  A    between atoms: C_4  and  O_7
REMARK    2  A    between atoms: O_7  and  C_8
REMARK    3  A    between atoms: C_8  and  C_9
REMARK    4  A    between atoms: C_12  and  C_14
REMARK    5  A    between atoms: C_14  and  O_16
REMARK    6  A    between atoms: O_16  and  C_17
REMARK    7  A    between atoms: C_17  and  C_18
REMARK    8  A    between atoms: N_20  and  C_21
REMARK    9  A    between atoms: C_23  and  C_32
REMARK   10  A    between atoms: C_26  and  N_27
REMARK                            x       y       z     vdW  Elec       q    Type
REMARK                         _______ _______ _______ _____ _____    ______ ____
ROOT
ATOM      1  C   UNL     1       0.860   8.052   0.051  0.00  0.00    +0.255 C 
ATOM      2  O   UNL     1      -0.350   7.964   0.053  0.00  0.00    -0.272 OA
ATOM      3  N   UNL     1       1.447   9.265   0.048  0.00  0.00    -0.281 N 
ATOM      4  H   UNL     1       2.412   9.336   0.113  0.00  0.00    +0.155 HD
ENDROOT
BRANCH   3   5
ATOM      5  C   UNL     1       0.664  10.421  -0.048  0.00  0.00    +0.060 A 
ATOM      6  C   UNL     1      -0.585  10.468   0.554  0.00  0.00    +0.037 A 
ATOM      7  C   UNL     1      -1.353  11.613   0.462  0.00  0.00    +0.057 A 
ATOM      8  C   UNL     1      -0.886  12.710  -0.240  0.00  0.00    +0.014 A 
ATOM      9  C   UNL     1       0.354  12.669  -0.848  0.00  0.00    +0.030 A 
ATOM     10  C   UNL     1       1.135  11.527  -0.755  0.00  0.00    +0.088 A 
BRANCH  10  11
ATOM     11  N   UNL     1       2.394  11.484  -1.371  0.00  0.00    -0.218 N 
ATOM     12  C   UNL     1       3.019  12.495  -2.004  0.00  0.00    +0.225 A 
ATOM     13  N   UNL     1       4.172  12.053  -2.436  0.00  0.00    -0.222 NA
ATOM     14  C   UNL     1       4.315  10.769  -2.110  0.00  0.00    +0.245 A 
ATOM     15  N   UNL     1       3.252  10.375  -1.457  0.00  0.00    -0.153 NA
ENDBRANCH  10  11
BRANCH   7  16
ATOM     16  C   UNL     1      -2.707  11.664   1.121  0.00  0.00    +0.417 C 
ATOM     17  F   UNL     1      -3.294  12.912   0.886  0.00  0.00    -0.166 F 
ATOM     18  F   UNL     1      -3.522  10.658   0.592  0.00  0.00    -0.166 F 
ATOM     19  F   UNL     1      -2.562  11.470   2.499  0.00  0.00    -0.166 F 
ENDBRANCH   7  16
ENDBRANCH   3   5
BRANCH   1  20
ATOM     20  C   UNL     1       1.706   6.804   0.052  0.00  0.00    +0.328 C 
BRANCH  20  21
ATOM     21  O   UNL     1       0.845   5.635   0.056  0.00  0.00    -0.450 OA
BRANCH  21  22
ATOM     22  C   UNL     1       1.449   4.429   0.057  0.00  0.00    +0.375 C 
ATOM     23  O   UNL     1       2.663   4.358   0.055  0.00  0.00    -0.241 OA
BRANCH  22  27
ATOM     24  C   UNL     1      -1.091   1.862   0.060  0.00  0.00    +0.143 A 
ATOM     25  C   UNL     1       0.009   1.077   0.065  0.00  0.00    +0.049 A 
ATOM     26  C   UNL     1       1.125   1.928   0.062  0.00  0.00    +0.057 A 
ATOM     27  C   UNL     1       0.643   3.206   0.060  0.00  0.00    +0.212 A 
ATOM     28  O   UNL     1      -0.705   3.145   0.063  0.00  0.00    -0.450 OA
BRANCH  24  29
ATOM     29  C   UNL     1      -2.517   1.375   0.055  0.00  0.00    +0.303 C 
BRANCH  29  30
ATOM     30  O   UNL     1      -2.973   1.223   1.401  0.00  0.00    -0.484 OA
BRANCH  30  34
ATOM     31  C   UNL     1      -6.846  -0.098   1.928  0.00  0.00    +0.000 A 
ATOM     32  C   UNL     1      -6.054   0.176   3.028  0.00  0.00    +0.004 A 
ATOM     33  C   UNL     1      -4.757   0.618   2.854  0.00  0.00    +0.045 A 
ATOM     34  C   UNL     1      -4.249   0.788   1.574  0.00  0.00    +0.121 A 
ATOM     35  C   UNL     1      -5.047   0.519   0.472  0.00  0.00    +0.045 A 
ATOM     36  C   UNL     1      -6.341   0.071   0.651  0.00  0.00    +0.004 A 
ENDBRANCH  30  34
ENDBRANCH  29  30
ENDBRANCH  24  29
ENDBRANCH  22  27
ENDBRANCH  21  22
ENDBRANCH  20  21
ENDBRANCH   1  20
TORSDOF 10
