REMARK  Name = ZINC20439998
REMARK  7 active torsions:
REMARK  status: ('A' for Active; 'I' for Inactive)
REMARK    1  A    between atoms: C_1  and  O_2
REMARK    2  A    between atoms: O_2  and  C_3
REMARK    3  A    between atoms: C_9  and  C_13
REMARK    4  A    between atoms: C_13  and  C_15
REMARK    5  A    between atoms: C_15  and  N_16
REMARK    6  A    between atoms: N_19  and  C_22
REMARK    7  A    between atoms: C_22  and  C_23
REMARK                            x       y       z     vdW  Elec       q    Type
REMARK                         _______ _______ _______ _____ _____    ______ ____
ROOT
ATOM      1  N   UNL     1       8.107  -2.696   0.102  0.00  0.00    +0.386 N 
ATOM      2  C   UNL     1       8.396  -1.330   0.559  0.00  0.00    -0.063 C 
ATOM      3  C   UNL     1       7.441  -0.962   1.696  0.00  0.00    +0.066 C 
ATOM      4  N   UNL     1       6.054  -1.074   1.223  0.00  0.00    -0.302 NA
ATOM      5  C   UNL     1       5.765  -2.440   0.767  0.00  0.00    +0.066 C 
ATOM      6  C   UNL     1       6.720  -2.808  -0.371  0.00  0.00    -0.063 C 
ATOM      7  H   UNL     1       8.229  -3.374   0.960  0.00  0.00    -0.081 HD
ENDROOT
BRANCH   1   8
ATOM      8  C   UNL     1       9.054  -3.114  -0.940  0.00  0.00    +0.002 C 
BRANCH   8   9
ATOM      9  C   UNL     1       8.888  -4.588  -1.208  0.00  0.00    +0.149 C 
ATOM     10  O   UNL     1       8.061  -5.228  -0.591  0.00  0.00    -0.294 OA
BRANCH   9  17
ATOM     11  C   UNL     1       9.128  -8.985  -2.722  0.00  0.00    +0.121 A 
ATOM     12  C   UNL     1      10.098  -9.136  -3.708  0.00  0.00    +0.047 A 
ATOM     13  C   UNL     1      10.850  -8.059  -4.123  0.00  0.00    +0.030 A 
ATOM     14  C   UNL     1      10.642  -6.806  -3.557  0.00  0.00    +0.047 A 
ATOM     15  C   UNL     1       9.667  -6.654  -2.558  0.00  0.00    +0.014 A 
ATOM     16  C   UNL     1       8.908  -7.746  -2.149  0.00  0.00    +0.056 A 
ATOM     17  C   UNL     1       9.697  -5.227  -2.180  0.00  0.00    +0.041 A 
ATOM     18  C   UNL     1      10.673  -4.643  -2.958  0.00  0.00    +0.095 A 
ATOM     19  N   UNL     1      11.225  -5.570  -3.763  0.00  0.00    -0.360 N 
ATOM     20  H   UNL     1      12.026  -5.458  -4.509  0.00  0.00    +0.165 HD
BRANCH  11  22
ATOM     21  C   UNL     1       8.672 -11.307  -2.958  0.00  0.00    +0.277 C 
ATOM     22  O   UNL     1       8.394 -10.057  -2.323  0.00  0.00    -0.495 OA
ENDBRANCH  11  22
ENDBRANCH   9  17
ENDBRANCH   8   9
ENDBRANCH   1   8
BRANCH   4  23
ATOM     23  C   UNL     1       5.107  -0.655   2.265  0.00  0.00    +0.119 C 
BRANCH  23  24
ATOM     24  C   UNL     1       3.725  -0.548   1.674  0.00  0.00    -0.030 A 
ATOM     25  C   UNL     1       2.885  -1.646   1.677  0.00  0.00    +0.009 A 
ATOM     26  C   UNL     1       1.617  -1.553   1.135  0.00  0.00    +0.050 A 
ATOM     27  C   UNL     1       1.183  -0.356   0.589  0.00  0.00    +0.166 A 
ATOM     28  C   UNL     1       2.028   0.751   0.586  0.00  0.00    +0.167 A 
ATOM     29  C   UNL     1       3.298   0.650   1.131  0.00  0.00    +0.054 A 
ATOM     30  O   UNL     1       1.376   1.797  -0.001  0.00  0.00    -0.453 OA
ATOM     31  C   UNL     1      -0.018   1.436   0.010  0.00  0.00    +0.466 C 
ATOM     32  O   UNL     1       0.002  -0.004   0.002  0.00  0.00    -0.453 OA
ENDBRANCH  23  24
ENDBRANCH   4  23
TORSDOF 6
