REMARK  Name = ZINC12740880
REMARK  9 active torsions:
REMARK  status: ('A' for Active; 'I' for Inactive)
REMARK    1  A    between atoms: C_1  and  C_2
REMARK    2  A    between atoms: C_2  and  C_4
REMARK    3  A    between atoms: C_2  and  N_22
REMARK    4  A    between atoms: N_6  and  N_7
REMARK    5  A    between atoms: C_8  and  C_10
REMARK    6  A    between atoms: C_10  and  C_11
REMARK    7  A    between atoms: C_11  and  C_12
REMARK    8  A    between atoms: C_12  and  O_13
REMARK    9  A    between atoms: O_13  and  C_14
REMARK                            x       y       z     vdW  Elec       q    Type
REMARK                         _______ _______ _______ _____ _____    ______ ____
ROOT
ATOM      1  C   UNL     1      -1.187   1.624   0.017  0.00  0.00    +0.249 C 
ATOM      2  O   UNL     1      -1.204   2.837   0.023  0.00  0.00    -0.272 OA
ATOM      3  N   UNL     1      -0.011   0.966   0.007  0.00  0.00    -0.233 N 
ATOM      4  H   UNL     1       0.002  -0.004   0.002  0.00  0.00    +0.173 HD
ENDROOT
BRANCH   3   5
ATOM      5  N   UNL     1       1.193   1.683  -0.000  0.00  0.00    -0.234 N 
ATOM      6  C   UNL     1       2.369   1.025  -0.015  0.00  0.00    +0.229 C 
ATOM      7  O   UNL     1       2.385  -0.188  -0.022  0.00  0.00    -0.274 OA
ATOM      8  H   UNL     1       1.179   2.653   0.005  0.00  0.00    +0.173 HD
BRANCH   6   9
ATOM      9  C   UNL     1       3.663   1.796  -0.023  0.00  0.00    +0.100 C 
BRANCH   9  10
ATOM     10  C   UNL     1       4.840   0.818  -0.040  0.00  0.00    +0.050 C 
BRANCH  10  11
ATOM     11  C   UNL     1       6.154   1.601  -0.048  0.00  0.00    +0.229 C 
BRANCH  11  12
ATOM     12  O   UNL     1       7.253   0.687  -0.064  0.00  0.00    -0.490 OA
BRANCH  12  13
ATOM     13  C   UNL     1       8.502   1.224  -0.072  0.00  0.00    +0.139 A 
ATOM     14  C   UNL     1       8.666   2.601  -0.067  0.00  0.00    +0.048 A 
ATOM     15  C   UNL     1       9.936   3.144  -0.076  0.00  0.00    +0.023 A 
ATOM     16  C   UNL     1      11.044   2.316  -0.091  0.00  0.00    +0.043 A 
ATOM     17  C   UNL     1      10.884   0.942  -0.097  0.00  0.00    +0.043 A 
ATOM     18  C   UNL     1       9.615   0.394  -0.082  0.00  0.00    +0.084 A 
ATOM     19 CL   UNL     1       9.413  -1.330  -0.081  0.00  0.00    -0.080 Cl
ATOM     20 CL   UNL     1      12.639   3.003  -0.103  0.00  0.00    -0.083 Cl
ENDBRANCH  12  13
ENDBRANCH  11  12
ENDBRANCH  10  11
ENDBRANCH   9  10
ENDBRANCH   6   9
ENDBRANCH   3   5
BRANCH   1  22
ATOM     21  C   UNL     1      -2.557  -0.021  -1.235  0.00  0.00    +0.038 C 
ATOM     22  C   UNL     1      -2.482   0.853   0.018  0.00  0.00    +0.156 C 
BRANCH  22  23
ATOM     23  N   UNL     1      -3.608   1.789   0.029  0.00  0.00    -0.316 N 
ATOM     24  C   UNL     1      -4.827   1.396   0.537  0.00  0.00    +0.150 C 
ATOM     25  N   UNL     1      -4.985   0.200   1.007  0.00  0.00    -0.113 NA
ATOM     26  S   UNL     1      -6.576   0.116   1.518  0.00  0.00    +0.101 S 
ATOM     27  O   UNL     1      -7.258  -0.794   0.666  0.00  0.00    -0.146 OA
ATOM     28  O   UNL     1      -6.571   0.007   2.935  0.00  0.00    -0.146 OA
ATOM     29  C   UNL     1      -7.115   1.752   1.103  0.00  0.00    +0.123 A 
ATOM     30  C   UNL     1      -5.962   2.331   0.556  0.00  0.00    +0.043 A 
ATOM     31  C   UNL     1      -6.056   3.658   0.109  0.00  0.00    +0.013 A 
ATOM     32  C   UNL     1      -7.243   4.348   0.225  0.00  0.00    +0.001 A 
ATOM     33  C   UNL     1      -8.363   3.751   0.775  0.00  0.00    +0.002 A 
ATOM     34  C   UNL     1      -8.290   2.437   1.217  0.00  0.00    +0.030 A 
ATOM     35  H   UNL     1      -3.496   2.687  -0.322  0.00  0.00    +0.148 HD
ENDBRANCH  22  23
ENDBRANCH   1  22
TORSDOF 8
