REMARK  Name = ZINC59464023
REMARK  8 active torsions:
REMARK  status: ('A' for Active; 'I' for Inactive)
REMARK    1  A    between atoms: C_1  and  S_2
REMARK    2  A    between atoms: S_2  and  N_5
REMARK    3  A    between atoms: N_5  and  C_6
REMARK    4  A    between atoms: N_5  and  C_21
REMARK    5  A    between atoms: C_6  and  C_7
REMARK    6  A    between atoms: N_9  and  N_10
REMARK    7  A    between atoms: C_11  and  C_12
REMARK    8  A    between atoms: C_15  and  N_18
REMARK                            x       y       z     vdW  Elec       q    Type
REMARK                         _______ _______ _______ _____ _____    ______ ____
ROOT
ATOM      1  N   UNL     1       0.975  -0.409  -1.275  0.00  0.00    -0.198 N 
ENDROOT
BRANCH   1   2
ATOM      2  C   UNL     1       0.423  -0.589  -2.542  0.00  0.00    +0.059 A 
ATOM      3  C   UNL     1       0.064  -1.849  -2.983  0.00  0.00    +0.025 A 
ATOM      4  C   UNL     1      -0.490  -2.061  -4.245  0.00  0.00    +0.006 A 
ATOM      5  C   UNL     1      -0.697  -1.015  -5.094  0.00  0.00    -0.039 A 
ATOM      6  C   UNL     1      -0.342   0.260  -4.666  0.00  0.00    -0.010 A 
ATOM      7  C   UNL     1       0.214   0.511  -3.399  0.00  0.00    +0.005 A 
ATOM      8  C   UNL     1       0.528   1.839  -3.071  0.00  0.00    +0.010 A 
ATOM      9  C   UNL     1       0.279   2.820  -3.987  0.00  0.00    +0.001 A 
ATOM     10  C   UNL     1      -0.279   2.549  -5.238  0.00  0.00    +0.004 A 
ATOM     11  C   UNL     1      -0.587   1.270  -5.591  0.00  0.00    -0.039 A 
ATOM     12  C   UNL     1      -1.186   0.625  -6.816  0.00  0.00    +0.040 C 
ATOM     13  C   UNL     1      -1.260  -0.882  -6.489  0.00  0.00    +0.040 C 
ENDBRANCH   1   2
BRANCH   1  15
ATOM     14  C   UNL     1      -0.022   1.810   0.012  0.00  0.00    +0.218 C 
ATOM     15  S   UNL     1       0.002  -0.004   0.002  0.00  0.00    +0.043 S 
ATOM     16  O   UNL     1       0.687  -0.491   1.148  0.00  0.00    -0.155 OA
ATOM     17  O   UNL     1      -1.280  -0.509  -0.345  0.00  0.00    -0.155 OA
ENDBRANCH   1  15
BRANCH   1  18
ATOM     18  C   UNL     1       2.416  -0.579  -1.073  0.00  0.00    +0.228 C 
BRANCH  18  19
ATOM     19  C   UNL     1       2.723  -2.037  -0.842  0.00  0.00    +0.251 C 
ATOM     20  O   UNL     1       1.826  -2.853  -0.845  0.00  0.00    -0.272 OA
ATOM     21  N   UNL     1       3.994  -2.433  -0.631  0.00  0.00    -0.206 N 
ATOM     22  H   UNL     1       4.711  -1.780  -0.628  0.00  0.00    +0.177 HD
BRANCH  21  23
ATOM     23  N   UNL     1       4.279  -3.787  -0.416  0.00  0.00    -0.188 NA
ATOM     24  C   UNL     1       5.502  -4.169  -0.213  0.00  0.00    +0.138 C 
BRANCH  24  25
ATOM     25  C   UNL     1       5.802  -5.595   0.014  0.00  0.00    -0.005 A 
ATOM     26  C   UNL     1       4.772  -6.539   0.005  0.00  0.00    +0.012 A 
ATOM     27  C   UNL     1       5.060  -7.871   0.217  0.00  0.00    +0.033 A 
ATOM     28  C   UNL     1       6.365  -8.273   0.440  0.00  0.00    +0.126 A 
ATOM     29  C   UNL     1       7.390  -7.344   0.451  0.00  0.00    +0.033 A 
ATOM     30  C   UNL     1       7.118  -6.009   0.233  0.00  0.00    +0.012 A 
BRANCH  28  31
ATOM     31  N   UNL     1       6.666  -9.704   0.667  0.00  0.00    +0.056 N 
ATOM     32  O   UNL     1       5.773 -10.519   0.659  0.00  0.00    -0.126 OA
ATOM     33  O   UNL     1       7.806 -10.059   0.862  0.00  0.00    -0.126 OA
ENDBRANCH  28  31
ENDBRANCH  24  25
ENDBRANCH  21  23
ENDBRANCH  18  19
ENDBRANCH   1  18
TORSDOF 7
