REMARK  Name = ZINC21800830
REMARK  8 active torsions:
REMARK  status: ('A' for Active; 'I' for Inactive)
REMARK    1  A    between atoms: C_1  and  C_2
REMARK    2  A    between atoms: C_2  and  C_3
REMARK    3  A    between atoms: C_2  and  N_4
REMARK    4  A    between atoms: C_12  and  C_14
REMARK    5  A    between atoms: C_14  and  O_15
REMARK    6  A    between atoms: O_15  and  C_16
REMARK    7  A    between atoms: C_21  and  N_22
REMARK    8  A    between atoms: N_25  and  C_26
REMARK                            x       y       z     vdW  Elec       q    Type
REMARK                         _______ _______ _______ _____ _____    ______ ____
ROOT
ATOM      1  C   UNL     1      -3.270   2.369  -1.344  0.00  0.00    +0.142 A 
ATOM      2  C   UNL     1      -3.792   3.167  -0.338  0.00  0.00    +0.047 A 
ATOM      3  C   UNL     1      -5.028   3.765  -0.501  0.00  0.00    +0.004 A 
ATOM      4  C   UNL     1      -5.751   3.562  -1.662  0.00  0.00    +0.002 A 
ATOM      5  C   UNL     1      -5.239   2.763  -2.668  0.00  0.00    +0.027 A 
ATOM      6  C   UNL     1      -3.998   2.164  -2.513  0.00  0.00    +0.077 A 
ENDROOT
BRANCH   6   7
ATOM      7  N   UNL     1      -3.477   1.354  -3.532  0.00  0.00    -0.266 N 
ATOM      8  C   UNL     1      -3.881   1.530  -4.806  0.00  0.00    +0.308 C 
ATOM      9  O   UNL     1      -4.617   2.456  -5.088  0.00  0.00    -0.252 OA
ATOM     10  N   UNL     1      -3.469   0.680  -5.767  0.00  0.00    -0.269 N 
ATOM     11  H   UNL     1      -2.739   0.575  -3.292  0.00  0.00    +0.156 HD
ATOM     12  H   UNL     1      -2.867  -0.202  -5.500  0.00  0.00    +0.156 HD
BRANCH  10  13
ATOM     13  C   UNL     1      -3.806   0.918  -7.104  0.00  0.00    +0.035 A 
ATOM     14  C   UNL     1      -5.038   1.475  -7.422  0.00  0.00    +0.023 A 
ATOM     15  C   UNL     1      -5.366   1.715  -8.742  0.00  0.00    +0.002 A 
ATOM     16  C   UNL     1      -4.474   1.390  -9.747  0.00  0.00    +0.000 A 
ATOM     17  C   UNL     1      -3.249   0.831  -9.434  0.00  0.00    +0.002 A 
ATOM     18  C   UNL     1      -2.913   0.594  -8.116  0.00  0.00    +0.023 A 
ENDBRANCH  10  13
ENDBRANCH   6   7
BRANCH   1  19
ATOM     19  O   UNL     1      -2.053   1.783  -1.187  0.00  0.00    -0.484 OA
BRANCH  19  20
ATOM     20  C   UNL     1      -1.364   2.038   0.039  0.00  0.00    +0.284 C 
BRANCH  20  29
ATOM     21  N   UNL     1       3.318  -1.002  -0.004  0.00  0.00    -0.261 N 
ATOM     22  C   UNL     1       2.682  -2.204  -0.016  0.00  0.00    +0.220 A 
ATOM     23  N   UNL     1       1.391  -2.008  -0.010  0.00  0.00    -0.200 NA
ATOM     24  C   UNL     1       1.121  -0.687   0.007  0.00  0.00    +0.255 A 
ATOM     25  N   UNL     1       2.317  -0.021   0.011  0.00  0.00    -0.180 N 
ATOM     26  C   UNL     1       2.344   1.324   0.027  0.00  0.00    +0.275 A 
ATOM     27  O   UNL     1       3.405   1.925   0.030  0.00  0.00    -0.266 OA
ATOM     28  C   UNL     1       1.122   2.023   0.038  0.00  0.00    +0.099 A 
ATOM     29  C   UNL     1      -0.043   1.312   0.033  0.00  0.00    +0.088 A 
ATOM     30  N   UNL     1      -0.021  -0.017   0.018  0.00  0.00    -0.212 NA
BRANCH  21  32
ATOM     31  C   UNL     1       5.154   0.030  -1.247  0.00  0.00    +0.032 C 
ATOM     32  C   UNL     1       4.765  -0.776  -0.005  0.00  0.00    +0.101 C 
ATOM     33  C   UNL     1       5.162   0.001   1.252  0.00  0.00    +0.032 C 
ENDBRANCH  21  32
ENDBRANCH  20  29
ENDBRANCH  19  20
ENDBRANCH   1  19
TORSDOF 6
