REMARK  Name = ZINC45683019
REMARK  11 active torsions:
REMARK  status: ('A' for Active; 'I' for Inactive)
REMARK    1  A    between atoms: C_1  and  C_2
REMARK    2  A    between atoms: C_4  and  C_16
REMARK    3  A    between atoms: C_6  and  C_11
REMARK    4  A    between atoms: C_16  and  O_18
REMARK    5  A    between atoms: O_18  and  C_19
REMARK    6  A    between atoms: C_19  and  C_20
REMARK    7  A    between atoms: N_22  and  C_23
REMARK    8  A    between atoms: C_23  and  C_25
REMARK    9  A    between atoms: C_23  and  C_30
REMARK   10  A    between atoms: C_30  and  C_31
REMARK   11  A    between atoms: C_30  and  C_32
REMARK                            x       y       z     vdW  Elec       q    Type
REMARK                         _______ _______ _______ _____ _____    ______ ____
ROOT
ATOM      1  C   UNL     1      -0.263   0.715  -3.212  0.00  0.00    +0.341 C 
ATOM      2  O   UNL     1      -0.113   1.669  -2.476  0.00  0.00    -0.245 OA
ENDROOT
BRANCH   1   6
ATOM      3  C   UNL     1      -1.622   1.325  -0.388  0.00  0.00    +0.070 C 
ATOM      4  C   UNL     1      -1.326  -0.151  -0.328  0.00  0.00    +0.091 A 
ATOM      5  C   UNL     1      -0.695  -0.951  -1.376  0.00  0.00    +0.077 A 
ATOM      6  C   UNL     1      -0.200  -0.657  -2.665  0.00  0.00    +0.075 A 
ATOM      7  C   UNL     1       0.349  -1.699  -3.405  0.00  0.00    +0.047 A 
ATOM      8  C   UNL     1       0.387  -2.984  -2.847  0.00  0.00    +0.111 A 
ATOM      9  N   UNL     1      -0.088  -3.223  -1.632  0.00  0.00    -0.207 NA
ATOM     10  C   UNL     1      -0.620  -2.267  -0.888  0.00  0.00    +0.260 A 
ATOM     11  O   UNL     1      -1.159  -2.258   0.348  0.00  0.00    -0.334 OA
ATOM     12  N   UNL     1      -1.578  -0.947   0.668  0.00  0.00    -0.080 NA
BRANCH   8  13
ATOM     13  C   UNL     1       0.968  -4.093  -3.627  0.00  0.00    +0.153 A 
ATOM     14  C   UNL     1       1.069  -5.388  -3.221  0.00  0.00    +0.051 A 
ATOM     15  C   UNL     1       1.682  -6.096  -4.272  0.00  0.00    +0.042 A 
ATOM     16  C   UNL     1       1.924  -5.208  -5.258  0.00  0.00    +0.196 A 
ATOM     17  O   UNL     1       1.486  -4.001  -4.868  0.00  0.00    -0.461 OA
ENDBRANCH   8  13
ENDBRANCH   1   6
BRANCH   1  18
ATOM     18  O   UNL     1      -0.486   0.907  -4.526  0.00  0.00    -0.452 OA
BRANCH  18  19
ATOM     19  C   UNL     1      -0.534   2.259  -4.986  0.00  0.00    +0.328 C 
BRANCH  19  20
ATOM     20  C   UNL     1      -0.791   2.276  -6.471  0.00  0.00    +0.251 C 
ATOM     21  O   UNL     1      -0.920   1.233  -7.076  0.00  0.00    -0.272 OA
ATOM     22  N   UNL     1      -0.877   3.451  -7.126  0.00  0.00    -0.305 N 
ATOM     23  H   UNL     1      -0.774   4.285  -6.642  0.00  0.00    +0.149 HD
BRANCH  22  24
ATOM     24  C   UNL     1      -1.127   3.467  -8.570  0.00  0.00    +0.112 C 
BRANCH  24  25
ATOM     25  C   UNL     1      -1.772   4.774  -8.953  0.00  0.00    +0.010 A 
ATOM     26  C   UNL     1      -2.776   5.004  -9.834  0.00  0.00    +0.013 A 
ATOM     27  C   UNL     1      -3.214   6.301 -10.027  0.00  0.00    +0.008 A 
ATOM     28  C   UNL     1      -2.626   7.304  -9.331  0.00  0.00    +0.045 A 
ATOM     29  S   UNL     1      -1.418   6.420  -8.358  0.00  0.00    -0.100 S 
ENDBRANCH  24  25
BRANCH  24  30
ATOM     30  C   UNL     1       0.199   3.315  -9.318  0.00  0.00    +0.008 C 
ATOM     31  C   UNL     1      -0.062   3.332 -10.826  0.00  0.00    +0.009 C 
ATOM     32  C   UNL     1       1.130   4.471  -8.948  0.00  0.00    +0.009 C 
ENDBRANCH  24  30
ENDBRANCH  22  24
ENDBRANCH  19  20
ENDBRANCH  18  19
ENDBRANCH   1  18
TORSDOF 8
