REMARK  Name = ZINC13343365
REMARK  9 active torsions:
REMARK  status: ('A' for Active; 'I' for Inactive)
REMARK    1  A    between atoms: C_1  and  C_2
REMARK    2  A    between atoms: C_7  and  C_33
REMARK    3  A    between atoms: C_10  and  C_12
REMARK    4  A    between atoms: C_12  and  O_13
REMARK    5  A    between atoms: O_13  and  C_14
REMARK    6  A    between atoms: C_17  and  C_20
REMARK    7  A    between atoms: N_22  and  N_23
REMARK    8  A    between atoms: C_24  and  C_25
REMARK    9  A    between atoms: C_30  and  C_31
REMARK                            x       y       z     vdW  Elec       q    Type
REMARK                         _______ _______ _______ _____ _____    ______ ____
ROOT
ATOM      1  C   UNL     1     -10.019  -1.225   0.558  0.00  0.00    +0.121 A 
ATOM      2  C   UNL     1     -10.047   0.163   0.621  0.00  0.00    +0.046 A 
ATOM      3  C   UNL     1      -8.886   0.868   0.842  0.00  0.00    +0.016 A 
ATOM      4  C   UNL     1      -7.676   0.186   1.004  0.00  0.00    +0.039 A 
ATOM      5  C   UNL     1      -7.651  -1.210   0.935  0.00  0.00    +0.016 A 
ATOM      6  C   UNL     1      -8.819  -1.907   0.719  0.00  0.00    +0.046 A 
ENDROOT
BRANCH   4   7
ATOM      7  C   UNL     1      -6.429   0.937   1.241  0.00  0.00    +0.263 C 
ATOM      8  O   UNL     1      -6.452   2.152   1.296  0.00  0.00    -0.268 OA
ATOM      9  N   UNL     1      -5.264   0.278   1.397  0.00  0.00    -0.203 N 
ATOM     10  H   UNL     1      -5.246  -0.691   1.354  0.00  0.00    +0.178 HD
BRANCH   9  11
ATOM     11  N   UNL     1      -4.080   0.991   1.623  0.00  0.00    -0.187 NA
ATOM     12  C   UNL     1      -2.957   0.355   1.773  0.00  0.00    +0.139 C 
BRANCH  12  13
ATOM     13  C   UNL     1      -1.713   1.105   2.010  0.00  0.00    +0.009 A 
ATOM     14  C   UNL     1      -0.488   0.436   2.058  0.00  0.00    +0.010 A 
ATOM     15  C   UNL     1       0.675   1.145   2.275  0.00  0.00    +0.001 A 
ATOM     16  C   UNL     1       0.640   2.519   2.450  0.00  0.00    +0.001 A 
ATOM     17  C   UNL     1      -0.560   3.199   2.410  0.00  0.00    +0.016 A 
ATOM     18  C   UNL     1      -1.750   2.502   2.194  0.00  0.00    +0.072 A 
BRANCH  18  19
ATOM     19  C   UNL     1      -3.035   3.223   2.151  0.00  0.00    +0.387 C 
ATOM     20  O   UNL     1      -3.938   2.899   2.895  0.00  0.00    -0.241 OA
ATOM     21  O   UNL     1      -3.207   4.242   1.285  0.00  0.00    -0.241 OA
ENDBRANCH  18  19
ENDBRANCH  12  13
ENDBRANCH   9  11
ENDBRANCH   4   7
BRANCH   1  22
ATOM     22  O   UNL     1     -11.166  -1.916   0.340  0.00  0.00    -0.483 OA
BRANCH  22  23
ATOM     23  C   UNL     1     -11.066  -3.341   0.287  0.00  0.00    +0.324 C 
BRANCH  23  31
ATOM     24  C   UNL     1     -11.075  -6.889  -1.109  0.00  0.00    +0.028 C 
ATOM     25  C   UNL     1     -11.440  -6.166   0.190  0.00  0.00    +0.073 C 
ATOM     26  C   UNL     1     -11.844  -7.193   1.259  0.00  0.00    +0.022 C 
ATOM     27  C   UNL     1     -13.124  -7.905   0.817  0.00  0.00    +0.004 C 
ATOM     28  C   UNL     1     -14.256  -6.885   0.677  0.00  0.00    +0.022 C 
ATOM     29  C   UNL     1     -13.881  -5.855  -0.393  0.00  0.00    +0.073 C 
ATOM     30  N   UNL     1     -12.579  -5.268  -0.050  0.00  0.00    -0.293 N 
ATOM     31  C   UNL     1     -12.429  -3.932   0.039  0.00  0.00    +0.254 C 
ATOM     32  O   UNL     1     -13.393  -3.205  -0.081  0.00  0.00    -0.272 OA
ATOM     33  C   UNL     1     -14.943  -4.755  -0.441  0.00  0.00    +0.028 C 
ENDBRANCH  23  31
ENDBRANCH  22  23
ENDBRANCH   1  22
TORSDOF 7
