REMARK  Name = ZINC13256318
REMARK  8 active torsions:
REMARK  status: ('A' for Active; 'I' for Inactive)
REMARK    1  A    between atoms: C_2  and  C_3
REMARK    2  A    between atoms: C_3  and  N_4
REMARK    3  A    between atoms: C_10  and  C_30
REMARK    4  A    between atoms: C_14  and  S_15
REMARK    5  A    between atoms: S_15  and  C_16
REMARK    6  A    between atoms: C_16  and  C_17
REMARK    7  A    between atoms: N_19  and  C_20
REMARK    8  A    between atoms: C_22  and  N_27
REMARK                            x       y       z     vdW  Elec       q    Type
REMARK                         _______ _______ _______ _____ _____    ______ ____
ROOT
ATOM      1  N   UNL     1      -2.107   1.335  -1.124  0.00  0.00    -0.283 N 
ATOM      2  C   UNL     1      -2.941   0.280  -0.973  0.00  0.00    +0.263 A 
ATOM      3  O   UNL     1      -3.027  -0.308   0.089  0.00  0.00    -0.267 OA
ATOM      4  C   UNL     1      -3.739  -0.130  -2.139  0.00  0.00    +0.065 A 
ATOM      5  C   UNL     1      -4.625  -1.206  -2.078  0.00  0.00    +0.016 A 
ATOM      6  C   UNL     1      -5.347  -1.556  -3.182  0.00  0.00    +0.016 A 
ATOM      7  C   UNL     1      -5.209  -0.843  -4.380  0.00  0.00    +0.065 A 
ATOM      8  C   UNL     1      -4.333   0.232  -4.463  0.00  0.00    +0.043 A 
ATOM      9  C   UNL     1      -3.588   0.599  -3.339  0.00  0.00    +0.080 A 
ATOM     10  N   UNL     1      -2.722   1.639  -3.374  0.00  0.00    -0.223 NA
ATOM     11  C   UNL     1      -2.026   1.988  -2.321  0.00  0.00    +0.173 A 
ENDROOT
BRANCH   7  12
ATOM     12  C   UNL     1      -6.001  -1.238  -5.566  0.00  0.00    +0.387 C 
ATOM     13  O   UNL     1      -5.885  -0.623  -6.606  0.00  0.00    -0.241 OA
ATOM     14  O   UNL     1      -6.852  -2.279  -5.490  0.00  0.00    -0.241 OA
ENDBRANCH   7  12
BRANCH   1  15
ATOM     15  C   UNL     1      -1.291   1.784   0.006  0.00  0.00    +0.154 C 
BRANCH  15  17
ATOM     16  C   UNL     1       1.150   1.737  -0.015  0.00  0.00    +0.005 C 
ATOM     17  C   UNL     1       0.030   1.058  -0.009  0.00  0.00    -0.013 C 
ENDBRANCH  15  17
ENDBRANCH   1  15
BRANCH  11  18
ATOM     18  S   UNL     1      -0.928   3.360  -2.455  0.00  0.00    -0.078 S 
BRANCH  18  19
ATOM     19  C   UNL     1      -1.213   3.822  -4.182  0.00  0.00    +0.173 C 
BRANCH  19  20
ATOM     20  C   UNL     1      -0.354   5.010  -4.532  0.00  0.00    +0.228 C 
ATOM     21  O   UNL     1       0.379   5.496  -3.697  0.00  0.00    -0.275 OA
ATOM     22  N   UNL     1      -0.400   5.532  -5.774  0.00  0.00    -0.282 N 
ATOM     23  H   UNL     1      -0.936   5.105  -6.460  0.00  0.00    +0.155 HD
BRANCH  22  24
ATOM     24  C   UNL     1       0.327   6.691  -6.074  0.00  0.00    +0.071 A 
ATOM     25  C   UNL     1       1.559   6.914  -5.474  0.00  0.00    +0.059 A 
ATOM     26  C   UNL     1       2.276   8.055  -5.776  0.00  0.00    +0.128 A 
ATOM     27  C   UNL     1       1.764   8.981  -6.666  0.00  0.00    +0.035 A 
ATOM     28  C   UNL     1       0.535   8.766  -7.261  0.00  0.00    +0.042 A 
ATOM     29  C   UNL     1      -0.186   7.623  -6.968  0.00  0.00    +0.145 A 
ATOM     30  F   UNL     1      -1.387   7.413  -7.551  0.00  0.00    -0.204 F 
BRANCH  26  31
ATOM     31  N   UNL     1       3.592   8.290  -5.140  0.00  0.00    +0.056 N 
ATOM     32  O   UNL     1       4.223   9.299  -5.402  0.00  0.00    -0.126 OA
ATOM     33  O   UNL     1       4.044   7.476  -4.356  0.00  0.00    -0.126 OA
ENDBRANCH  26  31
ENDBRANCH  22  24
ENDBRANCH  19  20
ENDBRANCH  18  19
ENDBRANCH  11  18
TORSDOF 8
