REMARK  Name = ZINC12832982
REMARK  13 active torsions:
REMARK  status: ('A' for Active; 'I' for Inactive)
REMARK    1  A    between atoms: C_1  and  C_2
REMARK    2  A    between atoms: C_2  and  O_3
REMARK    3  A    between atoms: O_3  and  C_4
REMARK    4  A    between atoms: C_4  and  C_6
REMARK    5  A    between atoms: C_6  and  N_7
REMARK    6  A    between atoms: C_8  and  C_12
REMARK    7  A    between atoms: C_12  and  N_59
REMARK    8  A    between atoms: C_13  and  C_14
REMARK    9  A    between atoms: C_13  and  N_59
REMARK   10  A    between atoms: C_19  and  C_20
REMARK   11  A    between atoms: C_19  and  N_59
REMARK   12  A    between atoms: C_25  and  C_33
REMARK   13  A    between atoms: C_26  and  C_32
REMARK                            x       y       z     vdW  Elec       q    Type
REMARK                         _______ _______ _______ _____ _____    ______ ____
ROOT
ATOM      1  N   UNL     1      -2.152   0.910   0.810  0.00  0.00    +0.392 N 
ATOM      2  H   UNL     1      -2.217   1.905   0.567  0.00  0.00    -0.080 HD
ENDROOT
BRANCH   1   3
ATOM      3  C   UNL     1      -1.057   0.295   0.030  0.00  0.00    +0.001 C 
BRANCH   3   5
ATOM      4  N   UNL     1      -1.537   0.353  -2.474  0.00  0.00    -0.220 N 
ATOM      5  C   UNL     1      -1.048   0.905  -1.349  0.00  0.00    +0.136 A 
ATOM      6  N   UNL     1      -0.557   2.072  -1.685  0.00  0.00    -0.115 NA
ATOM      7  N   UNL     1      -0.740   2.232  -2.950  0.00  0.00    -0.023 NA
ATOM      8  N   UNL     1      -1.335   1.196  -3.430  0.00  0.00    -0.043 NA
BRANCH   4   9
ATOM      9  C   UNL     1      -2.182  -0.958  -2.592  0.00  0.00    +0.267 C 
BRANCH   9  10
ATOM     10  C   UNL     1      -3.679  -0.784  -2.575  0.00  0.00    +0.329 C 
ATOM     11  O   UNL     1      -4.159   0.324  -2.581  0.00  0.00    -0.249 OA
BRANCH  10  12
ATOM     12  O   UNL     1      -4.479  -1.862  -2.554  0.00  0.00    -0.464 OA
BRANCH  12  14
ATOM     13  C   UNL     1      -6.654  -2.957  -2.514  0.00  0.00    +0.048 C 
ATOM     14  C   UNL     1      -5.910  -1.620  -2.538  0.00  0.00    +0.229 C 
ENDBRANCH  12  14
ENDBRANCH  10  12
ENDBRANCH   9  10
ENDBRANCH   4   9
ENDBRANCH   3   5
ENDBRANCH   1   3
BRANCH   1  15
ATOM     15  C   UNL     1      -3.435   0.251   0.486  0.00  0.00    -0.002 C 
BRANCH  15  16
ATOM     16  C   UNL     1      -3.373  -1.218   0.817  0.00  0.00    +0.089 A 
ATOM     17  C   UNL     1      -3.740  -1.777   1.984  0.00  0.00    +0.042 A 
ATOM     18  C   UNL     1      -3.517  -3.168   1.859  0.00  0.00    +0.041 A 
ATOM     19  C   UNL     1      -3.029  -3.375   0.623  0.00  0.00    +0.195 A 
ATOM     20  O   UNL     1      -2.949  -2.191  -0.006  0.00  0.00    -0.470 OA
ENDBRANCH  15  16
ENDBRANCH   1  15
BRANCH   1  21
ATOM     21  C   UNL     1      -1.872   0.786   2.256  0.00  0.00    -0.036 C 
BRANCH  21  22
ATOM     22  C   UNL     1      -2.722   1.784   3.000  0.00  0.00    +0.001 A 
ATOM     23  C   UNL     1      -3.893   1.390   3.559  0.00  0.00    +0.017 A 
ATOM     24  C   UNL     1      -4.694   2.383   4.277  0.00  0.00    -0.001 A 
ATOM     25  C   UNL     1      -5.907   2.035   4.880  0.00  0.00    +0.010 A 
ATOM     26  C   UNL     1      -6.633   2.986   5.539  0.00  0.00    +0.004 A 
ATOM     27  C   UNL     1      -6.177   4.295   5.617  0.00  0.00    -0.046 A 
ATOM     28  C   UNL     1      -4.984   4.660   5.032  0.00  0.00    -0.024 A 
ATOM     29  C   UNL     1      -4.227   3.709   4.355  0.00  0.00    +0.052 A 
ATOM     30  N   UNL     1      -3.030   4.046   3.761  0.00  0.00    -0.322 N 
ATOM     31  H   UNL     1      -2.710   4.960   3.816  0.00  0.00    +0.169 HD
ATOM     32  C   UNL     1      -2.299   3.127   3.107  0.00  0.00    +0.251 A 
ATOM     33  O   UNL     1      -1.245   3.460   2.593  0.00  0.00    -0.268 OA
ATOM     34  C   UNL     1      -4.500   6.084   5.126  0.00  0.00    +0.046 C 
ATOM     35  C   UNL     1      -6.994   5.327   6.350  0.00  0.00    +0.044 C 
ENDBRANCH  21  22
ENDBRANCH   1  21
TORSDOF 10
