REMARK  Name = ZINC13047380
REMARK  11 active torsions:
REMARK  status: ('A' for Active; 'I' for Inactive)
REMARK    1  A    between atoms: C_1  and  C_2
REMARK    2  A    between atoms: C_5  and  N_9
REMARK    3  A    between atoms: C_10  and  C_12
REMARK    4  A    between atoms: C_12  and  S_13
REMARK    5  A    between atoms: S_13  and  C_14
REMARK    6  A    between atoms: C_18  and  C_30
REMARK    7  A    between atoms: N_24  and  C_25
REMARK    8  A    between atoms: C_25  and  C_26
REMARK    9  A    between atoms: C_26  and  C_27
REMARK   10  A    between atoms: C_27  and  O_28
REMARK   11  A    between atoms: O_28  and  C_29
REMARK                            x       y       z     vdW  Elec       q    Type
REMARK                         _______ _______ _______ _____ _____    ______ ____
ROOT
ATOM      1  C   UNL     1      -0.365   2.769   1.749  0.00  0.00    +0.173 A 
ATOM      2  N   UNL     1      -0.939   3.256   2.821  0.00  0.00    -0.223 NA
ATOM      3  C   UNL     1      -1.937   2.595   3.454  0.00  0.00    +0.080 A 
ATOM      4  C   UNL     1      -2.545   3.114   4.600  0.00  0.00    +0.043 A 
ATOM      5  C   UNL     1      -3.565   2.400   5.215  0.00  0.00    +0.065 A 
ATOM      6  C   UNL     1      -3.986   1.170   4.693  0.00  0.00    +0.016 A 
ATOM      7  C   UNL     1      -3.399   0.653   3.574  0.00  0.00    +0.016 A 
ATOM      8  C   UNL     1      -2.373   1.352   2.941  0.00  0.00    +0.065 A 
ATOM      9  C   UNL     1      -1.714   0.832   1.732  0.00  0.00    +0.262 A 
ATOM     10  O   UNL     1      -2.044  -0.232   1.243  0.00  0.00    -0.267 OA
ATOM     11  N   UNL     1      -0.728   1.579   1.185  0.00  0.00    -0.287 N 
ENDROOT
BRANCH   5  12
ATOM     12  C   UNL     1      -4.214   2.943   6.429  0.00  0.00    +0.387 C 
ATOM     13  O   UNL     1      -3.853   4.010   6.885  0.00  0.00    -0.241 OA
ATOM     14  O   UNL     1      -5.204   2.255   7.029  0.00  0.00    -0.241 OA
ENDBRANCH   5  12
BRANCH   1  15
ATOM     15  S   UNL     1       0.931   3.695   0.996  0.00  0.00    -0.078 S 
BRANCH  15  16
ATOM     16  C   UNL     1       0.991   5.118   2.112  0.00  0.00    +0.173 C 
BRANCH  16  18
ATOM     17  N   UNL     1       2.286   7.214   2.335  0.00  0.00    -0.284 N 
ATOM     18  C   UNL     1       2.060   6.074   1.651  0.00  0.00    +0.228 C 
ATOM     19  O   UNL     1       2.718   5.819   0.665  0.00  0.00    -0.275 OA
ATOM     20  H   UNL     1       1.718   7.450   3.085  0.00  0.00    +0.155 HD
BRANCH  17  25
ATOM     21  C   UNL     1       6.559  10.629   0.825  0.00  0.00    +0.044 C 
ATOM     22  C   UNL     1       5.424   9.722   1.226  0.00  0.00    -0.049 A 
ATOM     23  C   UNL     1       4.725   9.022   0.260  0.00  0.00    +0.005 A 
ATOM     24  C   UNL     1       3.685   8.190   0.624  0.00  0.00    +0.025 A 
ATOM     25  C   UNL     1       3.341   8.056   1.963  0.00  0.00    +0.052 A 
ATOM     26  C   UNL     1       4.041   8.764   2.931  0.00  0.00    +0.062 A 
ATOM     27  C   UNL     1       5.085   9.591   2.560  0.00  0.00    +0.025 A 
ATOM     28 CL   UNL     1       3.611   8.605   4.606  0.00  0.00    -0.082 Cl
ENDBRANCH  17  25
ENDBRANCH  16  18
ENDBRANCH  15  16
ENDBRANCH   1  15
BRANCH  11  29
ATOM     29  C   UNL     1      -0.040   1.106  -0.018  0.00  0.00    +0.129 C 
BRANCH  29  30
ATOM     30  C   UNL     1      -0.771   1.621  -1.260  0.00  0.00    +0.050 C 
BRANCH  30  31
ATOM     31  C   UNL     1      -0.053   1.126  -2.517  0.00  0.00    +0.161 C 
BRANCH  31  32
ATOM     32  O   UNL     1      -0.736   1.607  -3.676  0.00  0.00    -0.383 OA
ATOM     33  C   UNL     1      -0.143   1.200  -4.911  0.00  0.00    +0.193 C 
ENDBRANCH  31  32
ENDBRANCH  30  31
ENDBRANCH  29  30
ENDBRANCH  11  29
TORSDOF 9
