REMARK  Name = ZINC01765213
REMARK  14 active torsions:
REMARK  status: ('A' for Active; 'I' for Inactive)
REMARK    1  A    between atoms: C_1  and  C_2
REMARK    2  A    between atoms: C_2  and  C_3
REMARK    3  A    between atoms: C_3  and  C_4
REMARK    4  A    between atoms: C_3  and  C_6
REMARK    5  A    between atoms: C_3  and  O_32
REMARK    6  A    between atoms: C_4  and  C_5
REMARK    7  A    between atoms: N_8  and  N_9
REMARK    8  A    between atoms: N_9  and  C_10
REMARK    9  A    between atoms: C_17  and  C_19
REMARK   10  A    between atoms: C_19  and  C_20
REMARK   11  A    between atoms: C_20  and  N_21
REMARK   12  A    between atoms: N_21  and  S_22
REMARK   13  A    between atoms: S_22  and  C_25
REMARK   14  A    between atoms: C_28  and  C_31
REMARK                            x       y       z     vdW  Elec       q    Type
REMARK                         _______ _______ _______ _____ _____    ______ ____
ROOT
ATOM      1  N   UNL     1       3.599  -3.771  -5.816  0.00  0.00    -0.188 N 
ATOM      2  C   UNL     1       3.717  -3.526  -4.495  0.00  0.00    +0.237 C 
ATOM      3  O   UNL     1       4.747  -3.061  -4.055  0.00  0.00    -0.274 OA
ENDROOT
BRANCH   1   4
ATOM      4  C   UNL     1       4.624  -3.397  -6.691  0.00  0.00    +0.056 A 
ATOM      5  C   UNL     1       5.120  -4.310  -7.612  0.00  0.00    +0.026 A 
ATOM      6  C   UNL     1       6.128  -3.936  -8.480  0.00  0.00    +0.017 A 
ATOM      7  C   UNL     1       6.652  -2.657  -8.423  0.00  0.00    +0.018 A 
ATOM      8  C   UNL     1       6.163  -1.747  -7.503  0.00  0.00    +0.017 A 
ATOM      9  C   UNL     1       5.151  -2.113  -6.637  0.00  0.00    +0.026 A 
ATOM     10 BR   UNL     1       8.037  -2.151  -9.607  0.00  0.00    -0.050 Br
ENDBRANCH   1   4
BRANCH   1  13
ATOM     11  C   UNL     1       1.519  -3.682  -6.972  0.00  0.00    +0.261 C 
ATOM     12  O   UNL     1       1.678  -2.491  -7.138  0.00  0.00    -0.271 OA
ATOM     13  N   UNL     1       2.449  -4.400  -6.311  0.00  0.00    -0.225 N 
ATOM     14  H   UNL     1       2.322  -5.352  -6.178  0.00  0.00    +0.174 HD
BRANCH  11  15
ATOM     15  C   UNL     1       0.283  -4.358  -7.505  0.00  0.00    +0.142 C 
BRANCH  15  17
ATOM     16  C   UNL     1      -0.179  -5.128  -5.173  0.00  0.00    +0.007 C 
ATOM     17  C   UNL     1      -0.773  -4.434  -6.400  0.00  0.00    +0.041 C 
ENDBRANCH  15  17
BRANCH  15  18
ATOM     18  C   UNL     1      -0.270  -3.555  -8.684  0.00  0.00    +0.041 C 
ATOM     19  C   UNL     1      -1.592  -4.171  -9.146  0.00  0.00    +0.007 C 
ENDBRANCH  15  18
BRANCH  15  20
ATOM     20  O   UNL     1       0.612  -5.679  -7.940  0.00  0.00    -0.379 OA
ATOM     21  H   UNL     1       1.278  -5.707  -8.641  0.00  0.00    +0.211 HD
ENDBRANCH  15  20
ENDBRANCH  11  15
ENDBRANCH   1  13
BRANCH   2  22
ATOM     22  C   UNL     1       2.570  -3.830  -3.567  0.00  0.00    +0.114 C 
BRANCH  22  23
ATOM     23  C   UNL     1       2.962  -3.462  -2.134  0.00  0.00    +0.115 C 
BRANCH  23  24
ATOM     24  N   UNL     1       1.847  -3.758  -1.232  0.00  0.00    -0.189 NA
ATOM     25  H   UNL     1       0.961  -3.920  -1.592  0.00  0.00    +0.148 HD
BRANCH  24  26
ATOM     26  S   UNL     1       2.099  -3.816   0.404  0.00  0.00    +0.058 S 
ATOM     27  O   UNL     1       3.237  -4.641   0.611  0.00  0.00    -0.153 OA
ATOM     28  O   UNL     1       0.839  -4.094   1.000  0.00  0.00    -0.153 OA
BRANCH  26  29
ATOM     29  C   UNL     1       2.552  -2.193   0.919  0.00  0.00    +0.105 A 
ATOM     30  C   UNL     1       1.577  -1.294   1.308  0.00  0.00    +0.029 A 
ATOM     31  C   UNL     1       1.933  -0.021   1.713  0.00  0.00    +0.005 A 
ATOM     32  C   UNL     1       3.264   0.352   1.729  0.00  0.00    -0.050 A 
ATOM     33  C   UNL     1       4.239  -0.547   1.339  0.00  0.00    +0.005 A 
ATOM     34  C   UNL     1       3.883  -1.820   0.935  0.00  0.00    +0.029 A 
ATOM     35  C   UNL     1       3.652   1.740   2.170  0.00  0.00    +0.044 C 
ENDBRANCH  26  29
ENDBRANCH  24  26
ENDBRANCH  23  24
ENDBRANCH  22  23
ENDBRANCH   2  22
TORSDOF 11
