REMARK  Name = ZINC45318274
REMARK  10 active torsions:
REMARK  status: ('A' for Active; 'I' for Inactive)
REMARK    1  A    between atoms: C_4  and  C_7
REMARK    2  A    between atoms: C_7  and  C_8
REMARK    3  A    between atoms: C_8  and  N_9
REMARK    4  A    between atoms: C_11  and  O_30
REMARK    5  A    between atoms: C_14  and  C_24
REMARK    6  A    between atoms: C_17  and  C_18
REMARK    7  A    between atoms: O_30  and  C_31
REMARK    8  A    between atoms: C_31  and  C_32
REMARK    9  A    between atoms: C_32  and  C_33
REMARK   10  A    between atoms: C_33  and  N_34
REMARK                            x       y       z     vdW  Elec       q    Type
REMARK                         _______ _______ _______ _____ _____    ______ ____
ROOT
ATOM      1  N   UNL     1       5.450  -1.678   1.382  0.00  0.00    -0.319 N 
ATOM      2  C   UNL     1       5.623  -3.043   1.368  0.00  0.00    +0.115 A 
ATOM      3  C   UNL     1       4.770  -4.147   1.364  0.00  0.00    +0.164 A 
ATOM      4  C   UNL     1       5.319  -5.418   1.348  0.00  0.00    +0.159 A 
ATOM      5  N   UNL     1       6.627  -5.601   1.336  0.00  0.00    -0.249 NA
ATOM      6  C   UNL     1       7.484  -4.592   1.339  0.00  0.00    +0.099 A 
ATOM      7  C   UNL     1       7.013  -3.264   1.355  0.00  0.00    +0.119 A 
ATOM      8  N   UNL     1       7.609  -2.058   1.361  0.00  0.00    -0.223 NA
ATOM      9  C   UNL     1       6.698  -1.115   1.371  0.00  0.00    +0.167 A 
ENDROOT
BRANCH   9  10
ATOM     10  C   UNL     1       6.977   0.338   1.375  0.00  0.00    +0.190 A 
ATOM     11  C   UNL     1       8.307   0.959   1.358  0.00  0.00    +0.191 A 
ATOM     12  N   UNL     1       8.155   2.255   1.367  0.00  0.00    -0.033 NA
ATOM     13  O   UNL     1       6.765   2.531   1.390  0.00  0.00    -0.240 OA
ATOM     14  N   UNL     1       6.080   1.291   1.389  0.00  0.00    -0.044 NA
ATOM     15  N   UNL     1       9.520   0.283   1.335  0.00  0.00    -0.339 N 
ATOM     16  H   UNL     1       9.535  -0.686   1.330  0.00  0.00    +0.144 HD
ATOM     17  H   UNL     1      10.352   0.781   1.325  0.00  0.00    +0.144 HD
ENDBRANCH   9  10
BRANCH   6  18
ATOM     18  C   UNL     1       8.941  -4.859   1.325  0.00  0.00    +0.002 A 
ATOM     19  C   UNL     1       9.803  -4.004   0.639  0.00  0.00    +0.010 A 
ATOM     20  C   UNL     1      11.159  -4.258   0.630  0.00  0.00    +0.001 A 
ATOM     21  C   UNL     1      11.664  -5.359   1.300  0.00  0.00    +0.000 A 
ATOM     22  C   UNL     1      10.813  -6.211   1.982  0.00  0.00    +0.001 A 
ATOM     23  C   UNL     1       9.456  -5.964   2.003  0.00  0.00    +0.010 A 
ENDBRANCH   6  18
BRANCH   1  24
ATOM     24  C   UNL     1       4.171  -0.963   1.399  0.00  0.00    +0.128 C 
BRANCH  24  25
ATOM     25  C   UNL     1       3.711  -0.707  -0.038  0.00  0.00    +0.057 C 
BRANCH  25  29
ATOM     26  C   UNL     1      -0.017   1.378   0.010  0.00  0.00    +0.000 A 
ATOM     27  C   UNL     1       1.171   2.086   0.002  0.00  0.00    +0.000 A 
ATOM     28  C   UNL     1       2.377   1.411  -0.013  0.00  0.00    +0.004 A 
ATOM     29  C   UNL     1       2.396   0.029  -0.020  0.00  0.00    -0.046 A 
ATOM     30  C   UNL     1       1.208  -0.679  -0.012  0.00  0.00    +0.004 A 
ATOM     31  C   UNL     1       0.002  -0.004   0.002  0.00  0.00    +0.000 A 
ENDBRANCH  25  29
ENDBRANCH  24  25
ENDBRANCH   1  24
BRANCH   3  32
ATOM     32  O   UNL     1       3.422  -3.977   1.377  0.00  0.00    -0.488 OA
BRANCH  32  33
ATOM     33  C   UNL     1       2.619  -5.160   1.373  0.00  0.00    +0.227 C 
BRANCH  33  34
ATOM     34  C   UNL     1       1.139  -4.771   1.389  0.00  0.00    +0.021 C 
BRANCH  34  35
ATOM     35  C   UNL     1       0.280  -6.037   1.384  0.00  0.00    -0.083 C 
BRANCH  35  36
ATOM     36  N   UNL     1      -1.141  -5.664   1.399  0.00  0.00    +0.378 N 
ATOM     37  H   UNL     1      -1.708  -6.499   1.396  0.00  0.00    -0.090 HD
ATOM     38  H   UNL     1      -1.339  -5.127   2.230  0.00  0.00    -0.090 HD
ATOM     39  H   UNL     1      -1.353  -5.111   0.582  0.00  0.00    -0.090 HD
ENDBRANCH  35  36
ENDBRANCH  34  35
ENDBRANCH  33  34
ENDBRANCH  32  33
ENDBRANCH   3  32
TORSDOF 10
