REMARK  Name = ZINC09472525
REMARK  9 active torsions:
REMARK  status: ('A' for Active; 'I' for Inactive)
REMARK    1  A    between atoms: C_1  and  C_2
REMARK    2  A    between atoms: C_3  and  C_29
REMARK    3  A    between atoms: C_4  and  N_11
REMARK    4  A    between atoms: C_6  and  C_7
REMARK    5  A    between atoms: C_7  and  O_9
REMARK    6  A    between atoms: O_9  and  C_10
REMARK    7  A    between atoms: C_12  and  C_14
REMARK    8  A    between atoms: N_19  and  S_20
REMARK    9  A    between atoms: S_20  and  C_23
REMARK                            x       y       z     vdW  Elec       q    Type
REMARK                         _______ _______ _______ _____ _____    ______ ____
ROOT
ATOM      1  N   UNL     1      -0.011   0.966   0.007  0.00  0.00    -0.278 N 
ATOM      2  C   UNL     1       1.147   1.655   0.000  0.00  0.00    +0.236 C 
ATOM      3  O   UNL     1       1.130   2.868   0.007  0.00  0.00    -0.274 OA
ATOM      4  H   UNL     1       0.002  -0.004   0.002  0.00  0.00    +0.155 HD
ENDROOT
BRANCH   1   8
ATOM      5  C   UNL     1      -4.999   1.515   0.035  0.00  0.00    +0.046 C 
ATOM      6  C   UNL     1      -3.572   2.001   0.030  0.00  0.00    -0.015 A 
ATOM      7  C   UNL     1      -2.511   1.111   0.014  0.00  0.00    +0.069 A 
ATOM      8  C   UNL     1      -1.217   1.640   0.017  0.00  0.00    +0.085 A 
ATOM      9  S   UNL     1      -1.497   3.351   0.027  0.00  0.00    -0.066 S 
ATOM     10  C   UNL     1      -3.280   3.339   0.036  0.00  0.00    +0.102 A 
BRANCH   7  11
ATOM     11  C   UNL     1      -2.738  -0.340  -0.000  0.00  0.00    +0.244 C 
ATOM     12  O   UNL     1      -2.830  -0.952   1.048  0.00  0.00    -0.270 OA
ATOM     13  N   UNL     1      -2.844  -0.994  -1.174  0.00  0.00    -0.325 N 
ATOM     14  H   UNL     1      -2.771  -0.506  -2.009  0.00  0.00    +0.145 HD
ATOM     15  H   UNL     1      -2.994  -1.952  -1.183  0.00  0.00    +0.145 HD
ENDBRANCH   7  11
BRANCH  10  16
ATOM     16  C   UNL     1      -4.200   4.476   0.045  0.00  0.00    +0.346 C 
ATOM     17  O   UNL     1      -5.402   4.285   0.050  0.00  0.00    -0.244 OA
BRANCH  16  18
ATOM     18  O   UNL     1      -3.717   5.735   0.050  0.00  0.00    -0.464 OA
ATOM     19  C   UNL     1      -4.673   6.797   0.059  0.00  0.00    +0.280 C 
ENDBRANCH  16  18
ENDBRANCH  10  16
ENDBRANCH   1   8
BRANCH   2  20
ATOM     20  C   UNL     1       2.462   0.920  -0.017  0.00  0.00    +0.166 C 
ATOM     21  C   UNL     1       2.602   0.066   1.261  0.00  0.00    +0.031 C 
ATOM     22  C   UNL     1       4.104   0.218   1.618  0.00  0.00    +0.019 C 
ATOM     23  C   UNL     1       4.377   1.684   1.198  0.00  0.00    +0.110 C 
ATOM     24  N   UNL     1       3.573   1.882  -0.022  0.00  0.00    -0.164 NA
BRANCH  24  25
ATOM     25  S   UNL     1       3.873   3.004  -1.203  0.00  0.00    +0.068 S 
ATOM     26  O   UNL     1       5.258   3.313  -1.128  0.00  0.00    -0.152 OA
ATOM     27  O   UNL     1       3.264   2.516  -2.390  0.00  0.00    -0.152 OA
BRANCH  25  28
ATOM     28  C   UNL     1       3.005   4.472  -0.758  0.00  0.00    +0.144 A 
ATOM     29  C   UNL     1       3.428   5.520  -0.010  0.00  0.00    +0.038 A 
ATOM     30  C   UNL     1       2.565   6.577   0.212  0.00  0.00    +0.030 A 
ATOM     31  C   UNL     1       1.321   6.534  -0.327  0.00  0.00    +0.080 A 
ATOM     32  S   UNL     1       1.344   4.969  -1.185  0.00  0.00    -0.057 S 
ATOM     33 CL   UNL     1       0.041   7.702  -0.217  0.00  0.00    -0.076 Cl
ENDBRANCH  25  28
ENDBRANCH  24  25
ENDBRANCH   2  20
TORSDOF 7
