REMARK  Name = ZINC08644729
REMARK  7 active torsions:
REMARK  status: ('A' for Active; 'I' for Inactive)
REMARK    1  A    between atoms: C_1  and  C_2
REMARK    2  A    between atoms: C_2  and  C_4
REMARK    3  A    between atoms: C_2  and  S_12
REMARK    4  A    between atoms: N_6  and  C_7
REMARK    5  A    between atoms: S_12  and  C_13
REMARK    6  A    between atoms: C_16  and  C_19
REMARK    7  A    between atoms: N_17  and  N_18
REMARK                            x       y       z     vdW  Elec       q    Type
REMARK                         _______ _______ _______ _____ _____    ______ ____
ROOT
ATOM      1  C   UNL     1       1.213   1.749  -0.000  0.00  0.00    +0.209 A 
ATOM      2  N   UNL     1      -0.015   1.281   0.009  0.00  0.00    -0.121 NA
ATOM      3  N   UNL     1       0.002  -0.004   0.002  0.00  0.00    -0.127 NA
ATOM      4  C   UNL     1       1.242  -0.435  -0.012  0.00  0.00    +0.183 A 
ATOM      5  N   UNL     1       2.055   0.674  -0.014  0.00  0.00    -0.224 N 
ENDROOT
BRANCH   4   6
ATOM      6  C   UNL     1       1.681  -1.847  -0.024  0.00  0.00    +0.039 A 
ATOM      7  C   UNL     1       3.042  -2.157  -0.045  0.00  0.00    +0.014 A 
ATOM      8  C   UNL     1       3.445  -3.476  -0.050  0.00  0.00    +0.021 A 
ATOM      9  C   UNL     1       2.504  -4.492  -0.046  0.00  0.00    +0.042 A 
ATOM     10  C   UNL     1       1.153  -4.192  -0.031  0.00  0.00    +0.040 A 
ATOM     11  C   UNL     1       0.736  -2.875  -0.020  0.00  0.00    +0.053 A 
ATOM     12 CL   UNL     1      -0.959  -2.500  -0.002  0.00  0.00    -0.083 Cl
ATOM     13 CL   UNL     1       3.021  -6.149  -0.059  0.00  0.00    -0.083 Cl
ENDBRANCH   4   6
BRANCH   5  14
ATOM     14  N   UNL     1       3.421   0.696  -0.027  0.00  0.00    -0.295 N 
ATOM     15  H   UNL     1       3.773   0.707  -0.973  0.00  0.00    +0.163 HD
ATOM     16  H   UNL     1       3.775   1.480   0.500  0.00  0.00    +0.163 HD
ENDBRANCH   5  14
BRANCH   1  17
ATOM     17  S   UNL     1       1.684   3.447   0.004  0.00  0.00    -0.072 S 
BRANCH  17  19
ATOM     18  C   UNL     1      -0.659   3.889   1.336  0.00  0.00    +0.029 C 
ATOM     19  C   UNL     1       0.051   4.226   0.023  0.00  0.00    +0.137 C 
BRANCH  19  20
ATOM     20  C   UNL     1       0.206   5.721  -0.095  0.00  0.00    +0.226 C 
ATOM     21  O   UNL     1       1.266   6.244   0.177  0.00  0.00    -0.275 OA
ATOM     22  N   UNL     1      -0.833   6.476  -0.502  0.00  0.00    -0.312 N 
ATOM     23  H   UNL     1      -1.681   6.058  -0.719  0.00  0.00    +0.149 HD
BRANCH  22  24
ATOM     24  C   UNL     1      -0.682   7.929  -0.617  0.00  0.00    +0.073 C 
ATOM     25  C   UNL     1      -1.004   8.602   0.734  0.00  0.00    +0.022 C 
ATOM     26  C   UNL     1      -1.730   9.912   0.342  0.00  0.00    +0.002 C 
ATOM     27  C   UNL     1      -2.592   9.476  -0.870  0.00  0.00    +0.002 C 
ATOM     28  C   UNL     1      -1.692   8.485  -1.636  0.00  0.00    +0.022 C 
ENDBRANCH  22  24
ENDBRANCH  19  20
ENDBRANCH  17  19
ENDBRANCH   1  17
TORSDOF 6
