REMARK  Name = ZINC42357606
REMARK  7 active torsions:
REMARK  status: ('A' for Active; 'I' for Inactive)
REMARK    1  A    between atoms: C_1  and  C_2
REMARK    2  A    between atoms: C_2  and  C_4
REMARK    3  A    between atoms: C_2  and  N_17
REMARK    4  A    between atoms: N_9  and  C_10
REMARK    5  A    between atoms: C_10  and  C_11
REMARK    6  A    between atoms: C_11  and  C_12
REMARK    7  A    between atoms: N_17  and  C_18
REMARK                            x       y       z     vdW  Elec       q    Type
REMARK                         _______ _______ _______ _____ _____    ______ ____
ROOT
ATOM      1  C   UNL     1      -0.019   1.526   0.010  0.00  0.00    +0.038 C 
ATOM      2  C   UNL     1       0.002  -0.004   0.002  0.00  0.00    +0.154 C 
ENDROOT
BRANCH   2   3
ATOM      3  C   UNL     1      -1.412  -0.526   0.013  0.00  0.00    +0.240 C 
ATOM      4  O   UNL     1      -1.790  -1.233   0.922  0.00  0.00    -0.273 OA
ATOM      5  N   UNL     1      -2.256  -0.206  -0.988  0.00  0.00    -0.239 N 
ATOM      6  C   UNL     1      -3.520  -0.672  -0.979  0.00  0.00    +0.306 C 
ATOM      7  O   UNL     1      -3.899  -1.381  -0.067  0.00  0.00    -0.252 OA
ATOM      8  N   UNL     1      -4.364  -0.353  -1.980  0.00  0.00    -0.299 N 
ATOM      9  H   UNL     1      -1.953   0.360  -1.716  0.00  0.00    +0.159 HD
ATOM     10  H   UNL     1      -4.061   0.213  -2.707  0.00  0.00    +0.150 HD
BRANCH   8  11
ATOM     11  C   UNL     1      -5.738  -0.860  -1.970  0.00  0.00    +0.111 C 
BRANCH  11  12
ATOM     12  C   UNL     1      -6.478  -0.353  -3.209  0.00  0.00    +0.061 C 
BRANCH  12  13
ATOM     13  C   UNL     1      -7.892  -0.875  -3.198  0.00  0.00    -0.009 A 
ATOM     14  C   UNL     1      -9.004  -0.315  -2.663  0.00  0.00    +0.011 A 
ATOM     15  C   UNL     1     -10.210  -0.981  -2.775  0.00  0.00    +0.008 A 
ATOM     16  C   UNL     1     -10.245  -2.175  -3.417  0.00  0.00    +0.045 A 
ATOM     17  S   UNL     1      -8.538  -2.387  -3.894  0.00  0.00    -0.102 S 
ENDBRANCH  12  13
ENDBRANCH  11  12
ENDBRANCH   8  11
ENDBRANCH   2   3
BRANCH   2  18
ATOM     18  N   UNL     1       0.711  -0.489   1.189  0.00  0.00    -0.333 N 
ATOM     19  H   UNL     1       0.213  -0.731   1.986  0.00  0.00    +0.147 HD
BRANCH  18  20
ATOM     20  C   UNL     1       2.105  -0.604   1.173  0.00  0.00    +0.031 A 
ATOM     21  C   UNL     1       2.817  -0.252   0.034  0.00  0.00    +0.027 A 
ATOM     22  C   UNL     1       4.196  -0.363   0.015  0.00  0.00    +0.051 A 
ATOM     23  C   UNL     1       4.864  -0.826   1.135  0.00  0.00    +0.162 A 
ATOM     24  C   UNL     1       4.156  -1.179   2.275  0.00  0.00    +0.164 A 
ATOM     25  C   UNL     1       2.776  -1.064   2.299  0.00  0.00    +0.072 A 
ATOM     26  O   UNL     1       4.827  -1.633   3.373  0.00  0.00    -0.488 OA
ATOM     27  C   UNL     1       5.452  -2.911   3.239  0.00  0.00    +0.232 C 
ATOM     28  C   UNL     1       6.824  -2.776   2.596  0.00  0.00    +0.082 C 
ATOM     29  C   UNL     1       6.744  -2.269   1.165  0.00  0.00    +0.232 C 
ATOM     30  O   UNL     1       6.226  -0.938   1.127  0.00  0.00    -0.488 OA
ENDBRANCH  18  20
ENDBRANCH   2  18
TORSDOF 6
