REMARK  Name = ZINC08899139
REMARK  11 active torsions:
REMARK  status: ('A' for Active; 'I' for Inactive)
REMARK    1  A    between atoms: C_1  and  C_2
REMARK    2  A    between atoms: C_2  and  N_3
REMARK    3  A    between atoms: C_6  and  C_19
REMARK    4  A    between atoms: C_7  and  N_18
REMARK    5  A    between atoms: N_8  and  C_11
REMARK    6  A    between atoms: C_11  and  C_12
REMARK    7  A    between atoms: C_19  and  C_21
REMARK    8  A    between atoms: C_21  and  S_22
REMARK    9  A    between atoms: S_22  and  C_23
REMARK   10  A    between atoms: N_27  and  C_28
REMARK   11  A    between atoms: C_31  and  C_34
REMARK                            x       y       z     vdW  Elec       q    Type
REMARK                         _______ _______ _______ _____ _____    ______ ____
ROOT
ATOM      1  N   UNL     1       5.362  -5.397   0.026  0.00  0.00    -0.260 N 
ATOM      2  C   UNL     1       4.916  -4.124   0.035  0.00  0.00    +0.269 A 
ATOM      3  O   UNL     1       3.727  -3.883   0.135  0.00  0.00    -0.267 OA
ATOM      4  C   UNL     1       5.893  -3.034  -0.086  0.00  0.00    +0.121 A 
ATOM      5  C   UNL     1       7.252  -3.380  -0.193  0.00  0.00    +0.116 A 
ATOM      6  N   UNL     1       7.600  -4.700  -0.185  0.00  0.00    -0.277 N 
ATOM      7  C   UNL     1       6.674  -5.666  -0.079  0.00  0.00    +0.334 A 
ATOM      8  O   UNL     1       7.035  -6.826  -0.078  0.00  0.00    -0.246 OA
ENDROOT
BRANCH   5   9
ATOM      9  N   UNL     1       8.204  -2.414  -0.301  0.00  0.00    -0.344 N 
ATOM     10  H   UNL     1       7.958  -1.479  -0.223  0.00  0.00    +0.144 HD
ATOM     11  H   UNL     1       9.129  -2.661  -0.456  0.00  0.00    +0.144 HD
ENDBRANCH   5   9
BRANCH   1  13
ATOM     12  C   UNL     1       4.194  -6.843   1.615  0.00  0.00    +0.027 C 
ATOM     13  C   UNL     1       4.405  -6.500   0.139  0.00  0.00    +0.126 C 
ENDBRANCH   1  13
BRANCH   4  14
ATOM     14  C   UNL     1       5.483  -1.684  -0.089  0.00  0.00    +0.182 C 
ATOM     15  O   UNL     1       6.312  -0.797  -0.076  0.00  0.00    -0.291 OA
BRANCH  14  16
ATOM     16  C   UNL     1       4.015  -1.343  -0.108  0.00  0.00    +0.157 C 
BRANCH  16  17
ATOM     17  S   UNL     1       3.814   0.456  -0.107  0.00  0.00    -0.076 S 
BRANCH  17  18
ATOM     18  C   UNL     1       2.055   0.567  -0.130  0.00  0.00    +0.214 A 
ATOM     19  N   UNL     1       1.208  -0.440  -0.144  0.00  0.00    -0.101 NA
ATOM     20  N   UNL     1      -0.002  -0.009  -0.160  0.00  0.00    -0.022 NA
ATOM     21  N   UNL     1      -0.021   1.279  -0.158  0.00  0.00    -0.038 NA
ATOM     22  N   UNL     1       1.319   1.706  -0.138  0.00  0.00    -0.187 N 
BRANCH  22  23
ATOM     23  C   UNL     1       1.792   3.026  -0.130  0.00  0.00    +0.070 A 
ATOM     24  C   UNL     1       2.941   3.349   0.581  0.00  0.00    +0.028 A 
ATOM     25  C   UNL     1       3.407   4.649   0.583  0.00  0.00    +0.005 A 
ATOM     26  C   UNL     1       2.725   5.631  -0.113  0.00  0.00    -0.050 A 
ATOM     27  C   UNL     1       1.578   5.314  -0.816  0.00  0.00    +0.005 A 
ATOM     28  C   UNL     1       1.110   4.014  -0.827  0.00  0.00    +0.028 A 
ATOM     29  C   UNL     1       3.234   7.049  -0.104  0.00  0.00    +0.044 C 
ENDBRANCH  22  23
ENDBRANCH  17  18
ENDBRANCH  16  17
ENDBRANCH  14  16
ENDBRANCH   4  14
BRANCH   6  30
ATOM     30  C   UNL     1       9.013  -5.071  -0.297  0.00  0.00    +0.163 C 
BRANCH  30  31
ATOM     31  C   UNL     1       9.620  -5.158   1.080  0.00  0.00    -0.028 A 
ATOM     32  C   UNL     1      10.201  -4.041   1.651  0.00  0.00    +0.005 A 
ATOM     33  C   UNL     1      10.753  -4.120   2.916  0.00  0.00    +0.000 A 
ATOM     34  C   UNL     1      10.732  -5.318   3.606  0.00  0.00    +0.000 A 
ATOM     35  C   UNL     1      10.155  -6.435   3.033  0.00  0.00    +0.000 A 
ATOM     36  C   UNL     1       9.599  -6.356   1.770  0.00  0.00    +0.005 A 
ENDBRANCH  30  31
ENDBRANCH   6  30
TORSDOF 9
