REMARK  Name = ZINC08645775
REMARK  9 active torsions:
REMARK  status: ('A' for Active; 'I' for Inactive)
REMARK    1  A    between atoms: C_1  and  C_2
REMARK    2  A    between atoms: C_2  and  C_3
REMARK    3  A    between atoms: C_2  and  C_4
REMARK    4  A    between atoms: C_4  and  C_6
REMARK    5  A    between atoms: C_4  and  S_12
REMARK    6  A    between atoms: S_12  and  C_13
REMARK    7  A    between atoms: C_16  and  C_25
REMARK    8  A    between atoms: N_17  and  C_18
REMARK    9  A    between atoms: C_18  and  C_19
REMARK                            x       y       z     vdW  Elec       q    Type
REMARK                         _______ _______ _______ _____ _____    ______ ____
ROOT
ATOM      1  C   UNL     1      -3.610   1.586   2.267  0.00  0.00    +0.193 A 
ATOM      2  N   UNL     1      -3.550   1.137   3.501  0.00  0.00    -0.122 NA
ATOM      3  N   UNL     1      -2.767   0.119   3.563  0.00  0.00    -0.125 NA
ATOM      4  C   UNL     1      -2.283  -0.149   2.370  0.00  0.00    +0.201 A 
ATOM      5  N   UNL     1      -2.804   0.788   1.504  0.00  0.00    -0.295 N 
ENDROOT
BRANCH   4   6
ATOM      6  C   UNL     1      -1.358  -1.239   2.026  0.00  0.00    +0.173 A 
ATOM      7  C   UNL     1      -0.623  -1.973   2.908  0.00  0.00    +0.054 A 
ATOM      8  C   UNL     1       0.114  -2.902   2.148  0.00  0.00    +0.057 A 
ATOM      9  C   UNL     1      -0.196  -2.687   0.853  0.00  0.00    +0.171 A 
ATOM     10  O   UNL     1      -1.085  -1.683   0.783  0.00  0.00    -0.445 OA
ATOM     11 BR   UNL     1       0.505  -3.643  -0.621  0.00  0.00    -0.008 Br
ENDBRANCH   4   6
BRANCH   1  12
ATOM     12  S   UNL     1      -4.554   2.962   1.702  0.00  0.00    -0.073 S 
BRANCH  12  13
ATOM     13  C   UNL     1      -5.432   3.388   3.226  0.00  0.00    +0.143 C 
BRANCH  13  14
ATOM     14  C   UNL     1      -6.420   2.300   3.557  0.00  0.00    +0.234 C 
ATOM     15  O   UNL     1      -6.790   1.533   2.694  0.00  0.00    -0.274 OA
ATOM     16  N   UNL     1      -6.893   2.178   4.814  0.00  0.00    -0.239 N 
ATOM     17  C   UNL     1      -7.777   1.204   5.110  0.00  0.00    +0.303 C 
ATOM     18  O   UNL     1      -8.148   0.436   4.244  0.00  0.00    -0.253 OA
ATOM     19  N   UNL     1      -8.250   1.083   6.366  0.00  0.00    -0.313 N 
ATOM     20  H   UNL     1      -6.598   2.791   5.505  0.00  0.00    +0.159 HD
ATOM     21  H   UNL     1      -7.954   1.696   7.057  0.00  0.00    +0.146 HD
ATOM     22  H   UNL     1      -8.886   0.382   6.579  0.00  0.00    +0.146 HD
ENDBRANCH  13  14
BRANCH  13  24
ATOM     23  C   UNL     1      -6.931   5.064   4.316  0.00  0.00    +0.009 C 
ATOM     24  C   UNL     1      -6.177   4.711   3.033  0.00  0.00    +0.005 C 
ATOM     25  C   UNL     1      -5.172   5.819   2.712  0.00  0.00    +0.009 C 
ENDBRANCH  13  24
ENDBRANCH  12  13
ENDBRANCH   1  12
BRANCH   5  26
ATOM     26  C   UNL     1      -2.552   0.900   0.066  0.00  0.00    +0.161 C 
BRANCH  26  27
ATOM     27  C   UNL     1      -1.366   1.800  -0.168  0.00  0.00    -0.028 A 
ATOM     28  C   UNL     1      -0.093   1.265  -0.221  0.00  0.00    +0.005 A 
ATOM     29  C   UNL     1       0.995   2.089  -0.441  0.00  0.00    +0.000 A 
ATOM     30  C   UNL     1       0.809   3.450  -0.602  0.00  0.00    +0.000 A 
ATOM     31  C   UNL     1      -0.463   3.986  -0.543  0.00  0.00    +0.000 A 
ATOM     32  C   UNL     1      -1.551   3.161  -0.323  0.00  0.00    +0.005 A 
ENDBRANCH  26  27
ENDBRANCH   5  26
TORSDOF 7
