REMARK  Name = ZINC05009740
REMARK  6 active torsions:
REMARK  status: ('A' for Active; 'I' for Inactive)
REMARK    1  A    between atoms: C_1  and  C_2
REMARK    2  A    between atoms: C_2  and  C_4
REMARK    3  A    between atoms: C_2  and  O_17
REMARK    4  A    between atoms: N_6  and  C_7
REMARK    5  A    between atoms: C_12  and  N_13
REMARK    6  A    between atoms: O_17  and  C_18
REMARK                            x       y       z     vdW  Elec       q    Type
REMARK                         _______ _______ _______ _____ _____    ______ ____
ROOT
ATOM      1  C   UNL     1      -0.822   1.734  -1.003  0.00  0.00    +0.258 C 
ATOM      2  O   UNL     1      -0.147   2.445  -1.717  0.00  0.00    -0.271 OA
ATOM      3  N   UNL     1      -2.066   1.382  -1.384  0.00  0.00    -0.281 N 
ATOM      4  H   UNL     1      -2.636   0.884  -0.777  0.00  0.00    +0.155 HD
ENDROOT
BRANCH   3   5
ATOM      5  C   UNL     1      -2.534   1.734  -2.655  0.00  0.00    +0.064 A 
ATOM      6  C   UNL     1      -1.636   1.954  -3.691  0.00  0.00    +0.027 A 
ATOM      7  C   UNL     1      -2.101   2.301  -4.944  0.00  0.00    +0.022 A 
ATOM      8  C   UNL     1      -3.461   2.430  -5.168  0.00  0.00    +0.043 A 
ATOM      9  C   UNL     1      -4.358   2.211  -4.137  0.00  0.00    +0.054 A 
ATOM     10  C   UNL     1      -3.898   1.859  -2.883  0.00  0.00    +0.149 A 
ATOM     11 CL   UNL     1      -4.043   2.867  -6.744  0.00  0.00    -0.083 Cl
BRANCH  10  12
ATOM     12  N   UNL     1      -4.859   1.619  -1.782  0.00  0.00    +0.058 N 
ATOM     13  O   UNL     1      -6.056   1.632  -2.005  0.00  0.00    -0.126 OA
ATOM     14  O   UNL     1      -4.451   1.410  -0.654  0.00  0.00    -0.126 OA
ENDBRANCH  10  12
ENDBRANCH   3   5
BRANCH   1  16
ATOM     15  C   UNL     1      -0.120  -0.278   0.266  0.00  0.00    +0.062 C 
ATOM     16  C   UNL     1      -0.269   1.244   0.311  0.00  0.00    +0.256 C 
BRANCH  16  17
ATOM     17  O   UNL     1       1.008   1.841   0.543  0.00  0.00    -0.480 OA
BRANCH  17  18
ATOM     18  C   UNL     1       1.330   2.129   1.831  0.00  0.00    +0.122 A 
ATOM     19  C   UNL     1       0.485   1.744   2.861  0.00  0.00    +0.045 A 
ATOM     20  C   UNL     1       0.817   2.033   4.171  0.00  0.00    +0.004 A 
ATOM     21  C   UNL     1       1.985   2.715   4.454  0.00  0.00    +0.000 A 
ATOM     22  C   UNL     1       2.827   3.106   3.429  0.00  0.00    +0.004 A 
ATOM     23  C   UNL     1       2.502   2.814   2.118  0.00  0.00    +0.045 A 
ENDBRANCH  17  18
ENDBRANCH  16  17
ENDBRANCH   1  16
TORSDOF 5
