REMARK  Name = ZINC21084624
REMARK  12 active torsions:
REMARK  status: ('A' for Active; 'I' for Inactive)
REMARK    1  A    between atoms: C_1  and  C_2
REMARK    2  A    between atoms: C_2  and  C_3
REMARK    3  A    between atoms: C_3  and  C_4
REMARK    4  A    between atoms: C_4  and  N_5
REMARK    5  A    between atoms: C_6  and  N_33
REMARK    6  A    between atoms: C_7  and  N_14
REMARK    7  A    between atoms: N_14  and  C_15
REMARK    8  A    between atoms: C_15  and  C_16
REMARK    9  A    between atoms: C_17  and  C_19
REMARK   10  A    between atoms: C_22  and  O_25
REMARK   11  A    between atoms: O_25  and  C_26
REMARK   12  A    between atoms: C_26  and  C_27
REMARK                            x       y       z     vdW  Elec       q    Type
REMARK                         _______ _______ _______ _____ _____    ______ ____
ROOT
ATOM      1  N   UNL     1       4.960  -3.914   3.297  0.00  0.00    -0.260 N 
ATOM      2  C   UNL     1       5.669  -3.177   2.418  0.00  0.00    +0.251 C 
ATOM      3  O   UNL     1       6.843  -2.942   2.629  0.00  0.00    -0.270 OA
ENDROOT
BRANCH   1   6
ATOM      4  N   UNL     1       1.320  -3.827   3.784  0.00  0.00    -0.280 N 
ATOM      5  C   UNL     1       2.662  -3.618   4.005  0.00  0.00    +0.127 A 
ATOM      6  C   UNL     1       3.578  -4.112   3.099  0.00  0.00    +0.140 A 
ATOM      7  C   UNL     1       3.110  -4.815   1.973  0.00  0.00    +0.277 A 
ATOM      8  O   UNL     1       3.897  -5.261   1.156  0.00  0.00    -0.266 OA
ATOM      9  N   UNL     1       1.784  -4.991   1.803  0.00  0.00    -0.273 N 
ATOM     10  H   UNL     1       1.460  -5.475   1.028  0.00  0.00    +0.173 HD
ATOM     11  C   UNL     1       0.906  -4.508   2.700  0.00  0.00    +0.331 A 
ATOM     12  O   UNL     1      -0.284  -4.686   2.525  0.00  0.00    -0.246 OA
BRANCH   5  13
ATOM     13  N   UNL     1       3.084  -2.927   5.115  0.00  0.00    -0.343 N 
ATOM     14  H   UNL     1       2.434  -2.544   5.724  0.00  0.00    +0.144 HD
ATOM     15  H   UNL     1       4.033  -2.822   5.289  0.00  0.00    +0.144 HD
ENDBRANCH   5  13
BRANCH   4  16
ATOM     16  C   UNL     1       0.336  -3.309   4.738  0.00  0.00    +0.128 C 
BRANCH  16  17
ATOM     17  C   UNL     1       0.068  -4.361   5.816  0.00  0.00    +0.021 C 
BRANCH  17  19
ATOM     18  C   UNL     1      -1.228  -4.872   7.890  0.00  0.00    +0.004 C 
ATOM     19  C   UNL     1      -0.960  -3.820   6.812  0.00  0.00    -0.002 C 
ENDBRANCH  17  19
ENDBRANCH  16  17
ENDBRANCH   4  16
ENDBRANCH   1   6
BRANCH   2  20
ATOM     20  C   UNL     1       5.019  -2.656   1.200  0.00  0.00    +0.037 A 
ATOM     21  C   UNL     1       3.651  -2.370   1.203  0.00  0.00    +0.016 A 
ATOM     22  C   UNL     1       3.049  -1.883   0.064  0.00  0.00    +0.046 A 
ATOM     23  C   UNL     1       3.799  -1.675  -1.087  0.00  0.00    +0.121 A 
ATOM     24  C   UNL     1       5.160  -1.958  -1.094  0.00  0.00    +0.046 A 
ATOM     25  C   UNL     1       5.771  -2.440   0.042  0.00  0.00    +0.016 A 
BRANCH  23  26
ATOM     26  O   UNL     1       3.202  -1.195  -2.207  0.00  0.00    -0.489 OA
BRANCH  26  27
ATOM     27  C   UNL     1       4.032  -1.005  -3.354  0.00  0.00    +0.260 C 
BRANCH  27  28
ATOM     28  C   UNL     1       3.189  -0.463  -4.510  0.00  0.00    +0.156 C 
ATOM     29  C   UNL     1       4.087  -0.163  -5.737  0.00  0.00    +0.037 C 
ATOM     30  C   UNL     1       3.054  -0.274  -6.892  0.00  0.00    +0.031 C 
ATOM     31  C   UNL     1       2.111  -1.386  -6.383  0.00  0.00    +0.160 C 
ATOM     32  O   UNL     1       2.257  -1.460  -4.958  0.00  0.00    -0.373 OA
ENDBRANCH  27  28
ENDBRANCH  26  27
ENDBRANCH  23  26
ENDBRANCH   2  20
BRANCH   1  33
ATOM     33  C   UNL     1       5.627  -4.510   4.458  0.00  0.00    +0.111 C 
ATOM     34  C   UNL     1       6.262  -5.841   4.053  0.00  0.00    +0.025 C 
ENDBRANCH   1  33
TORSDOF 10
