REMARK  Name = ZINC13069858
REMARK  14 active torsions:
REMARK  status: ('A' for Active; 'I' for Inactive)
REMARK    1  A    between atoms: C_1  and  C_2
REMARK    2  A    between atoms: C_2  and  C_3
REMARK    3  A    between atoms: C_2  and  C_4
REMARK    4  A    between atoms: C_4  and  N_5
REMARK    5  A    between atoms: N_5  and  C_6
REMARK    6  A    between atoms: C_14  and  C_16
REMARK    7  A    between atoms: C_16  and  S_17
REMARK    8  A    between atoms: S_17  and  C_18
REMARK    9  A    between atoms: C_21  and  C_24
REMARK   10  A    between atoms: N_22  and  N_23
REMARK   11  A    between atoms: C_27  and  C_30
REMARK   12  A    between atoms: C_30  and  C_31
REMARK   13  A    between atoms: C_30  and  C_32
REMARK   14  A    between atoms: C_30  and  C_33
REMARK                            x       y       z     vdW  Elec       q    Type
REMARK                         _______ _______ _______ _____ _____    ______ ____
ROOT
ATOM      1  C   UNL     1      -1.634  -0.978  -1.469  0.00  0.00    +0.209 A 
ATOM      2  N   UNL     1      -1.479  -2.187  -0.978  0.00  0.00    -0.121 NA
ATOM      3  N   UNL     1      -1.834  -2.210   0.257  0.00  0.00    -0.127 NA
ATOM      4  C   UNL     1      -2.232  -1.017   0.631  0.00  0.00    +0.182 A 
ATOM      5  N   UNL     1      -2.113  -0.190  -0.462  0.00  0.00    -0.224 N 
ENDROOT
BRANCH   4   6
ATOM      6  C   UNL     1      -2.718  -0.634   1.974  0.00  0.00    +0.021 A 
ATOM      7  C   UNL     1      -2.808   0.713   2.329  0.00  0.00    +0.012 A 
ATOM      8  C   UNL     1      -3.267   1.064   3.582  0.00  0.00    +0.005 A 
ATOM      9  C   UNL     1      -3.627   0.084   4.490  0.00  0.00    -0.042 A 
ATOM     10  C   UNL     1      -3.535  -1.253   4.146  0.00  0.00    +0.005 A 
ATOM     11  C   UNL     1      -3.083  -1.617   2.895  0.00  0.00    +0.012 A 
BRANCH   9  12
ATOM     12  C   UNL     1      -4.121   0.475   5.859  0.00  0.00    -0.013 C 
ATOM     13  C   UNL     1      -3.197  -0.120   6.923  0.00  0.00    +0.015 C 
ATOM     14  C   UNL     1      -4.127   2.000   5.983  0.00  0.00    +0.015 C 
ATOM     15  C   UNL     1      -5.540  -0.059   6.060  0.00  0.00    +0.015 C 
ENDBRANCH   9  12
ENDBRANCH   4   6
BRANCH   5  16
ATOM     16  N   UNL     1      -2.417   1.140  -0.527  0.00  0.00    -0.295 N 
ATOM     17  H   UNL     1      -1.616   1.706  -0.287  0.00  0.00    +0.163 HD
ATOM     18  H   UNL     1      -2.772   1.385  -1.439  0.00  0.00    +0.163 HD
ENDBRANCH   5  16
BRANCH   1  19
ATOM     19  S   UNL     1      -1.285  -0.468  -3.119  0.00  0.00    -0.075 S 
BRANCH  19  20
ATOM     20  C   UNL     1      -0.706  -2.034  -3.817  0.00  0.00    +0.173 C 
BRANCH  20  22
ATOM     21  N   UNL     1       0.119  -2.871  -5.993  0.00  0.00    -0.296 N 
ATOM     22  C   UNL     1      -0.340  -1.834  -5.265  0.00  0.00    +0.226 C 
ATOM     23  O   UNL     1      -0.459  -0.741  -5.775  0.00  0.00    -0.275 OA
BRANCH  21  24
ATOM     24  C   UNL     1       0.475  -2.677  -7.401  0.00  0.00    +0.098 C 
ATOM     25  C   UNL     1       1.669  -1.714  -7.507  0.00  0.00    +0.046 C 
ATOM     26  C   UNL     1       1.847  -1.253  -8.974  0.00  0.00    +0.168 C 
ATOM     27  S   UNL     1       0.137  -1.363  -9.642  0.00  0.00    -0.029 S 
ATOM     28  O   UNL     1       0.109  -2.330 -10.682  0.00  0.00    -0.174 OA
ATOM     29  O   UNL     1      -0.347  -0.051  -9.893  0.00  0.00    -0.174 OA
ATOM     30  C   UNL     1      -0.725  -2.047  -8.164  0.00  0.00    +0.188 C 
ENDBRANCH  21  24
BRANCH  21  31
ATOM     31  C   UNL     1       0.263  -4.192  -5.377  0.00  0.00    +0.111 C 
BRANCH  31  33
ATOM     32  C   UNL     1      -1.450  -5.223  -6.874  0.00  0.00    +0.009 C 
ATOM     33  C   UNL     1      -1.080  -4.924  -5.420  0.00  0.00    +0.000 C 
ATOM     34  C   UNL     1      -0.971  -6.237  -4.642  0.00  0.00    +0.009 C 
ENDBRANCH  31  33
ENDBRANCH  21  31
ENDBRANCH  20  22
ENDBRANCH  19  20
ENDBRANCH   1  19
TORSDOF 9
