REMARK  Name = ZINC10908336
REMARK  6 active torsions:
REMARK  status: ('A' for Active; 'I' for Inactive)
REMARK    1  A    between atoms: C_4  and  N_7
REMARK    2  A    between atoms: C_9  and  C_19
REMARK    3  A    between atoms: C_10  and  C_12
REMARK    4  A    between atoms: C_19  and  N_20
REMARK    5  A    between atoms: C_21  and  C_23
REMARK    6  A    between atoms: C_26  and  N_30
REMARK                            x       y       z     vdW  Elec       q    Type
REMARK                         _______ _______ _______ _____ _____    ______ ____
ROOT
ATOM      1  N   UNL     1      -1.121   1.861   0.017  0.00  0.00    -0.239 N 
ATOM      2  C   UNL     1      -0.013   1.076   0.008  0.00  0.00    +0.120 A 
ATOM      3  C   UNL     1       1.068   1.886   0.002  0.00  0.00    +0.015 A 
ATOM      4  C   UNL     1       0.611   3.218   0.013  0.00  0.00    +0.098 A 
ATOM      5  N   UNL     1      -0.705   3.198   0.025  0.00  0.00    -0.166 NA
ENDROOT
BRANCH   4   6
ATOM      6  C   UNL     1       1.464   4.433   0.010  0.00  0.00    +0.003 A 
ATOM      7  C   UNL     1       2.678   4.435   0.695  0.00  0.00    +0.013 A 
ATOM      8  C   UNL     1       3.470   5.565   0.686  0.00  0.00    +0.039 A 
ATOM      9  C   UNL     1       3.055   6.699   0.006  0.00  0.00    +0.123 A 
ATOM     10  C   UNL     1       1.847   6.702  -0.671  0.00  0.00    +0.039 A 
ATOM     11  C   UNL     1       1.051   5.575  -0.672  0.00  0.00    +0.013 A 
ATOM     12  F   UNL     1       3.832   7.804   0.005  0.00  0.00    -0.205 F 
ENDBRANCH   4   6
BRANCH   1  16
ATOM     13  C   UNL     1      -5.069   0.523   0.025  0.00  0.00    +0.000 A 
ATOM     14  C   UNL     1      -4.800   1.880   0.032  0.00  0.00    +0.002 A 
ATOM     15  C   UNL     1      -3.493   2.326   0.029  0.00  0.00    +0.028 A 
ATOM     16  C   UNL     1      -2.449   1.411   0.020  0.00  0.00    +0.065 A 
ATOM     17  C   UNL     1      -2.722   0.050   0.008  0.00  0.00    +0.028 A 
ATOM     18  C   UNL     1      -4.031  -0.390   0.016  0.00  0.00    +0.002 A 
ENDBRANCH   1  16
BRANCH   3  19
ATOM     19  C   UNL     1       2.509   1.443  -0.013  0.00  0.00    +0.143 C 
BRANCH  19  20
ATOM     20  N   UNL     1       3.058   1.521   1.342  0.00  0.00    -0.307 N 
ATOM     21  C   UNL     1       4.339   1.171   1.571  0.00  0.00    +0.246 C 
ATOM     22  O   UNL     1       5.039   0.790   0.653  0.00  0.00    -0.270 OA
ATOM     23  H   UNL     1       2.500   1.825   2.075  0.00  0.00    +0.149 HD
BRANCH  21  24
ATOM     24  C   UNL     1       4.894   1.250   2.939  0.00  0.00    +0.055 A 
ATOM     25  C   UNL     1       4.093   1.687   3.996  0.00  0.00    +0.017 A 
ATOM     26  C   UNL     1       4.617   1.759   5.270  0.00  0.00    +0.033 A 
ATOM     27  C   UNL     1       5.933   1.399   5.503  0.00  0.00    +0.128 A 
ATOM     28  C   UNL     1       6.732   0.965   4.462  0.00  0.00    +0.053 A 
ATOM     29  C   UNL     1       6.220   0.883   3.181  0.00  0.00    +0.055 A 
ATOM     30 CL   UNL     1       7.222   0.331   1.876  0.00  0.00    -0.083 Cl
BRANCH  27  31
ATOM     31  N   UNL     1       6.486   1.478   6.873  0.00  0.00    +0.056 N 
ATOM     32  O   UNL     1       5.784   1.859   7.793  0.00  0.00    -0.126 OA
ATOM     33  O   UNL     1       7.644   1.161   7.081  0.00  0.00    -0.126 OA
ENDBRANCH  27  31
ENDBRANCH  21  24
ENDBRANCH  19  20
ENDBRANCH   3  19
TORSDOF 6
