REMARK  Name = ZINC12309806
REMARK  12 active torsions:
REMARK  status: ('A' for Active; 'I' for Inactive)
REMARK    1  A    between atoms: C_1  and  C_2
REMARK    2  A    between atoms: C_2  and  C_3
REMARK    3  A    between atoms: C_3  and  C_4
REMARK    4  A    between atoms: C_4  and  C_5
REMARK    5  A    between atoms: C_11  and  N_12
REMARK    6  A    between atoms: N_12  and  O_13
REMARK    7  A    between atoms: O_13  and  C_14
REMARK    8  A    between atoms: C_14  and  C_15
REMARK    9  A    between atoms: N_17  and  C_18
REMARK   10  A    between atoms: C_21  and  C_24
REMARK   11  A    between atoms: N_29  and  C_34
REMARK   12  A    between atoms: N_32  and  C_33
REMARK                            x       y       z     vdW  Elec       q    Type
REMARK                         _______ _______ _______ _____ _____    ______ ____
ROOT
ATOM      1  C   UNL     1       0.879   5.739   1.127  0.00  0.00    -0.005 A 
ATOM      2  C   UNL     1       1.925   4.910   1.271  0.00  0.00    +0.090 A 
ATOM      3  N   UNL     1       1.850   3.586   0.927  0.00  0.00    -0.347 N 
ATOM      4  H   UNL     1       2.769   2.990   0.833  0.00  0.00    +0.167 HD
ATOM      5  C   UNL     1       0.662   2.967   0.693  0.00  0.00    +0.129 A 
ATOM      6  C   UNL     1      -0.490   3.727   0.509  0.00  0.00    +0.106 A 
ATOM      7  C   UNL     1      -0.383   5.196   0.587  0.00  0.00    +0.082 A 
ATOM      8  C   UNL     1      -1.720   3.076   0.255  0.00  0.00    +0.268 A 
ATOM      9  O   UNL     1      -2.740   3.720   0.088  0.00  0.00    -0.267 OA
ATOM     10  N   UNL     1      -1.740   1.726   0.197  0.00  0.00    -0.263 N 
ATOM     11  C   UNL     1      -0.617   1.013   0.386  0.00  0.00    +0.333 A 
ATOM     12  O   UNL     1      -0.673  -0.201   0.334  0.00  0.00    -0.246 OA
ATOM     13  N   UNL     1       0.569   1.601   0.627  0.00  0.00    -0.282 N 
ATOM     14  C   UNL     1       1.765   0.778   0.821  0.00  0.00    +0.155 C 
ATOM     15  C   UNL     1      -3.002   1.032  -0.071  0.00  0.00    +0.157 C 
ENDROOT
BRANCH   7  16
ATOM     16  N   UNL     1      -1.362   5.981   0.197  0.00  0.00    -0.264 N 
ATOM     17  H   UNL     1      -1.438   7.004   0.594  0.00  0.00    +0.194 HD
BRANCH  16  18
ATOM     18  O   UNL     1      -2.319   5.510  -0.734  0.00  0.00    -0.265 OA
BRANCH  18  19
ATOM     19  C   UNL     1      -3.326   6.468  -1.068  0.00  0.00    +0.288 C 
BRANCH  19  20
ATOM     20  C   UNL     1      -4.285   5.863  -2.060  0.00  0.00    +0.246 C 
ATOM     21  O   UNL     1      -4.123   4.724  -2.443  0.00  0.00    -0.273 OA
ATOM     22  N   UNL     1      -5.323   6.588  -2.521  0.00  0.00    -0.284 N 
ATOM     23  H   UNL     1      -5.428   7.644  -2.232  0.00  0.00    +0.155 HD
BRANCH  22  24
ATOM     24  C   UNL     1      -6.265   6.000  -3.365  0.00  0.00    +0.033 A 
ATOM     25  C   UNL     1      -5.862   5.051  -4.300  0.00  0.00    +0.024 A 
ATOM     26  C   UNL     1      -6.790   4.465  -5.131  0.00  0.00    +0.015 A 
ATOM     27  C   UNL     1      -8.135   4.831  -5.042  0.00  0.00    +0.037 A 
ATOM     28  C   UNL     1      -8.536   5.787  -4.105  0.00  0.00    +0.015 A 
ATOM     29  C   UNL     1      -7.604   6.366  -3.274  0.00  0.00    +0.024 A 
BRANCH  27  30
ATOM     30  C   UNL     1      -9.132   4.208  -5.935  0.00  0.00    +0.242 C 
ATOM     31  O   UNL     1     -10.303   4.527  -5.856  0.00  0.00    -0.270 OA
ATOM     32  N   UNL     1      -8.744   3.285  -6.838  0.00  0.00    -0.325 N 
ATOM     33  H   UNL     1      -9.487   2.821  -7.503  0.00  0.00    +0.145 HD
ATOM     34  H   UNL     1      -7.685   2.997  -6.909  0.00  0.00    +0.145 HD
ENDBRANCH  27  30
ENDBRANCH  22  24
ENDBRANCH  19  20
ENDBRANCH  18  19
ENDBRANCH  16  18
ENDBRANCH   7  16
BRANCH   1  35
ATOM     35  C   UNL     1       0.991   7.193   1.507  0.00  0.00    +0.039 C 
BRANCH  35  36
ATOM     36  C   UNL     1       0.594   7.369   2.974  0.00  0.00    +0.004 C 
BRANCH  36  38
ATOM     37  C   UNL     1       0.310   9.020   4.827  0.00  0.00    +0.004 C 
ATOM     38  C   UNL     1       0.707   8.845   3.361  0.00  0.00    -0.003 C 
ENDBRANCH  36  38
ENDBRANCH  35  36
ENDBRANCH   1  35
TORSDOF 9
