REMARK  Name = ZINC09391459
REMARK  12 active torsions:
REMARK  status: ('A' for Active; 'I' for Inactive)
REMARK    1  A    between atoms: C_1  and  C_2
REMARK    2  A    between atoms: C_2  and  N_71
REMARK    3  A    between atoms: C_8  and  N_15
REMARK    4  A    between atoms: C_9  and  C_10
REMARK    5  A    between atoms: C_10  and  O_12
REMARK    6  A    between atoms: O_12  and  C_13
REMARK    7  A    between atoms: C_13  and  C_14
REMARK    8  A    between atoms: C_16  and  C_18
REMARK    9  A    between atoms: C_21  and  S_24
REMARK   10  A    between atoms: S_24  and  N_27
REMARK   11  A    between atoms: C_29  and  C_36
REMARK   12  A    between atoms: C_32  and  C_35
REMARK                            x       y       z     vdW  Elec       q    Type
REMARK                         _______ _______ _______ _____ _____    ______ ____
ROOT
ATOM      1  N   UNL     1       1.141  -4.913   0.435  0.00  0.00    -0.275 N 
ATOM      2  C   UNL     1       0.060  -4.251  -0.023  0.00  0.00    +0.249 C 
ATOM      3  O   UNL     1      -0.898  -4.869  -0.444  0.00  0.00    -0.270 OA
ATOM      4  H   UNL     1       1.906  -4.419   0.770  0.00  0.00    +0.156 HD
ENDROOT
BRANCH   1  10
ATOM      5  C   UNL     1       2.172 -10.977   1.287  0.00  0.00    -0.074 C 
ATOM      6  C   UNL     1       2.932  -9.654   1.152  0.00  0.00    +0.018 C 
ATOM      7  C   UNL     1       1.938  -8.577   0.735  0.00  0.00    -0.025 A 
ATOM      8  C   UNL     1       0.740  -8.924   0.213  0.00  0.00    -0.021 A 
ATOM      9  S   UNL     1      -0.071  -7.388  -0.118  0.00  0.00    -0.079 S 
ATOM     10  C   UNL     1       1.161  -6.297   0.426  0.00  0.00    +0.086 A 
ATOM     11  C   UNL     1       2.175  -7.149   0.847  0.00  0.00    +0.091 A 
ATOM     12  C   UNL     1       0.243 -10.316  -0.021  0.00  0.00    -0.035 C 
ATOM     13  N   UNL     1       1.408 -11.232   0.049  0.00  0.00    +0.383 N 
ATOM     14  H   UNL     1       2.016 -11.061  -0.761  0.00  0.00    -0.081 HD
BRANCH  13  16
ATOM     15  C   UNL     1       0.126 -12.959   1.265  0.00  0.00    -0.017 C 
ATOM     16  C   UNL     1       0.949 -12.637   0.017  0.00  0.00    -0.082 C 
ENDBRANCH  13  16
BRANCH  11  17
ATOM     17  C   UNL     1       3.432  -6.628   1.386  0.00  0.00    +0.342 C 
ATOM     18  O   UNL     1       3.543  -6.422   2.580  0.00  0.00    -0.245 OA
BRANCH  17  19
ATOM     19  O   UNL     1       4.467  -6.374   0.560  0.00  0.00    -0.461 OA
BRANCH  19  20
ATOM     20  C   UNL     1       5.683  -5.858   1.164  0.00  0.00    +0.229 C 
ATOM     21  C   UNL     1       6.737  -5.634   0.078  0.00  0.00    +0.048 C 
ENDBRANCH  19  20
ENDBRANCH  17  19
ENDBRANCH  11  17
ENDBRANCH   1  10
BRANCH   2  22
ATOM     22  C   UNL     1       0.040  -2.773  -0.014  0.00  0.00    +0.037 A 
ATOM     23  C   UNL     1      -1.078  -2.084  -0.488  0.00  0.00    +0.015 A 
ATOM     24  C   UNL     1      -1.091  -0.705  -0.477  0.00  0.00    +0.029 A 
ATOM     25  C   UNL     1       0.002  -0.004   0.002  0.00  0.00    +0.106 A 
ATOM     26  C   UNL     1       1.116  -0.680   0.468  0.00  0.00    +0.029 A 
ATOM     27  C   UNL     1       1.139  -2.060   0.468  0.00  0.00    +0.015 A 
BRANCH  25  28
ATOM     28  S   UNL     1      -0.022   1.758   0.012  0.00  0.00    +0.061 S 
ATOM     29  O   UNL     1       1.334   2.182   0.001  0.00  0.00    -0.153 OA
ATOM     30  O   UNL     1      -0.953   2.157  -0.985  0.00  0.00    -0.153 OA
BRANCH  28  31
ATOM     31  N   UNL     1      -0.654   2.231   1.467  0.00  0.00    -0.176 NA
ATOM     32  C   UNL     1      -2.101   2.438   1.623  0.00  0.00    +0.112 C 
ATOM     33  C   UNL     1      -2.589   1.597   2.813  0.00  0.00    +0.002 C 
ATOM     34  C   UNL     1      -1.766   1.953   4.053  0.00  0.00    +0.009 C 
ATOM     35  C   UNL     1      -0.293   1.623   3.803  0.00  0.00    +0.002 C 
ATOM     36  C   UNL     1       0.221   2.458   2.626  0.00  0.00    +0.112 C 
ATOM     37  C   UNL     1       0.523   1.948   5.055  0.00  0.00    +0.009 C 
ATOM     38  C   UNL     1      -2.418   0.110   2.496  0.00  0.00    +0.009 C 
ENDBRANCH  28  31
ENDBRANCH  25  28
ENDBRANCH   2  22
TORSDOF 8
