REMARK  Name = ZINC19597009
REMARK  13 active torsions:
REMARK  status: ('A' for Active; 'I' for Inactive)
REMARK    1  A    between atoms: C_1  and  O_2
REMARK    2  A    between atoms: O_2  and  C_3
REMARK    3  A    between atoms: C_6  and  C_11
REMARK    4  A    between atoms: C_8  and  O_9
REMARK    5  A    between atoms: O_9  and  C_10
REMARK    6  A    between atoms: C_11  and  C_12
REMARK    7  A    between atoms: C_12  and  N_13
REMARK    8  A    between atoms: C_17  and  N_21
REMARK    9  A    between atoms: N_21  and  C_22
REMARK   10  A    between atoms: C_22  and  C_23
REMARK   11  A    between atoms: C_23  and  C_24
REMARK   12  A    between atoms: C_27  and  S_30
REMARK   13  A    between atoms: S_30  and  N_33
REMARK                            x       y       z     vdW  Elec       q    Type
REMARK                         _______ _______ _______ _____ _____    ______ ____
ROOT
ATOM      1  N   UNL     1       4.640  -3.366  -5.213  0.00  0.00    -0.243 N 
ATOM      2  C   UNL     1       4.717  -4.696  -5.346  0.00  0.00    +0.221 C 
ATOM      3  O   UNL     1       4.270  -5.506  -4.564  0.00  0.00    -0.275 OA
ATOM      4  C   UNL     1       5.448  -5.027  -6.629  0.00  0.00    +0.090 C 
ATOM      5  C   UNL     1       5.785  -3.643  -7.220  0.00  0.00    +0.025 C 
ATOM      6  C   UNL     1       5.204  -2.675  -6.213  0.00  0.00    +0.208 C 
ATOM      7  O   UNL     1       5.244  -1.467  -6.296  0.00  0.00    -0.277 OA
ENDROOT
BRANCH   5   8
ATOM      8  N   UNL     1       5.144  -3.471  -8.530  0.00  0.00    +0.387 N 
ATOM      9  H   UNL     1       5.409  -4.232  -9.137  0.00  0.00    -0.085 HD
ATOM     10  H   UNL     1       4.142  -3.465  -8.416  0.00  0.00    -0.085 HD
BRANCH   8  11
ATOM     11  C   UNL     1       5.577  -2.198  -9.124  0.00  0.00    -0.077 C 
BRANCH  11  12
ATOM     12  C   UNL     1       4.909  -2.019 -10.488  0.00  0.00    +0.016 C 
BRANCH  12  13
ATOM     13  C   UNL     1       5.352  -0.713 -11.097  0.00  0.00    -0.049 A 
ATOM     14  C   UNL     1       4.638   0.444 -10.847  0.00  0.00    +0.005 A 
ATOM     15  C   UNL     1       5.045   1.641 -11.406  0.00  0.00    +0.029 A 
ATOM     16  C   UNL     1       6.166   1.682 -12.213  0.00  0.00    +0.105 A 
ATOM     17  C   UNL     1       6.881   0.525 -12.462  0.00  0.00    +0.029 A 
ATOM     18  C   UNL     1       6.476  -0.672 -11.900  0.00  0.00    +0.005 A 
BRANCH  16  19
ATOM     19  S   UNL     1       6.684   3.208 -12.925  0.00  0.00    +0.056 S 
ATOM     20  O   UNL     1       7.444   2.880 -14.080  0.00  0.00    -0.153 OA
ATOM     21  O   UNL     1       5.534   4.040 -12.982  0.00  0.00    -0.153 OA
BRANCH  19  22
ATOM     22  N   UNL     1       7.730   3.917 -11.856  0.00  0.00    -0.204 NA
ATOM     23  H   UNL     1       7.942   3.475 -11.019  0.00  0.00    +0.144 HD
ATOM     24  H   UNL     1       8.131   4.775 -12.066  0.00  0.00    +0.144 HD
ENDBRANCH  19  22
ENDBRANCH  16  19
ENDBRANCH  12  13
ENDBRANCH  11  12
ENDBRANCH   8  11
ENDBRANCH   5   8
BRANCH   1  25
ATOM     25  C   UNL     1       3.989  -2.719  -4.072  0.00  0.00    +0.121 C 
BRANCH  25  26
ATOM     26  C   UNL     1       2.507  -2.501  -4.386  0.00  0.00    +0.054 C 
BRANCH  26  30
ATOM     27  C   UNL     1       0.606  -0.608  -1.056  0.00  0.00    +0.161 A 
ATOM     28  C   UNL     1       1.173   0.159  -2.062  0.00  0.00    +0.049 A 
ATOM     29  C   UNL     1       1.787  -0.456  -3.137  0.00  0.00    +0.007 A 
ATOM     30  C   UNL     1       1.837  -1.836  -3.212  0.00  0.00    -0.042 A 
ATOM     31  C   UNL     1       1.273  -2.606  -2.212  0.00  0.00    +0.053 A 
ATOM     32  C   UNL     1       0.662  -1.996  -1.129  0.00  0.00    +0.162 A 
BRANCH  27  34
ATOM     33  C   UNL     1      -0.017   1.425   0.010  0.00  0.00    +0.277 C 
ATOM     34  O   UNL     1       0.002  -0.004   0.002  0.00  0.00    -0.491 OA
ENDBRANCH  27  34
BRANCH  32  35
ATOM     35  O   UNL     1       0.112  -2.753  -0.142  0.00  0.00    -0.491 OA
ATOM     36  C   UNL     1       0.206  -4.171  -0.283  0.00  0.00    +0.277 C 
ENDBRANCH  32  35
ENDBRANCH  26  30
ENDBRANCH  25  26
ENDBRANCH   1  25
TORSDOF 11
