REMARK  Name = ZINC60378623
REMARK  16 active torsions:
REMARK  status: ('A' for Active; 'I' for Inactive)
REMARK    1  A    between atoms: C_1  and  C_2
REMARK    2  A    between atoms: C_2  and  C_3
REMARK    3  A    between atoms: C_3  and  C_4
REMARK    4  A    between atoms: C_4  and  C_6
REMARK    5  A    between atoms: C_4  and  N_23
REMARK    6  A    between atoms: C_6  and  N_7
REMARK    7  A    between atoms: C_8  and  C_10
REMARK    8  A    between atoms: C_17  and  C_19
REMARK    9  A    between atoms: C_19  and  C_20
REMARK   10  A    between atoms: C_19  and  C_21
REMARK   11  A    between atoms: C_19  and  C_22
REMARK   12  A    between atoms: C_24  and  C_26
REMARK   13  A    between atoms: C_33  and  C_35
REMARK   14  A    between atoms: C_35  and  C_36
REMARK   15  A    between atoms: C_35  and  C_37
REMARK   16  A    between atoms: C_35  and  C_38
REMARK                            x       y       z     vdW  Elec       q    Type
REMARK                         _______ _______ _______ _____ _____    ______ ____
ROOT
ATOM      1  C   UNL     1      -0.169  -1.936   0.806  0.00  0.00    +0.090 C 
ENDROOT
BRANCH   1   2
ATOM      2  N   UNL     1       0.478  -2.566   1.959  0.00  0.00    -0.311 N 
ATOM      3  C   UNL     1       1.819  -2.696   1.992  0.00  0.00    +0.218 C 
ATOM      4  O   UNL     1       2.490  -2.291   1.067  0.00  0.00    -0.275 OA
ATOM      5  H   UNL     1      -0.059  -2.890   2.699  0.00  0.00    +0.149 HD
BRANCH   3   6
ATOM      6  C   UNL     1       2.485  -3.344   3.179  0.00  0.00    +0.092 C 
ATOM      7  C   UNL     1       2.161  -2.547   4.444  0.00  0.00    +0.016 C 
ATOM      8  C   UNL     1       2.809  -3.223   5.655  0.00  0.00    +0.020 C 
ATOM      9  C   UNL     1       4.330  -3.241   5.471  0.00  0.00    +0.108 C 
ATOM     10  N   UNL     1       4.643  -3.878   4.184  0.00  0.00    -0.300 N 
ATOM     11  C   UNL     1       4.002  -3.364   2.966  0.00  0.00    +0.120 C 
ATOM     12  C   UNL     1       5.502  -4.915   4.122  0.00  0.00    +0.221 C 
ATOM     13  O   UNL     1       5.832  -5.366   3.046  0.00  0.00    -0.275 OA
BRANCH  12  14
ATOM     14  C   UNL     1       6.053  -5.513   5.391  0.00  0.00    +0.039 C 
ATOM     15  C   UNL     1       6.946  -6.707   5.045  0.00  0.00    +0.020 C 
ATOM     16  C   UNL     1       6.876  -4.460   6.136  0.00  0.00    +0.020 C 
ATOM     17  C   UNL     1       4.898  -5.980   6.278  0.00  0.00    +0.020 C 
ENDBRANCH  12  14
ENDBRANCH   3   6
ENDBRANCH   1   2
BRANCH   1  18
ATOM     18  C   UNL     1      -0.173  -0.417   0.990  0.00  0.00    +0.023 C 
BRANCH  18  20
ATOM     19  C   UNL     1       1.262   1.621   1.165  0.00  0.00    +0.004 C 
ATOM     20  C   UNL     1       1.266   0.102   0.980  0.00  0.00    -0.002 C 
ENDBRANCH  18  20
ENDBRANCH   1  18
BRANCH   1  21
ATOM     21  C   UNL     1      -1.609  -2.440   0.690  0.00  0.00    +0.126 C 
BRANCH  21  22
ATOM     22  N   UNL     1      -1.611  -3.904   0.634  0.00  0.00    -0.313 N 
ATOM     23  C   UNL     1      -2.776  -4.573   0.530  0.00  0.00    +0.218 C 
ATOM     24  O   UNL     1      -3.824  -3.963   0.484  0.00  0.00    -0.275 OA
ATOM     25  H   UNL     1      -0.773  -4.392   0.671  0.00  0.00    +0.149 HD
BRANCH  23  26
ATOM     26  C   UNL     1      -2.778  -6.079   0.472  0.00  0.00    +0.092 C 
ATOM     27  C   UNL     1      -1.978  -6.544  -0.746  0.00  0.00    +0.016 C 
ATOM     28  C   UNL     1      -1.952  -8.074  -0.788  0.00  0.00    +0.020 C 
ATOM     29  C   UNL     1      -3.384  -8.601  -0.920  0.00  0.00    +0.108 C 
ATOM     30  N   UNL     1      -4.196  -8.041   0.168  0.00  0.00    -0.300 N 
ATOM     31  C   UNL     1      -4.220  -6.584   0.355  0.00  0.00    +0.120 C 
ATOM     32  C   UNL     1      -4.907  -8.849   0.980  0.00  0.00    +0.221 C 
ATOM     33  O   UNL     1      -5.501  -8.383   1.929  0.00  0.00    -0.275 OA
BRANCH  32  34
ATOM     34  C   UNL     1      -4.964 -10.330   0.708  0.00  0.00    +0.039 C 
ATOM     35  C   UNL     1      -5.968 -10.985   1.659  0.00  0.00    +0.020 C 
ATOM     36  C   UNL     1      -5.403 -10.566  -0.739  0.00  0.00    +0.020 C 
ATOM     37  C   UNL     1      -3.579 -10.942   0.928  0.00  0.00    +0.020 C 
ENDBRANCH  32  34
ENDBRANCH  23  26
ENDBRANCH  21  22
ENDBRANCH   1  21
TORSDOF 9
