REMARK  Name = ZINC67285623
REMARK  11 active torsions:
REMARK  status: ('A' for Active; 'I' for Inactive)
REMARK    1  A    between atoms: C_1  and  C_2
REMARK    2  A    between atoms: C_2  and  O_3
REMARK    3  A    between atoms: O_3  and  C_4
REMARK    4  A    between atoms: C_6  and  C_11
REMARK    5  A    between atoms: C_9  and  O_10
REMARK    6  A    between atoms: C_13  and  C_32
REMARK    7  A    between atoms: C_14  and  C_19
REMARK    8  A    between atoms: C_19  and  N_20
REMARK    9  A    between atoms: C_23  and  N_26
REMARK   10  A    between atoms: C_32  and  O_34
REMARK   11  A    between atoms: O_34  and  C_35
REMARK                            x       y       z     vdW  Elec       q    Type
REMARK                         _______ _______ _______ _____ _____    ______ ____
ROOT
ATOM      1  C   UNL     1      -0.239  -4.972   0.476  0.00  0.00    +0.144 C 
ATOM      2  C   UNL     1       0.821  -5.372   1.482  0.00  0.00    +0.079 C 
ATOM      3  C   UNL     1       1.112  -6.686   1.599  0.00  0.00    +0.038 C 
ATOM      4  N   UNL     1       0.472  -7.621   0.837  0.00  0.00    -0.271 N 
ATOM      5  C   UNL     1      -0.472  -7.323  -0.066  0.00  0.00    +0.304 C 
ATOM      6  O   UNL     1      -0.986  -8.225  -0.697  0.00  0.00    -0.252 OA
ATOM      7  N   UNL     1      -0.869  -6.057  -0.296  0.00  0.00    -0.288 N 
ATOM      8  H   UNL     1       0.714  -8.552   0.956  0.00  0.00    +0.156 HD
ATOM      9  H   UNL     1      -1.554  -5.864  -0.955  0.00  0.00    +0.151 HD
ENDROOT
BRANCH   1  12
ATOM     10  C   UNL     1       0.816  -1.761  -1.212  0.00  0.00    +0.162 A 
ATOM     11  C   UNL     1       0.241  -2.647  -0.316  0.00  0.00    +0.055 A 
ATOM     12  C   UNL     1       0.387  -4.010  -0.500  0.00  0.00    -0.019 A 
ATOM     13  C   UNL     1       1.106  -4.491  -1.579  0.00  0.00    +0.009 A 
ATOM     14  C   UNL     1       1.682  -3.612  -2.477  0.00  0.00    +0.049 A 
ATOM     15  C   UNL     1       1.534  -2.246  -2.301  0.00  0.00    +0.158 A 
BRANCH  15  16
ATOM     16  O   UNL     1       2.096  -1.380  -3.187  0.00  0.00    -0.503 OA
ATOM     17  H   UNL     1       2.998  -1.115  -2.961  0.00  0.00    +0.292 HD
ENDBRANCH  15  16
BRANCH  10  18
ATOM     18  O   UNL     1       0.672  -0.421  -1.032  0.00  0.00    -0.489 OA
BRANCH  18  20
ATOM     19  C   UNL     1      -0.130   1.533   0.142  0.00  0.00    +0.048 C 
ATOM     20  C   UNL     1      -0.078   0.004   0.107  0.00  0.00    +0.226 C 
ENDBRANCH  18  20
ENDBRANCH  10  18
ENDBRANCH   1  12
BRANCH   2  21
ATOM     21  C   UNL     1       1.484  -4.403   2.271  0.00  0.00    +0.339 C 
ATOM     22  O   UNL     1       0.930  -3.929   3.245  0.00  0.00    -0.245 OA
BRANCH  21  23
ATOM     23  O   UNL     1       2.731  -4.004   1.942  0.00  0.00    -0.465 OA
ATOM     24  C   UNL     1       3.340  -3.022   2.783  0.00  0.00    +0.280 C 
ENDBRANCH  21  23
ENDBRANCH   2  21
BRANCH   3  25
ATOM     25  C   UNL     1       2.161  -7.127   2.588  0.00  0.00    +0.135 C 
BRANCH  25  26
ATOM     26  N   UNL     1       1.536  -7.959   3.625  0.00  0.00    -0.297 NA
ATOM     27  C   UNL     1       0.595  -7.174   4.434  0.00  0.00    +0.083 C 
ATOM     28  C   UNL     1      -0.141  -8.099   5.405  0.00  0.00    +0.000 C 
ATOM     29  C   UNL     1       0.879  -8.798   6.309  0.00  0.00    -0.066 C 
ATOM     30  C   UNL     1       1.876  -9.569   5.440  0.00  0.00    +0.000 C 
ATOM     31  C   UNL     1       2.554  -8.601   4.468  0.00  0.00    +0.083 C 
BRANCH  29  32
ATOM     32  N   UNL     1       0.183  -9.731   7.204  0.00  0.00    +0.382 N 
ATOM     33  C   UNL     1      -0.784  -8.992   8.024  0.00  0.00    -0.078 C 
ATOM     34  C   UNL     1      -1.569  -9.970   8.901  0.00  0.00    -0.019 C 
ATOM     35  C   UNL     1      -0.596 -10.725   9.812  0.00  0.00    -0.004 C 
ATOM     36  C   UNL     1       0.452 -11.432   8.948  0.00  0.00    -0.019 C 
ATOM     37  C   UNL     1       1.162 -10.399   8.070  0.00  0.00    -0.078 C 
ATOM     38  H   UNL     1      -0.305 -10.422   6.654  0.00  0.00    -0.081 HD
ENDBRANCH  29  32
ENDBRANCH  25  26
ENDBRANCH   3  25
TORSDOF 9
