REMARK  Name = ZINC66702713
REMARK  12 active torsions:
REMARK  status: ('A' for Active; 'I' for Inactive)
REMARK    1  A    between atoms: C_1  and  C_2
REMARK    2  A    between atoms: C_2  and  N_3
REMARK    3  A    between atoms: C_6  and  C_9
REMARK    4  A    between atoms: C_9  and  N_10
REMARK    5  A    between atoms: C_16  and  C_19
REMARK    6  A    between atoms: C_16  and  N_20
REMARK    7  A    between atoms: N_20  and  C_21
REMARK    8  A    between atoms: C_22  and  O_24
REMARK    9  A    between atoms: O_24  and  C_25
REMARK   10  A    between atoms: C_25  and  C_26
REMARK   11  A    between atoms: C_25  and  C_27
REMARK   12  A    between atoms: C_25  and  C_28
REMARK                            x       y       z     vdW  Elec       q    Type
REMARK                         _______ _______ _______ _____ _____    ______ ____
ROOT
ATOM      1  N   UNL     1      -6.955  -3.896  -0.051  0.00  0.00    -0.299 N 
ATOM      2  C   UNL     1      -5.875  -4.701  -0.071  0.00  0.00    +0.302 C 
ATOM      3  O   UNL     1      -4.759  -4.222  -0.009  0.00  0.00    -0.253 OA
ATOM      4  N   UNL     1      -6.031  -6.036  -0.160  0.00  0.00    -0.286 N 
ATOM      5  C   UNL     1      -4.871  -6.934  -0.066  0.00  0.00    +0.111 C 
ATOM      6  C   UNL     1      -5.142  -7.976   1.024  0.00  0.00    +0.045 C 
ATOM      7  C   UNL     1      -6.465  -8.687   0.728  0.00  0.00    +0.040 C 
ATOM      8  C   UNL     1      -7.607  -7.668   0.739  0.00  0.00    +0.045 C 
ATOM      9  C   UNL     1      -7.365  -6.623  -0.348  0.00  0.00    +0.111 C 
ATOM     10  C   UNL     1      -6.721  -9.752   1.796  0.00  0.00    +0.032 C 
ATOM     11  H   UNL     1      -7.841  -4.270  -0.176  0.00  0.00    +0.150 HD
ENDROOT
BRANCH   7  12
ATOM     12  N   UNL     1      -6.392  -9.324  -0.589  0.00  0.00    -0.265 N 
ATOM     13  C   UNL     1      -7.455  -9.099  -1.572  0.00  0.00    +0.136 C 
ATOM     14  C   UNL     1      -5.346 -10.117  -0.897  0.00  0.00    +0.404 C 
ATOM     15  O   UNL     1      -4.464 -10.303  -0.083  0.00  0.00    -0.226 OA
BRANCH  14  16
ATOM     16  O   UNL     1      -5.279 -10.702  -2.108  0.00  0.00    -0.445 OA
BRANCH  16  17
ATOM     17  C   UNL     1      -4.143 -11.530  -2.366  0.00  0.00    +0.107 C 
ATOM     18  C   UNL     1      -4.106 -12.675  -1.353  0.00  0.00    +0.055 C 
ATOM     19  C   UNL     1      -4.241 -12.104  -3.781  0.00  0.00    +0.055 C 
ATOM     20  C   UNL     1      -2.866 -10.697  -2.241  0.00  0.00    +0.055 C 
ENDBRANCH  16  17
ENDBRANCH  14  16
ENDBRANCH   7  12
BRANCH   1  21
ATOM     21  C   UNL     1      -6.792  -2.455   0.161  0.00  0.00    +0.109 C 
BRANCH  21  25
ATOM     22  N   UNL     1      -9.890   0.260  -0.984  0.00  0.00    +0.380 N 
ATOM     23  C   UNL     1      -9.370   0.395   0.382  0.00  0.00    -0.079 C 
ATOM     24  C   UNL     1      -8.007  -0.293   0.483  0.00  0.00    -0.014 C 
ATOM     25  C   UNL     1      -8.163  -1.777   0.139  0.00  0.00    +0.003 C 
ATOM     26  C   UNL     1      -8.775  -1.905  -1.259  0.00  0.00    -0.014 C 
ATOM     27  C   UNL     1     -10.110  -1.157  -1.295  0.00  0.00    -0.079 C 
ATOM     28  H   UNL     1      -9.223   0.647  -1.635  0.00  0.00    -0.082 HD
BRANCH  22  30
ATOM     29  C   UNL     1     -10.911   2.484  -0.894  0.00  0.00    -0.017 C 
ATOM     30  C   UNL     1     -11.161   0.988  -1.096  0.00  0.00    -0.082 C 
ENDBRANCH  22  30
ENDBRANCH  21  25
ENDBRANCH   1  21
TORSDOF 6
