REMARK  Name = ZINC06297356
REMARK  5 active torsions:
REMARK  status: ('A' for Active; 'I' for Inactive)
REMARK    1  A    between atoms: C_3  and  N_25
REMARK    2  A    between atoms: C_6  and  C_7
REMARK    3  A    between atoms: C_10  and  C_12
REMARK    4  A    between atoms: N_13  and  N_14
REMARK    5  A    between atoms: C_18  and  C_21
REMARK                            x       y       z     vdW  Elec       q    Type
REMARK                         _______ _______ _______ _____ _____    ______ ____
ROOT
ATOM      1  C   UNL     1      -8.140   4.102   4.692  0.00  0.00    +0.136 A 
ATOM      2  C   UNL     1      -8.220   4.519   6.037  0.00  0.00    +0.050 A 
ATOM      3  C   UNL     1      -6.963   4.473   6.556  0.00  0.00    +0.051 A 
ATOM      4  C   UNL     1      -6.087   4.008   5.473  0.00  0.00    +0.148 A 
ATOM      5  O   UNL     1      -6.865   3.811   4.386  0.00  0.00    -0.454 OA
ENDROOT
BRANCH   1  11
ATOM      6  C   UNL     1     -10.568   4.338   4.203  0.00  0.00    +0.014 A 
ATOM      7  C   UNL     1     -11.625   4.250   3.326  0.00  0.00    +0.033 A 
ATOM      8  C   UNL     1     -11.418   3.825   2.023  0.00  0.00    +0.126 A 
ATOM      9  C   UNL     1     -10.145   3.491   1.587  0.00  0.00    +0.033 A 
ATOM     10  C   UNL     1      -9.073   3.577   2.446  0.00  0.00    +0.014 A 
ATOM     11  C   UNL     1      -9.272   4.006   3.770  0.00  0.00    +0.017 A 
BRANCH   8  12
ATOM     12  N   UNL     1     -12.563   3.728   1.090  0.00  0.00    +0.056 N 
ATOM     13  O   UNL     1     -12.371   3.325  -0.149  0.00  0.00    -0.126 OA
ATOM     14  O   UNL     1     -13.774   4.045   1.500  0.00  0.00    -0.126 OA
ENDBRANCH   8  12
ENDBRANCH   1  11
BRANCH   4  15
ATOM     15  C   UNL     1      -4.718   3.813   5.551  0.00  0.00    +0.176 C 
ATOM     16  N   UNL     1      -4.045   3.385   4.484  0.00  0.00    -0.186 NA
BRANCH  16  17
ATOM     17  N   UNL     1      -2.770   3.203   4.556  0.00  0.00    -0.221 N 
ATOM     18  C   UNL     1      -2.071   2.758   3.447  0.00  0.00    +0.138 A 
ATOM     19  C   UNL     1      -0.693   2.563   3.532  0.00  0.00    +0.045 A 
ATOM     20  C   UNL     1      -0.007   2.118   2.415  0.00  0.00    +0.017 A 
ATOM     21  C   UNL     1      -0.722   1.881   1.250  0.00  0.00    +0.073 A 
ATOM     22  C   UNL     1      -2.089   2.101   1.236  0.00  0.00    +0.125 A 
ATOM     23  N   UNL     1      -2.717   2.520   2.314  0.00  0.00    -0.238 NA
ATOM     24  H   UNL     1      -2.302   3.378   5.387  0.00  0.00    +0.176 HD
BRANCH  21  25
ATOM     25  C   UNL     1      -0.017   1.395   0.010  0.00  0.00    +0.419 C 
ATOM     26  F   UNL     1       0.002  -0.004   0.002  0.00  0.00    -0.166 F 
ATOM     27  F   UNL     1       1.296   1.879  -0.000  0.00  0.00    -0.166 F 
ATOM     28  F   UNL     1      -0.694   1.858  -1.124  0.00  0.00    -0.166 F 
ENDBRANCH  21  25
ENDBRANCH  16  17
ENDBRANCH   4  15
TORSDOF 5
