REMARK  Name = ZINC00846113
REMARK  7 active torsions:
REMARK  status: ('A' for Active; 'I' for Inactive)
REMARK    1  A    between atoms: C_1  and  C_2
REMARK    2  A    between atoms: C_2  and  O_3
REMARK    3  A    between atoms: O_3  and  C_4
REMARK    4  A    between atoms: C_4  and  C_6
REMARK    5  A    between atoms: C_10  and  N_11
REMARK    6  A    between atoms: C_12  and  C_14
REMARK    7  A    between atoms: C_17  and  N_20
REMARK                            x       y       z     vdW  Elec       q    Type
REMARK                         _______ _______ _______ _____ _____    ______ ____
ROOT
ATOM      1  C   UNL     1       0.002  -0.004   0.002  0.00  0.00    +0.091 A 
ATOM      2  C   UNL     1      -0.017   1.385   0.010  0.00  0.00    -0.014 A 
ATOM      3  C   UNL     1       1.234   1.999   0.001  0.00  0.00    +0.060 A 
ATOM      4  S   UNL     1       2.378   0.653  -0.013  0.00  0.00    -0.069 S 
ATOM      5  C   UNL     1       1.241  -0.657  -0.010  0.00  0.00    +0.087 A 
ATOM      6  C   UNL     1       1.452   3.380  -0.000  0.00  0.00    +0.170 C 
ATOM      7  O   UNL     1       2.575   3.842   0.011  0.00  0.00    -0.291 OA
ATOM      8  C   UNL     1       0.229   4.276  -0.015  0.00  0.00    +0.080 C 
ATOM      9  C   UNL     1      -0.921   3.578   0.711  0.00  0.00    +0.013 C 
ATOM     10  C   UNL     1      -1.270   2.252   0.032  0.00  0.00    +0.038 C 
ENDROOT
BRANCH   5  11
ATOM     11  N   UNL     1       1.495  -2.013  -0.018  0.00  0.00    -0.275 N 
ATOM     12  C   UNL     1       2.766  -2.460  -0.029  0.00  0.00    +0.249 C 
ATOM     13  O   UNL     1       3.689  -1.668  -0.033  0.00  0.00    -0.270 OA
ATOM     14  H   UNL     1       0.759  -2.644  -0.015  0.00  0.00    +0.156 HD
BRANCH  12  15
ATOM     15  C   UNL     1       3.038  -3.912  -0.037  0.00  0.00    +0.037 A 
ATOM     16  C   UNL     1       1.981  -4.824  -0.027  0.00  0.00    +0.015 A 
ATOM     17  C   UNL     1       2.242  -6.178  -0.041  0.00  0.00    +0.033 A 
ATOM     18  C   UNL     1       3.549  -6.634  -0.053  0.00  0.00    +0.126 A 
ATOM     19  C   UNL     1       4.601  -5.736  -0.057  0.00  0.00    +0.033 A 
ATOM     20  C   UNL     1       4.354  -4.379  -0.050  0.00  0.00    +0.015 A 
BRANCH  18  21
ATOM     21  N   UNL     1       3.822  -8.089  -0.061  0.00  0.00    +0.056 N 
ATOM     22  O   UNL     1       4.971  -8.493  -0.072  0.00  0.00    -0.126 OA
ATOM     23  O   UNL     1       2.897  -8.882  -0.058  0.00  0.00    -0.126 OA
ENDBRANCH  18  21
ENDBRANCH  12  15
ENDBRANCH   5  11
BRANCH   1  24
ATOM     24  C   UNL     1      -1.250  -0.771   0.007  0.00  0.00    +0.342 C 
ATOM     25  O   UNL     1      -1.776  -1.082  -1.044  0.00  0.00    -0.245 OA
BRANCH  24  26
ATOM     26  O   UNL     1      -1.816  -1.129   1.177  0.00  0.00    -0.461 OA
BRANCH  26  28
ATOM     27  C   UNL     1      -3.541  -2.199   2.522  0.00  0.00    +0.048 C 
ATOM     28  C   UNL     1      -3.053  -1.886   1.106  0.00  0.00    +0.229 C 
ENDBRANCH  26  28
ENDBRANCH  24  26
ENDBRANCH   1  24
TORSDOF 6
