REMARK  Name = ZINC40051814
REMARK  5 active torsions:
REMARK  status: ('A' for Active; 'I' for Inactive)
REMARK    1  A    between atoms: C_1  and  C_2
REMARK    2  A    between atoms: N_9  and  N_10
REMARK    3  A    between atoms: C_11  and  C_12
REMARK    4  A    between atoms: C_13  and  C_25
REMARK    5  A    between atoms: N_15  and  C_19
REMARK                            x       y       z     vdW  Elec       q    Type
REMARK                         _______ _______ _______ _____ _____    ______ ____
ROOT
ATOM      1  C   UNL     1      -3.448  -6.277  -0.015  0.00  0.00    +0.027 C 
ATOM      2  C   UNL     1      -2.367  -7.069  -0.019  0.00  0.00    +0.027 C 
ATOM      3  N   UNL     1      -2.715  -8.397  -0.026  0.00  0.00    -0.266 N 
ATOM      4  N   UNL     1      -4.108  -8.543  -0.028  0.00  0.00    -0.231 N 
ATOM      5  C   UNL     1      -4.662  -7.179  -0.014  0.00  0.00    +0.218 C 
ATOM      6 CL   UNL     1      -5.645  -6.910   1.474  0.00  0.00    -0.094 Cl
ATOM      7  C   UNL     1      -0.947  -6.566  -0.016  0.00  0.00    +0.062 C 
ATOM      8  H   UNL     1      -2.083  -9.133  -0.031  0.00  0.00    +0.170 HD
ENDROOT
BRANCH   4   9
ATOM      9  C   UNL     1      -4.827  -9.741  -0.035  0.00  0.00    +0.050 A 
ATOM     10  C   UNL     1      -6.215  -9.720  -0.042  0.00  0.00    +0.025 A 
ATOM     11  C   UNL     1      -6.923 -10.906  -0.050  0.00  0.00    +0.002 A 
ATOM     12  C   UNL     1      -6.250 -12.114  -0.051  0.00  0.00    +0.000 A 
ATOM     13  C   UNL     1      -4.867 -12.139  -0.043  0.00  0.00    +0.002 A 
ATOM     14  C   UNL     1      -4.154 -10.956  -0.042  0.00  0.00    +0.025 A 
ENDBRANCH   4   9
BRANCH   1  16
ATOM     15  N   UNL     1      -2.328  -4.160  -0.009  0.00  0.00    -0.188 NA
ATOM     16  C   UNL     1      -3.453  -4.814  -0.007  0.00  0.00    +0.138 C 
BRANCH  15  25
ATOM     17  C   UNL     1      -0.018   1.503   0.010  0.00  0.00    +0.063 C 
ATOM     18  C   UNL     1       0.002  -0.004   0.002  0.00  0.00    +0.021 A 
ATOM     19  N   UNL     1      -1.167  -0.710   0.004  0.00  0.00    -0.330 N 
ATOM     20  C   UNL     1      -1.149  -2.071  -0.004  0.00  0.00    +0.216 A 
ATOM     21  N   UNL     1      -0.012  -2.737  -0.013  0.00  0.00    -0.176 NA
ATOM     22  C   UNL     1       1.161  -2.089  -0.015  0.00  0.00    +0.275 A 
ATOM     23  O   UNL     1       2.210  -2.715  -0.024  0.00  0.00    -0.266 OA
ATOM     24  C   UNL     1       1.176  -0.670  -0.013  0.00  0.00    +0.093 A 
ATOM     25  N   UNL     1      -2.332  -2.759  -0.002  0.00  0.00    -0.207 N 
ATOM     26  H   UNL     1      -3.174  -2.276   0.005  0.00  0.00    +0.177 HD
ATOM     27  H   UNL     1      -2.014  -0.239   0.011  0.00  0.00    +0.168 HD
ENDBRANCH  15  25
ENDBRANCH   1  16
TORSDOF 3
