REMARK  Name = ZINC39585375
REMARK  9 active torsions:
REMARK  status: ('A' for Active; 'I' for Inactive)
REMARK    1  A    between atoms: C_1  and  C_2
REMARK    2  A    between atoms: C_4  and  C_11
REMARK    3  A    between atoms: C_7  and  N_8
REMARK    4  A    between atoms: C_11  and  O_13
REMARK    5  A    between atoms: O_13  and  C_14
REMARK    6  A    between atoms: C_14  and  C_16
REMARK    7  A    between atoms: C_14  and  C_17
REMARK    8  A    between atoms: N_19  and  C_20
REMARK    9  A    between atoms: C_20  and  C_26
REMARK                            x       y       z     vdW  Elec       q    Type
REMARK                         _______ _______ _______ _____ _____    ______ ____
ROOT
ATOM      1  C   UNL     1      -0.049  -4.789  -3.780  0.00  0.00    +0.259 C 
ATOM      2  C   UNL     1       1.293  -4.738  -4.513  0.00  0.00    +0.062 C 
ENDROOT
BRANCH   1   3
ATOM      3  C   UNL     1      -0.453  -6.226  -3.571  0.00  0.00    +0.255 C 
ATOM      4  O   UNL     1      -0.618  -6.652  -2.448  0.00  0.00    -0.272 OA
ATOM      5  N   UNL     1      -0.631  -7.038  -4.633  0.00  0.00    -0.294 N 
ATOM      6  H   UNL     1      -0.498  -6.697  -5.531  0.00  0.00    +0.150 HD
BRANCH   5   7
ATOM      7  C   UNL     1      -1.023  -8.434  -4.429  0.00  0.00    +0.121 C 
ATOM      8  C   UNL     1       0.042  -9.147  -3.593  0.00  0.00    +0.041 C 
ATOM      9  C   UNL     1      -0.368 -10.606  -3.381  0.00  0.00    +0.003 C 
ATOM     10  C   UNL     1      -0.501 -11.301  -4.738  0.00  0.00    +0.000 C 
ATOM     11  C   UNL     1      -1.566 -10.588  -5.574  0.00  0.00    +0.003 C 
ATOM     12  C   UNL     1      -1.156  -9.129  -5.786  0.00  0.00    +0.041 C 
BRANCH   7  13
ATOM     13  C   UNL     1      -2.314  -8.483  -3.724  0.00  0.00    +0.088 C 
ATOM     14  N   UNL     1      -3.311  -8.521  -3.180  0.00  0.00    -0.194 NA
ENDBRANCH   7  13
ENDBRANCH   5   7
ENDBRANCH   1   3
BRANCH   1  15
ATOM     15  O   UNL     1       0.075  -4.140  -2.513  0.00  0.00    -0.449 OA
BRANCH  15  16
ATOM     16  C   UNL     1      -0.187  -2.819  -2.474  0.00  0.00    +0.340 C 
ATOM     17  O   UNL     1      -0.511  -2.235  -3.488  0.00  0.00    -0.245 OA
BRANCH  16  21
ATOM     18  C   UNL     1      -0.538   1.447   0.089  0.00  0.00    +0.046 C 
ATOM     19  C   UNL     1      -0.247  -0.031   0.040  0.00  0.00    -0.019 A 
ATOM     20  C   UNL     1      -0.349  -0.713  -1.155  0.00  0.00    +0.020 A 
ATOM     21  C   UNL     1      -0.079  -2.082  -1.199  0.00  0.00    +0.059 A 
ATOM     22  C   UNL     1       0.293  -2.752  -0.031  0.00  0.00    +0.017 A 
ATOM     23  C   UNL     1       0.392  -2.057   1.157  0.00  0.00    +0.034 A 
ATOM     24  C   UNL     1       0.127  -0.699   1.192  0.00  0.00    +0.129 A 
BRANCH  24  25
ATOM     25  N   UNL     1       0.240   0.041   2.469  0.00  0.00    +0.057 N 
ATOM     26  O   UNL     1       0.674   1.169   2.477  0.00  0.00    -0.126 OA
ATOM     27  O   UNL     1      -0.101  -0.484   3.503  0.00  0.00    -0.126 OA
ENDBRANCH  24  25
ENDBRANCH  16  21
ENDBRANCH  15  16
ENDBRANCH   1  15
TORSDOF 7
