REMARK  Name = ZINC26772759
REMARK  13 active torsions:
REMARK  status: ('A' for Active; 'I' for Inactive)
REMARK    1  A    between atoms: C_1  and  C_2
REMARK    2  A    between atoms: C_2  and  C_3
REMARK    3  A    between atoms: C_2  and  C_4
REMARK    4  A    between atoms: C_4  and  C_6
REMARK    5  A    between atoms: C_4  and  N_23
REMARK    6  A    between atoms: N_8  and  N_9
REMARK    7  A    between atoms: C_10  and  C_12
REMARK    8  A    between atoms: C_12  and  C_13
REMARK    9  A    between atoms: C_24  and  C_26
REMARK   10  A    between atoms: C_28  and  O_34
REMARK   11  A    between atoms: C_30  and  O_32
REMARK   12  A    between atoms: O_32  and  C_33
REMARK   13  A    between atoms: O_34  and  C_35
REMARK                            x       y       z     vdW  Elec       q    Type
REMARK                         _______ _______ _______ _____ _____    ______ ____
ROOT
ATOM      1  C   UNL     1      -8.002   1.699   2.944  0.00  0.00    +0.250 C 
ATOM      2  O   UNL     1      -8.419   0.937   2.098  0.00  0.00    -0.272 OA
ATOM      3  N   UNL     1      -6.841   2.355   2.748  0.00  0.00    -0.233 N 
ATOM      4  H   UNL     1      -6.506   3.110   3.474  0.00  0.00    +0.173 HD
ENDROOT
BRANCH   3   5
ATOM      5  N   UNL     1      -6.060   2.074   1.619  0.00  0.00    -0.234 N 
ATOM      6  C   UNL     1      -4.899   2.729   1.422  0.00  0.00    +0.230 C 
ATOM      7  O   UNL     1      -4.530   3.562   2.223  0.00  0.00    -0.274 OA
ATOM      8  H   UNL     1      -6.395   1.319   0.892  0.00  0.00    +0.173 HD
BRANCH   6   9
ATOM      9  C   UNL     1      -4.059   2.427   0.208  0.00  0.00    +0.104 C 
BRANCH   9  10
ATOM     10  C   UNL     1      -2.804   3.302   0.225  0.00  0.00    -0.020 C 
ATOM     11  C   UNL     1      -1.952   2.995  -1.008  0.00  0.00    +0.011 C 
ATOM     12  C   UNL     1      -0.696   3.870  -0.990  0.00  0.00    -0.010 C 
ATOM     13  C   UNL     1       0.112   3.576   0.275  0.00  0.00    +0.007 C 
ATOM     14  C   UNL     1      -0.740   3.882   1.508  0.00  0.00    -0.010 C 
ATOM     15  C   UNL     1      -1.995   3.008   1.490  0.00  0.00    +0.011 C 
ATOM     16  C   UNL     1      -1.146   5.358   1.493  0.00  0.00    +0.007 C 
ATOM     17  C   UNL     1      -1.955   5.652   0.228  0.00  0.00    -0.010 C 
ATOM     18  C   UNL     1      -1.102   5.345  -1.005  0.00  0.00    +0.007 C 
ATOM     19  C   UNL     1      -3.210   4.777   0.211  0.00  0.00    +0.011 C 
ENDBRANCH   9  10
ENDBRANCH   6   9
ENDBRANCH   3   5
BRANCH   1  20
ATOM     20  C   UNL     1      -8.783   1.914   4.215  0.00  0.00    +0.163 C 
BRANCH  20  21
ATOM     21  N   UNL     1     -10.150   1.421   4.037  0.00  0.00    -0.300 N 
ATOM     22  C   UNL     1     -11.151   1.924   4.786  0.00  0.00    +0.245 C 
ATOM     23  O   UNL     1     -10.919   2.788   5.609  0.00  0.00    -0.270 OA
ATOM     24  H   UNL     1     -10.361   0.639   3.292  0.00  0.00    +0.150 HD
BRANCH  22  25
ATOM     25  C   UNL     1     -12.532   1.426   4.607  0.00  0.00    +0.044 A 
ATOM     26  C   UNL     1     -12.802   0.439   3.659  0.00  0.00    +0.059 A 
ATOM     27  C   UNL     1     -14.095  -0.029   3.498  0.00  0.00    +0.124 A 
ATOM     28  C   UNL     1     -15.124   0.491   4.270  0.00  0.00    +0.091 A 
ATOM     29  C   UNL     1     -14.861   1.477   5.210  0.00  0.00    +0.124 A 
ATOM     30  C   UNL     1     -13.569   1.946   5.381  0.00  0.00    +0.059 A 
BRANCH  29  31
ATOM     31  O   UNL     1     -15.873   1.982   5.964  0.00  0.00    -0.495 OA
ATOM     32  C   UNL     1     -17.180   1.453   5.735  0.00  0.00    +0.277 C 
ENDBRANCH  29  31
BRANCH  27  33
ATOM     33  O   UNL     1     -14.358  -0.995   2.579  0.00  0.00    -0.495 OA
ATOM     34  C   UNL     1     -15.716  -1.427   2.461  0.00  0.00    +0.277 C 
ENDBRANCH  27  33
ENDBRANCH  22  25
ENDBRANCH  20  21
BRANCH  20  36
ATOM     35  C   UNL     1      -8.854   1.441   6.667  0.00  0.00    +0.009 C 
ATOM     36  C   UNL     1      -8.111   1.154   5.361  0.00  0.00    +0.012 C 
ATOM     37  C   UNL     1      -8.152  -0.348   5.070  0.00  0.00    +0.009 C 
ENDBRANCH  20  36
ENDBRANCH   1  20
TORSDOF 9
