REMARK  Name = ZINC09701787
REMARK  8 active torsions:
REMARK  status: ('A' for Active; 'I' for Inactive)
REMARK    1  A    between atoms: C_2  and  C_3
REMARK    2  A    between atoms: C_3  and  N_4
REMARK    3  A    between atoms: C_10  and  C_15
REMARK    4  A    between atoms: C_15  and  O_17
REMARK    5  A    between atoms: O_17  and  C_18
REMARK    6  A    between atoms: C_18  and  C_19
REMARK    7  A    between atoms: N_21  and  C_22
REMARK    8  A    between atoms: C_23  and  C_31
REMARK                            x       y       z     vdW  Elec       q    Type
REMARK                         _______ _______ _______ _____ _____    ______ ____
ROOT
ATOM      1  C   UNL     1       1.401   9.738   0.038  0.00  0.00    +0.328 C 
ENDROOT
BRANCH   1   2
ATOM      2  C   UNL     1       0.461  10.916   0.052  0.00  0.00    +0.255 C 
ATOM      3  O   UNL     1      -0.738  10.735   0.063  0.00  0.00    -0.272 OA
ATOM      4  N   UNL     1       0.953  12.171   0.054  0.00  0.00    -0.277 N 
ATOM      5  H   UNL     1       1.912  12.316   0.045  0.00  0.00    +0.155 HD
BRANCH   4   6
ATOM      6  C   UNL     1       0.088  13.254   0.067  0.00  0.00    +0.084 A 
ATOM      7  C   UNL     1       0.401  14.607   0.077  0.00  0.00    +0.068 A 
ATOM      8  C   UNL     1      -0.704  15.551   0.087  0.00  0.00    -0.023 A 
ATOM      9  C   UNL     1      -1.935  14.995   0.097  0.00  0.00    -0.004 A 
ATOM     10  S   UNL     1      -1.644  13.249   0.085  0.00  0.00    -0.077 S 
ATOM     11  C   UNL     1      -3.250  15.713   0.115  0.00  0.00    +0.043 C 
ATOM     12  C   UNL     1      -2.995  17.178   0.498  0.00  0.00    +0.005 C 
ATOM     13  C   UNL     1      -1.837  17.716  -0.347  0.00  0.00    +0.005 C 
ATOM     14  C   UNL     1      -0.525  17.064   0.093  0.00  0.00    +0.037 C 
BRANCH   7  15
ATOM     15  C   UNL     1       1.793  15.065   0.072  0.00  0.00    +0.244 C 
ATOM     16  O   UNL     1       2.364  15.265  -0.984  0.00  0.00    -0.270 OA
ATOM     17  N   UNL     1       2.440  15.266   1.237  0.00  0.00    -0.325 N 
ATOM     18  H   UNL     1       1.985  15.107   2.078  0.00  0.00    +0.145 HD
ATOM     19  H   UNL     1       3.362  15.570   1.234  0.00  0.00    +0.145 HD
ENDBRANCH   7  15
ENDBRANCH   4   6
ENDBRANCH   1   2
BRANCH   1  20
ATOM     20  O   UNL     1       0.633   8.506   0.039  0.00  0.00    -0.452 OA
BRANCH  20  21
ATOM     21  C   UNL     1       1.328   7.352   0.027  0.00  0.00    +0.340 C 
ATOM     22  O   UNL     1       2.542   7.375   0.015  0.00  0.00    -0.245 OA
BRANCH  21  29
ATOM     23  N   UNL     1      -0.018   1.461   0.010  0.00  0.00    -0.230 N 
ATOM     24  C   UNL     1      -1.137   2.206   0.019  0.00  0.00    +0.254 C 
ATOM     25  O   UNL     1      -2.274   1.779   0.021  0.00  0.00    -0.270 OA
ATOM     26  C   UNL     1      -0.751   3.636   0.028  0.00  0.00    +0.049 A 
ATOM     27  C   UNL     1      -1.460   4.826   0.040  0.00  0.00    +0.014 A 
ATOM     28  C   UNL     1      -0.783   6.034   0.040  0.00  0.00    +0.016 A 
ATOM     29  C   UNL     1       0.612   6.058   0.027  0.00  0.00    +0.060 A 
ATOM     30  C   UNL     1       1.335   4.861   0.015  0.00  0.00    +0.028 A 
ATOM     31  C   UNL     1       0.659   3.653   0.015  0.00  0.00    +0.050 A 
ATOM     32  C   UNL     1       1.081   2.237   0.004  0.00  0.00    +0.254 C 
ATOM     33  O   UNL     1       2.229   1.839  -0.009  0.00  0.00    -0.270 OA
BRANCH  23  34
ATOM     34  C   UNL     1       0.002  -0.004   0.002  0.00  0.00    +0.143 C 
BRANCH  34  36
ATOM     35  C   UNL     1      -0.892  -1.361   1.825  0.00  0.00    +0.005 C 
ATOM     36  C   UNL     1       0.022  -0.514   1.420  0.00  0.00    -0.015 C 
ENDBRANCH  34  36
ENDBRANCH  23  34
ENDBRANCH  21  29
ENDBRANCH  20  21
ENDBRANCH   1  20
TORSDOF 8
