REMARK  Name = ZINC12596313
REMARK  5 active torsions:
REMARK  status: ('A' for Active; 'I' for Inactive)
REMARK    1  A    between atoms: C_3  and  C_12
REMARK    2  A    between atoms: C_12  and  N_53
REMARK    3  A    between atoms: C_13  and  C_14
REMARK    4  A    between atoms: C_13  and  N_53
REMARK    5  A    between atoms: C_17  and  C_19
REMARK                            x       y       z     vdW  Elec       q    Type
REMARK                         _______ _______ _______ _____ _____    ______ ____
ROOT
ATOM      1  N   UNL     1       0.124   5.816  -1.306  0.00  0.00    +0.386 N 
ATOM      2  H   UNL     1      -0.728   5.571  -1.824  0.00  0.00    -0.085 HD
ATOM      3  H   UNL     1       0.937   5.387  -1.763  0.00  0.00    -0.085 HD
ENDROOT
BRANCH   1   4
ATOM      4  C   UNL     1       0.017   5.308   0.075  0.00  0.00    -0.043 C 
BRANCH   4   7
ATOM      5  C   UNL     1      -1.445   1.830   0.172  0.00  0.00    +0.018 A 
ATOM      6  C   UNL     1      -1.361   3.215   0.218  0.00  0.00    +0.006 A 
ATOM      7  C   UNL     1      -0.124   3.808   0.039  0.00  0.00    -0.026 A 
ATOM      8  C   UNL     1       0.989   3.000  -0.173  0.00  0.00    +0.100 A 
ATOM      9  C   UNL     1      -0.299   1.089  -0.037  0.00  0.00    +0.084 A 
ATOM     10  N   UNL     1       2.238   3.581  -0.355  0.00  0.00    -0.312 N 
ATOM     11  C   UNL     1       2.825   3.179  -1.641  0.00  0.00    +0.134 C 
ATOM     12  C   UNL     1       4.169   3.887  -1.827  0.00  0.00    +0.178 C 
ATOM     13  O   UNL     1       5.022   3.577  -0.722  0.00  0.00    -0.377 OA
ATOM     14  C   UNL     1       4.482   3.956   0.547  0.00  0.00    +0.178 C 
ATOM     15  C   UNL     1       3.141   3.248   0.756  0.00  0.00    +0.134 C 
ATOM     16  N   UNL     1       0.932   1.637  -0.217  0.00  0.00    -0.349 N 
ATOM     17  H   UNL     1       1.768   1.061  -0.376  0.00  0.00    +0.167 HD
ENDBRANCH   4   7
ENDBRANCH   1   4
BRANCH   1  18
ATOM     18  C   UNL     1       0.285   7.282  -1.301  0.00  0.00    -0.006 C 
BRANCH  18  19
ATOM     19  C   UNL     1       0.392   7.772  -2.722  0.00  0.00    +0.089 A 
ATOM     20  C   UNL     1      -0.637   8.143  -3.505  0.00  0.00    +0.043 A 
ATOM     21  C   UNL     1      -0.087   8.532  -4.748  0.00  0.00    +0.047 A 
ATOM     22  C   UNL     1       1.245   8.368  -4.652  0.00  0.00    +0.134 A 
ATOM     23  O   UNL     1       1.529   7.908  -3.423  0.00  0.00    -0.464 OA
BRANCH  22  24
ATOM     24  C   UNL     1       2.248   8.654  -5.740  0.00  0.00    +0.184 C 
ATOM     25  C   UNL     1       2.551   7.364  -6.507  0.00  0.00    +0.039 C 
ATOM     26  C   UNL     1       3.615   7.649  -7.571  0.00  0.00    +0.005 C 
ATOM     27  C   UNL     1       4.860   8.226  -6.890  0.00  0.00    +0.028 C 
ATOM     28  C   UNL     1       4.468   9.482  -6.108  0.00  0.00    +0.161 C 
ATOM     29  O   UNL     1       3.454   9.153  -5.158  0.00  0.00    -0.369 OA
ENDBRANCH  22  24
ENDBRANCH  18  19
ENDBRANCH   1  18
TORSDOF 5
