REMARK  Name = ZINC00683380
REMARK  5 active torsions:
REMARK  status: ('A' for Active; 'I' for Inactive)
REMARK    1  A    between atoms: C_1  and  C_2
REMARK    2  A    between atoms: C_2  and  C_25
REMARK    3  A    between atoms: C_13  and  S_16
REMARK    4  A    between atoms: S_16  and  C_17
REMARK    5  A    between atoms: C_17  and  C_18
REMARK                            x       y       z     vdW  Elec       q    Type
REMARK                         _______ _______ _______ _____ _____    ______ ____
ROOT
ATOM      1  C   UNL     1      10.444  -3.454  -4.548  0.00  0.00    +0.078 C 
ATOM      2  C   UNL     1       9.579  -2.619  -3.602  0.00  0.00    +0.172 C 
ATOM      3  N   UNL     1      10.325  -2.368  -2.373  0.00  0.00    -0.307 N 
ATOM      4  C   UNL     1      10.442  -3.399  -1.436  0.00  0.00    +0.039 A 
ATOM      5  C   UNL     1      11.655  -4.018  -1.194  0.00  0.00    +0.023 A 
ATOM      6  C   UNL     1      11.732  -5.047  -0.273  0.00  0.00    +0.002 A 
ATOM      7  C   UNL     1      10.601  -5.463   0.409  0.00  0.00    +0.001 A 
ATOM      8  C   UNL     1       9.384  -4.850   0.184  0.00  0.00    +0.012 A 
ATOM      9  C   UNL     1       9.294  -3.810  -0.733  0.00  0.00    +0.028 A 
ATOM     10  C   UNL     1       8.018  -3.110  -0.988  0.00  0.00    +0.156 A 
ATOM     11  C   UNL     1       7.600  -2.881  -2.319  0.00  0.00    +0.248 A 
ATOM     12  N   UNL     1       6.460  -2.245  -2.526  0.00  0.00    -0.184 NA
ATOM     13  C   UNL     1       5.740  -1.842  -1.482  0.00  0.00    +0.213 A 
ATOM     14  N   UNL     1       6.152  -2.066  -0.240  0.00  0.00    -0.122 NA
ATOM     15  N   UNL     1       7.254  -2.685   0.007  0.00  0.00    -0.141 NA
ATOM     16  O   UNL     1       8.363  -3.314  -3.350  0.00  0.00    -0.451 OA
ATOM     17  C   UNL     1       9.259  -1.281  -4.272  0.00  0.00    +0.078 C 
ATOM     18  H   UNL     1      10.732  -1.503  -2.209  0.00  0.00    +0.150 HD
ENDROOT
BRANCH  13  19
ATOM     19  S   UNL     1       4.221  -0.993  -1.752  0.00  0.00    -0.080 S 
BRANCH  19  20
ATOM     20  C   UNL     1       3.711  -0.707  -0.039  0.00  0.00    +0.112 C 
BRANCH  20  21
ATOM     21  C   UNL     1       2.396   0.029  -0.022  0.00  0.00    -0.037 A 
ATOM     22  C   UNL     1       1.208  -0.679  -0.014  0.00  0.00    +0.004 A 
ATOM     23  C   UNL     1       0.002  -0.004   0.002  0.00  0.00    +0.000 A 
ATOM     24  C   UNL     1      -0.017   1.378   0.010  0.00  0.00    +0.000 A 
ATOM     25  C   UNL     1       1.171   2.086   0.002  0.00  0.00    +0.000 A 
ATOM     26  C   UNL     1       2.377   1.411  -0.014  0.00  0.00    +0.004 A 
ENDBRANCH  20  21
ENDBRANCH  19  20
ENDBRANCH  13  19
TORSDOF 3
