REMARK  Name = ZINC66887803
REMARK  7 active torsions:
REMARK  status: ('A' for Active; 'I' for Inactive)
REMARK    1  A    between atoms: C_1  and  N_2
REMARK    2  A    between atoms: N_2  and  C_3
REMARK    3  A    between atoms: C_6  and  N_9
REMARK    4  A    between atoms: C_10  and  C_11
REMARK    5  A    between atoms: C_16  and  O_17
REMARK    6  A    between atoms: C_19  and  O_21
REMARK    7  A    between atoms: O_21  and  C_22
REMARK                            x       y       z     vdW  Elec       q    Type
REMARK                         _______ _______ _______ _____ _____    ______ ____
ROOT
ATOM      1  C   UNL     1       0.026  -0.713   1.208  0.00  0.00    +0.039 A 
ATOM      2  C   UNL     1       0.129  -0.028   2.413  0.00  0.00    +0.026 A 
ATOM      3  C   UNL     1       0.154  -0.723   3.602  0.00  0.00    +0.029 A 
ATOM      4  C   UNL     1       0.075  -2.118   3.596  0.00  0.00    +0.064 A 
ATOM      5  C   UNL     1      -0.028  -2.803   2.383  0.00  0.00    +0.029 A 
ATOM      6  C   UNL     1      -0.058  -2.101   1.198  0.00  0.00    +0.026 A 
ENDROOT
BRANCH   1   8
ATOM      7  C   UNL     1       1.120  -0.118  -0.938  0.00  0.00    +0.142 C 
ATOM      8  N   UNL     1       0.002  -0.004   0.002  0.00  0.00    -0.240 N 
ATOM      9  C   UNL     1      -1.050   0.784  -0.295  0.00  0.00    +0.407 C 
ATOM     10  O   UNL     1      -1.934   0.952   0.522  0.00  0.00    -0.226 OA
BRANCH   9  11
ATOM     11  O   UNL     1      -1.122   1.386  -1.497  0.00  0.00    -0.453 OA
ATOM     12  C   UNL     1      -2.265   2.208  -1.744  0.00  0.00    +0.282 C 
ENDBRANCH   9  11
ENDBRANCH   1   8
BRANCH   4  13
ATOM     13  N   UNL     1       0.100  -2.812   4.775  0.00  0.00    -0.255 NA
ATOM     14  C   UNL     1      -0.744  -3.784   4.977  0.00  0.00    +0.123 C 
BRANCH  14  15
ATOM     15  C   UNL     1      -0.718  -4.530   6.245  0.00  0.00    +0.036 A 
ATOM     16  C   UNL     1      -1.618  -5.578   6.463  0.00  0.00    +0.033 A 
ATOM     17  C   UNL     1      -1.587  -6.272   7.654  0.00  0.00    +0.042 A 
ATOM     18  C   UNL     1      -0.667  -5.936   8.636  0.00  0.00    +0.023 A 
ATOM     19  C   UNL     1       0.227  -4.904   8.432  0.00  0.00    +0.047 A 
ATOM     20  C   UNL     1       0.215  -4.198   7.239  0.00  0.00    +0.126 A 
ATOM     21 CL   UNL     1      -2.704  -7.573   7.925  0.00  0.00    -0.084 Cl
BRANCH  20  22
ATOM     22  O   UNL     1       1.097  -3.186   7.036  0.00  0.00    -0.506 OA
ATOM     23  H   UNL     1       0.777  -2.321   7.326  0.00  0.00    +0.292 HD
ENDBRANCH  20  22
ENDBRANCH  14  15
ENDBRANCH   4  13
TORSDOF 5
