REMARK  Name = ZINC41022285
REMARK  8 active torsions:
REMARK  status: ('A' for Active; 'I' for Inactive)
REMARK    1  A    between atoms: C_6  and  C_7
REMARK    2  A    between atoms: C_10  and  C_12
REMARK    3  A    between atoms: C_12  and  C_13
REMARK    4  A    between atoms: C_13  and  C_14
REMARK    5  A    between atoms: N_16  and  C_17
REMARK    6  A    between atoms: C_20  and  S_23
REMARK    7  A    between atoms: S_23  and  N_26
REMARK    8  A    between atoms: N_26  and  C_27
REMARK                            x       y       z     vdW  Elec       q    Type
REMARK                         _______ _______ _______ _____ _____    ______ ____
ROOT
ATOM      1  C   UNL     1      -4.121  -5.619  -1.420  0.00  0.00    +0.218 C 
ATOM      2  O   UNL     1      -4.348  -6.179  -0.369  0.00  0.00    -0.275 OA
ATOM      3  N   UNL     1      -4.398  -6.235  -2.586  0.00  0.00    -0.285 N 
ATOM      4  H   UNL     1      -4.279  -5.762  -3.425  0.00  0.00    +0.155 HD
ENDROOT
BRANCH   3   5
ATOM      5  C   UNL     1      -4.856  -7.557  -2.587  0.00  0.00    +0.033 A 
ATOM      6  C   UNL     1      -4.475  -8.425  -3.602  0.00  0.00    +0.025 A 
ATOM      7  C   UNL     1      -4.930  -9.729  -3.600  0.00  0.00    +0.031 A 
ATOM      8  C   UNL     1      -5.763 -10.171  -2.589  0.00  0.00    +0.111 A 
ATOM      9  C   UNL     1      -6.145  -9.309  -1.577  0.00  0.00    +0.031 A 
ATOM     10  C   UNL     1      -5.689  -8.006  -1.570  0.00  0.00    +0.025 A 
BRANCH   8  11
ATOM     11  S   UNL     1      -6.340 -11.836  -2.590  0.00  0.00    +0.093 S 
ATOM     12  O   UNL     1      -7.544 -11.849  -1.835  0.00  0.00    -0.148 OA
ATOM     13  O   UNL     1      -6.282 -12.285  -3.937  0.00  0.00    -0.148 OA
BRANCH  11  14
ATOM     14  N   UNL     1      -5.240 -12.737  -1.742  0.00  0.00    -0.070 NA
BRANCH  14  15
ATOM     15  C   UNL     1      -5.438 -14.099  -1.579  0.00  0.00    +0.201 A 
ATOM     16  N   UNL     1      -6.428 -14.841  -2.026  0.00  0.00    -0.231 NA
ATOM     17  C   UNL     1      -6.472 -16.139  -1.783  0.00  0.00    +0.120 A 
ATOM     18  C   UNL     1      -5.456 -16.664  -1.056  0.00  0.00    +0.068 A 
ATOM     19  S   UNL     1      -4.466 -15.207  -0.765  0.00  0.00    -0.058 S 
ENDBRANCH  14  15
ENDBRANCH  11  14
ENDBRANCH   8  11
ENDBRANCH   3   5
BRANCH   1  20
ATOM     20  C   UNL     1      -3.529  -4.233  -1.422  0.00  0.00    +0.105 C 
BRANCH  20  21
ATOM     21  C   UNL     1      -3.313  -3.768   0.019  0.00  0.00    +0.105 C 
BRANCH  21  25
ATOM     22  C   UNL     1      -1.286  -0.750   0.006  0.00  0.00    +0.155 A 
ATOM     23  C   UNL     1      -2.543  -0.237   0.022  0.00  0.00    +0.161 A 
ATOM     24  N   UNL     1      -3.400  -1.269   0.028  0.00  0.00    -0.221 NA
ATOM     25  C   UNL     1      -2.721  -2.382   0.017  0.00  0.00    +0.197 A 
ATOM     26  O   UNL     1      -1.412  -2.095  -0.002  0.00  0.00    -0.440 OA
BRANCH  22  32
ATOM     27  C   UNL     1      -0.049   1.412   0.004  0.00  0.00    +0.014 A 
ATOM     28  C   UNL     1       1.134   2.122  -0.007  0.00  0.00    +0.039 A 
ATOM     29  C   UNL     1       2.347   1.452  -0.029  0.00  0.00    +0.123 A 
ATOM     30  C   UNL     1       2.379   0.067  -0.040  0.00  0.00    +0.039 A 
ATOM     31  C   UNL     1       1.203  -0.653  -0.028  0.00  0.00    +0.014 A 
ATOM     32  C   UNL     1      -0.022   0.016  -0.006  0.00  0.00    +0.019 A 
ATOM     33  F   UNL     1       3.502   2.152  -0.041  0.00  0.00    -0.205 F 
ENDBRANCH  22  32
ENDBRANCH  21  25
ENDBRANCH  20  21
ENDBRANCH   1  20
TORSDOF 8
