REMARK  Name = ZINC08968422
REMARK  10 active torsions:
REMARK  status: ('A' for Active; 'I' for Inactive)
REMARK    1  A    between atoms: C_3  and  S_6
REMARK    2  A    between atoms: S_6  and  C_9
REMARK    3  A    between atoms: C_9  and  C_11
REMARK    4  A    between atoms: C_9  and  C_27
REMARK    5  A    between atoms: C_11  and  N_12
REMARK    6  A    between atoms: C_13  and  C_15
REMARK    7  A    between atoms: N_17  and  C_18
REMARK    8  A    between atoms: C_18  and  C_19
REMARK    9  A    between atoms: C_19  and  C_20
REMARK   10  A    between atoms: C_23  and  O_26
REMARK                            x       y       z     vdW  Elec       q    Type
REMARK                         _______ _______ _______ _____ _____    ______ ____
ROOT
ATOM      1  N   UNL     1       1.245  -6.985  -3.822  0.00  0.00    -0.305 N 
ATOM      2  C   UNL     1       1.248  -6.317  -2.652  0.00  0.00    +0.299 C 
ATOM      3  O   UNL     1       1.266  -6.929  -1.604  0.00  0.00    -0.265 OA
ATOM      4  H   UNL     1       1.231  -6.496  -4.660  0.00  0.00    +0.149 HD
ENDROOT
BRANCH   2   5
ATOM      5  C   UNL     1       1.231  -4.823  -2.644  0.00  0.00    +0.299 C 
ATOM      6  O   UNL     1       1.214  -4.211  -3.692  0.00  0.00    -0.265 OA
ATOM      7  N   UNL     1       1.234  -4.155  -1.474  0.00  0.00    -0.307 N 
ATOM      8  H   UNL     1       1.248  -4.644  -0.636  0.00  0.00    +0.149 HD
BRANCH   7   9
ATOM      9  C   UNL     1       1.217  -2.690  -1.466  0.00  0.00    +0.109 C 
BRANCH   9  10
ATOM     10  C   UNL     1       1.226  -2.187  -0.021  0.00  0.00    +0.054 C 
BRANCH  10  11
ATOM     11  C   UNL     1       1.208  -0.680  -0.013  0.00  0.00    -0.046 A 
ATOM     12  C   UNL     1       0.002  -0.004   0.002  0.00  0.00    +0.007 A 
ATOM     13  C   UNL     1      -0.017   1.377   0.010  0.00  0.00    +0.045 A 
ATOM     14  C   UNL     1       1.176   2.086   0.002  0.00  0.00    +0.117 A 
ATOM     15  C   UNL     1       2.385   1.405  -0.013  0.00  0.00    +0.045 A 
ATOM     16  C   UNL     1       2.398   0.024  -0.021  0.00  0.00    +0.007 A 
BRANCH  14  17
ATOM     17  O   UNL     1       1.160   3.445   0.009  0.00  0.00    -0.507 OA
ATOM     18  H   UNL     1       1.164   3.834   0.894  0.00  0.00    +0.292 HD
ENDBRANCH  14  17
ENDBRANCH  10  11
ENDBRANCH   9  10
ENDBRANCH   7   9
ENDBRANCH   2   5
BRANCH   1  19
ATOM     19  C   UNL     1       1.262  -8.450  -3.830  0.00  0.00    +0.136 C 
BRANCH  19  20
ATOM     20  C   UNL     1       1.254  -8.953  -5.275  0.00  0.00    +0.183 C 
BRANCH  20  21
ATOM     21  C   UNL     1       1.271 -10.459  -5.283  0.00  0.00    -0.021 A 
ATOM     22  C   UNL     1       0.251 -11.165  -4.673  0.00  0.00    +0.008 A 
ATOM     23  C   UNL     1       0.263 -12.547  -4.684  0.00  0.00    +0.038 A 
ATOM     24  C   UNL     1       1.304 -13.225  -5.296  0.00  0.00    +0.123 A 
ATOM     25  C   UNL     1       2.328 -12.517  -5.902  0.00  0.00    +0.038 A 
ATOM     26  C   UNL     1       2.310 -11.135  -5.895  0.00  0.00    +0.008 A 
ATOM     27  F   UNL     1       1.320 -14.576  -5.303  0.00  0.00    -0.205 F 
ENDBRANCH  20  21
BRANCH  20  28
ATOM     28  S   UNL     1      -0.243  -8.361  -6.113  0.00  0.00    +0.011 S 
ATOM     29  O   UNL     1      -0.365  -6.954  -5.959  0.00  0.00    -0.168 OA
ATOM     30  O   UNL     1      -0.356  -8.962  -7.395  0.00  0.00    -0.168 OA
BRANCH  28  33
ATOM     31  C   UNL     1      -3.261  -9.217  -3.538  0.00  0.00    +0.009 A 
ATOM     32  C   UNL     1      -2.227  -8.505  -4.114  0.00  0.00    +0.035 A 
ATOM     33  C   UNL     1      -1.579  -9.033  -5.181  0.00  0.00    +0.126 A 
ATOM     34  S   UNL     1      -2.426 -10.590  -5.393  0.00  0.00    -0.078 S 
ATOM     35  C   UNL     1      -3.590 -10.428  -4.050  0.00  0.00    +0.047 A 
ENDBRANCH  28  33
ENDBRANCH  20  28
ENDBRANCH  19  20
ENDBRANCH   1  19
TORSDOF 10
