REMARK  Name = ZINC05727749
REMARK  9 active torsions:
REMARK  status: ('A' for Active; 'I' for Inactive)
REMARK    1  A    between atoms: C_1  and  C_2
REMARK    2  A    between atoms: C_2  and  C_29
REMARK    3  A    between atoms: C_4  and  C_9
REMARK    4  A    between atoms: C_9  and  C_12
REMARK    5  A    between atoms: N_10  and  O_11
REMARK    6  A    between atoms: C_12  and  C_13
REMARK    7  A    between atoms: C_20  and  O_21
REMARK    8  A    between atoms: O_21  and  C_22
REMARK    9  A    between atoms: C_28  and  N_58
REMARK                            x       y       z     vdW  Elec       q    Type
REMARK                         _______ _______ _______ _____ _____    ______ ____
ROOT
ATOM      1  C   UNL     1      -3.356   5.541   1.580  0.00  0.00    -0.028 C 
ATOM      2  C   UNL     1      -2.907   4.247   0.952  0.00  0.00    -0.012 A 
ATOM      3  C   UNL     1      -3.095   3.986  -0.389  0.00  0.00    -0.040 A 
ATOM      4  C   UNL     1      -2.660   2.785  -0.928  0.00  0.00    +0.053 A 
ATOM      5  C   UNL     1      -2.037   1.840  -0.130  0.00  0.00    +0.170 A 
ATOM      6  C   UNL     1      -1.848   2.098   1.224  0.00  0.00    +0.208 A 
ATOM      7  C   UNL     1      -2.285   3.301   1.760  0.00  0.00    +0.167 A 
ATOM      8  O   UNL     1      -1.216   1.026   1.791  0.00  0.00    -0.449 OA
ATOM      9  C   UNL     1      -0.661   0.284   0.690  0.00  0.00    +0.467 C 
ATOM     10  O   UNL     1      -1.527   0.606  -0.414  0.00  0.00    -0.452 OA
ATOM     11  C   UNL     1      -3.774   4.976  -1.300  0.00  0.00    +0.017 C 
ATOM     12  C   UNL     1      -3.796   6.357  -0.645  0.00  0.00    -0.074 C 
ATOM     13  C   UNL     1      -4.703   7.527   1.274  0.00  0.00    -0.095 C 
ATOM     14  N   UNL     1      -4.349   6.203   0.717  0.00  0.00    +0.383 N 
ATOM     15  H   UNL     1      -5.195   5.622   0.672  0.00  0.00    -0.081 HD
ENDROOT
BRANCH   7  16
ATOM     16  O   UNL     1      -2.103   3.557   3.084  0.00  0.00    -0.491 OA
ATOM     17  C   UNL     1      -0.834   4.085   3.474  0.00  0.00    +0.277 C 
ENDBRANCH   7  16
BRANCH   1  18
ATOM     18  C   UNL     1      -4.000   5.247   2.937  0.00  0.00    +0.044 C 
BRANCH  18  19
ATOM     19  C   UNL     1      -5.080   4.210   2.766  0.00  0.00    +0.059 C 
ATOM     20  N   UNL     1      -5.402   3.808   1.595  0.00  0.00    -0.096 NA
BRANCH  19  24
ATOM     21  C   UNL     1      -8.204   3.104   5.573  0.00  0.00    +0.041 C 
ATOM     22  C   UNL     1      -7.204   4.199   5.951  0.00  0.00    +0.065 C 
ATOM     23  C   UNL     1      -6.559   4.763   4.682  0.00  0.00    +0.044 C 
ATOM     24  C   UNL     1      -5.782   3.647   3.975  0.00  0.00    +0.042 C 
ATOM     25  C   UNL     1      -4.748   3.068   4.945  0.00  0.00    +0.037 C 
ATOM     26  C   UNL     1      -5.462   2.570   6.204  0.00  0.00    +0.161 C 
ATOM     27  O   UNL     1      -6.190   3.649   6.794  0.00  0.00    -0.374 OA
ATOM     28  C   UNL     1      -7.933   5.321   6.694  0.00  0.00    +0.041 C 
ENDBRANCH  19  24
BRANCH  20  29
ATOM     29  O   UNL     1      -6.339   2.758   1.439  0.00  0.00    -0.409 OA
ATOM     30  H   UNL     1      -6.518   2.524   0.518  0.00  0.00    +0.328 HD
ENDBRANCH  20  29
ENDBRANCH  18  19
ENDBRANCH   1  18
TORSDOF 5
