REMARK  Name = ZINC15682763
REMARK  6 active torsions:
REMARK  status: ('A' for Active; 'I' for Inactive)
REMARK    1  A    between atoms: C_1  and  C_2
REMARK    2  A    between atoms: C_2  and  C_4
REMARK    3  A    between atoms: C_2  and  O_15
REMARK    4  A    between atoms: N_6  and  C_7
REMARK    5  A    between atoms: O_15  and  C_16
REMARK    6  A    between atoms: C_19  and  N_22
REMARK                            x       y       z     vdW  Elec       q    Type
REMARK                         _______ _______ _______ _____ _____    ______ ____
ROOT
ATOM      1  C   UNL     1      -4.418  -0.691  -1.500  0.00  0.00    +0.062 C 
ATOM      2  C   UNL     1      -3.709  -1.066  -0.197  0.00  0.00    +0.256 C 
ENDROOT
BRANCH   2   3
ATOM      3  C   UNL     1      -2.412  -0.307  -0.095  0.00  0.00    +0.258 C 
ATOM      4  O   UNL     1      -1.356  -0.905  -0.112  0.00  0.00    -0.271 OA
ATOM      5  N   UNL     1      -2.423   1.036   0.016  0.00  0.00    -0.280 N 
ATOM      6  H   UNL     1      -3.266   1.508   0.112  0.00  0.00    +0.155 HD
BRANCH   5   7
ATOM      7  C   UNL     1      -1.219   1.752  -0.007  0.00  0.00    +0.069 A 
ATOM      8  C   UNL     1      -0.103   1.214  -0.633  0.00  0.00    +0.029 A 
ATOM      9  C   UNL     1       1.083   1.924  -0.660  0.00  0.00    +0.040 A 
ATOM     10  C   UNL     1       1.160   3.168  -0.058  0.00  0.00    +0.126 A 
ATOM     11  C   UNL     1       0.051   3.706   0.572  0.00  0.00    +0.078 A 
ATOM     12  C   UNL     1      -1.138   3.000   0.602  0.00  0.00    +0.147 A 
ATOM     13  F   UNL     1      -2.221   3.524   1.216  0.00  0.00    -0.203 F 
ATOM     14  F   UNL     1       2.321   3.859  -0.086  0.00  0.00    -0.205 F 
ENDBRANCH   5   7
ENDBRANCH   2   3
BRANCH   2  15
ATOM     15  O   UNL     1      -3.442  -2.470  -0.188  0.00  0.00    -0.480 OA
BRANCH  15  16
ATOM     16  C   UNL     1      -4.442  -3.285   0.239  0.00  0.00    +0.122 A 
ATOM     17  C   UNL     1      -5.617  -2.741   0.738  0.00  0.00    +0.048 A 
ATOM     18  C   UNL     1      -6.634  -3.572   1.166  0.00  0.00    +0.036 A 
ATOM     19  C   UNL     1      -6.478  -4.945   1.107  0.00  0.00    +0.126 A 
ATOM     20  C   UNL     1      -5.307  -5.489   0.614  0.00  0.00    +0.036 A 
ATOM     21  C   UNL     1      -4.289  -4.662   0.180  0.00  0.00    +0.048 A 
BRANCH  19  22
ATOM     22  N   UNL     1      -7.567  -5.833   1.572  0.00  0.00    +0.056 N 
ATOM     23  O   UNL     1      -7.431  -7.042   1.520  0.00  0.00    -0.126 OA
ATOM     24  O   UNL     1      -8.600  -5.354   2.006  0.00  0.00    -0.126 OA
ENDBRANCH  19  22
ENDBRANCH  15  16
ENDBRANCH   2  15
TORSDOF 5
