REMARK  Name = ZINC07672523
REMARK  10 active torsions:
REMARK  status: ('A' for Active; 'I' for Inactive)
REMARK    1  A    between atoms: C_1  and  C_2
REMARK    2  A    between atoms: C_2  and  C_3
REMARK    3  A    between atoms: C_3  and  C_5
REMARK    4  A    between atoms: C_3  and  C_6
REMARK    5  A    between atoms: C_6  and  C_7
REMARK    6  A    between atoms: C_8  and  C_29
REMARK    7  A    between atoms: C_16  and  S_18
REMARK    8  A    between atoms: S_18  and  C_19
REMARK    9  A    between atoms: C_19  and  C_20
REMARK   10  A    between atoms: N_25  and  C_26
REMARK                            x       y       z     vdW  Elec       q    Type
REMARK                         _______ _______ _______ _____ _____    ______ ____
ROOT
ATOM      1  C   UNL     1      -5.883  -0.906   0.054  0.00  0.00    -0.023 A 
ATOM      2  C   UNL     1      -6.586   0.236   0.068  0.00  0.00    -0.007 A 
ATOM      3  S   UNL     1      -5.325   1.497   0.062  0.00  0.00    -0.073 S 
ATOM      4  C   UNL     1      -3.891   0.453   0.042  0.00  0.00    +0.117 A 
ATOM      5  C   UNL     1      -4.432  -0.847   0.040  0.00  0.00    +0.075 A 
ATOM      6  C   UNL     1      -3.482  -1.916   0.025  0.00  0.00    +0.261 A 
ATOM      7  O   UNL     1      -3.858  -3.076   0.022  0.00  0.00    -0.267 OA
ATOM      8  N   UNL     1      -2.168  -1.626   0.008  0.00  0.00    -0.301 N 
ATOM      9  H   UNL     1      -1.501  -2.370  -0.010  0.00  0.00    +0.171 HD
ATOM     10  C   UNL     1      -1.729  -0.334   0.017  0.00  0.00    +0.170 A 
ATOM     11  N   UNL     1      -2.582   0.671   0.030  0.00  0.00    -0.216 NA
ATOM     12  C   UNL     1      -8.082   0.412   0.083  0.00  0.00    +0.052 C 
ENDROOT
BRANCH   1  13
ATOM     13  C   UNL     1      -6.592  -2.236   0.054  0.00  0.00    +0.040 C 
BRANCH  13  14
ATOM     14  C   UNL     1      -6.846  -2.679  -1.388  0.00  0.00    -0.010 C 
ATOM     15  C   UNL     1      -7.816  -1.704  -2.057  0.00  0.00    +0.008 C 
BRANCH  14  17
ATOM     16  C   UNL     1      -7.591  -4.576  -2.833  0.00  0.00    +0.004 C 
ATOM     17  C   UNL     1      -7.452  -4.084  -1.391  0.00  0.00    +0.000 C 
ENDBRANCH  14  17
ENDBRANCH  13  14
ENDBRANCH   1  13
BRANCH  10  18
ATOM     18  S   UNL     1       0.002  -0.004   0.002  0.00  0.00    -0.078 S 
BRANCH  18  19
ATOM     19  C   UNL     1      -0.022   1.806   0.012  0.00  0.00    +0.173 C 
BRANCH  19  20
ATOM     20  C   UNL     1       1.391   2.327   0.001  0.00  0.00    +0.231 C 
ATOM     21  O   UNL     1       2.323   1.552  -0.012  0.00  0.00    -0.274 OA
ATOM     22  N   UNL     1       1.620   3.656   0.006  0.00  0.00    -0.239 N 
ATOM     23  C   UNL     1       2.884   4.122  -0.003  0.00  0.00    +0.306 C 
ATOM     24  O   UNL     1       3.818   3.345  -0.016  0.00  0.00    -0.252 OA
ATOM     25  N   UNL     1       3.112   5.450   0.002  0.00  0.00    -0.296 N 
ATOM     26  H   UNL     1       0.874   4.276   0.017  0.00  0.00    +0.159 HD
ATOM     27  H   UNL     1       2.367   6.071   0.012  0.00  0.00    +0.151 HD
BRANCH  25  28
ATOM     28  C   UNL     1       4.487   5.957  -0.009  0.00  0.00    +0.075 C 
ATOM     29  C   UNL     1       4.819   7.117   0.933  0.00  0.00    +0.024 C 
ATOM     30  C   UNL     1       4.718   7.360  -0.575  0.00  0.00    +0.024 C 
ENDBRANCH  25  28
ENDBRANCH  19  20
ENDBRANCH  18  19
ENDBRANCH  10  18
TORSDOF 7
