REMARK  Name = ZINC08819544
REMARK  11 active torsions:
REMARK  status: ('A' for Active; 'I' for Inactive)
REMARK    1  A    between atoms: C_1  and  O_2
REMARK    2  A    between atoms: O_2  and  C_3
REMARK    3  A    between atoms: C_3  and  C_5
REMARK    4  A    between atoms: C_8  and  C_11
REMARK    5  A    between atoms: N_15  and  C_19
REMARK    6  A    between atoms: C_19  and  C_20
REMARK    7  A    between atoms: C_20  and  C_21
REMARK    8  A    between atoms: C_21  and  C_22
REMARK    9  A    between atoms: N_24  and  C_25
REMARK   10  A    between atoms: C_28  and  N_32
REMARK   11  A    between atoms: C_30  and  O_31
REMARK                            x       y       z     vdW  Elec       q    Type
REMARK                         _______ _______ _______ _____ _____    ______ ____
ROOT
ATOM      1  C   UNL     1       8.432   4.560   1.167  0.00  0.00    +0.028 C 
ATOM      2  C   UNL     1       7.972   3.531   0.412  0.00  0.00    +0.077 C 
ATOM      3  C   UNL     1       7.115   2.386   0.799  0.00  0.00    +0.258 C 
ATOM      4  O   UNL     1       6.704   2.249   1.935  0.00  0.00    -0.269 OA
ATOM      5  N   UNL     1       6.819   1.521  -0.157  0.00  0.00    -0.255 N 
ATOM      6  C   UNL     1       7.281   1.675  -1.415  0.00  0.00    +0.121 C 
ATOM      7  S   UNL     1       7.016   0.668  -2.774  0.00  0.00    -0.027 S 
ATOM      8  S   UNL     1       8.233   3.182  -1.321  0.00  0.00    -0.061 S 
ENDROOT
BRANCH   1  12
ATOM      9  C   UNL     1      11.242   7.281  -0.453  0.00  0.00    +0.059 A 
ATOM     10  C   UNL     1      10.541   7.611   0.711  0.00  0.00    +0.015 A 
ATOM     11  C   UNL     1       9.634   6.734   1.234  0.00  0.00    +0.009 A 
ATOM     12  C   UNL     1       9.407   5.504   0.605  0.00  0.00    -0.024 A 
ATOM     13  C   UNL     1      10.114   5.172  -0.558  0.00  0.00    +0.009 A 
ATOM     14  C   UNL     1      11.016   6.053  -1.083  0.00  0.00    +0.015 A 
BRANCH   9  15
ATOM     15  C   UNL     1      12.222   8.230  -1.018  0.00  0.00    +0.339 C 
ATOM     16  O   UNL     1      12.418   9.297  -0.472  0.00  0.00    -0.245 OA
BRANCH  15  18
ATOM     17  C   UNL     1      13.845   8.894  -2.639  0.00  0.00    +0.280 C 
ATOM     18  O   UNL     1      12.898   7.913  -2.140  0.00  0.00    -0.464 OA
ENDBRANCH  15  18
ENDBRANCH   9  15
ENDBRANCH   1  12
BRANCH   5  19
ATOM     19  C   UNL     1       5.975   0.366   0.159  0.00  0.00    +0.115 C 
BRANCH  19  20
ATOM     20  C   UNL     1       4.506   0.732  -0.063  0.00  0.00    +0.029 C 
BRANCH  20  21
ATOM     21  C   UNL     1       3.625  -0.474   0.268  0.00  0.00    +0.097 C 
BRANCH  21  22
ATOM     22  C   UNL     1       2.178  -0.114   0.049  0.00  0.00    +0.217 C 
ATOM     23  O   UNL     1       1.881   0.999  -0.333  0.00  0.00    -0.275 OA
ATOM     24  N   UNL     1       1.214  -1.027   0.279  0.00  0.00    -0.283 N 
ATOM     25  H   UNL     1       1.454  -1.940   0.501  0.00  0.00    +0.155 HD
BRANCH  24  26
ATOM     26  C   UNL     1      -0.135  -0.659   0.189  0.00  0.00    +0.075 A 
ATOM     27  C   UNL     1      -0.518   0.387  -0.637  0.00  0.00    +0.029 A 
ATOM     28  C   UNL     1      -1.849   0.745  -0.728  0.00  0.00    +0.035 A 
ATOM     29  C   UNL     1      -2.802   0.069   0.012  0.00  0.00    +0.130 A 
ATOM     30  C   UNL     1      -2.428  -0.972   0.841  0.00  0.00    +0.080 A 
ATOM     31  C   UNL     1      -1.096  -1.340   0.934  0.00  0.00    +0.140 A 
BRANCH  29  32
ATOM     32  N   UNL     1      -4.226   0.460  -0.085  0.00  0.00    +0.057 N 
ATOM     33  O   UNL     1      -5.067  -0.134   0.566  0.00  0.00    -0.126 OA
ATOM     34  O   UNL     1      -4.558   1.377  -0.816  0.00  0.00    -0.126 OA
ENDBRANCH  29  32
BRANCH  31  35
ATOM     35  O   UNL     1      -0.726  -2.363   1.750  0.00  0.00    -0.505 OA
ATOM     36  H   UNL     1      -0.508  -2.089   2.651  0.00  0.00    +0.292 HD
ENDBRANCH  31  35
ENDBRANCH  24  26
ENDBRANCH  21  22
ENDBRANCH  20  21
ENDBRANCH  19  20
ENDBRANCH   5  19
TORSDOF 10
