REMARK  Name = ZINC35632136
REMARK  8 active torsions:
REMARK  status: ('A' for Active; 'I' for Inactive)
REMARK    1  A    between atoms: C_1  and  C_2
REMARK    2  A    between atoms: C_6  and  O_9
REMARK    3  A    between atoms: C_7  and  C_8
REMARK    4  A    between atoms: O_9  and  C_10
REMARK    5  A    between atoms: C_13  and  C_19
REMARK    6  A    between atoms: C_15  and  N_16
REMARK    7  A    between atoms: C_19  and  C_21
REMARK    8  A    between atoms: C_19  and  O_22
REMARK                            x       y       z     vdW  Elec       q    Type
REMARK                         _______ _______ _______ _____ _____    ______ ____
ROOT
ATOM      1  C   UNL     1      -0.036  -4.131   2.304  0.00  0.00    +0.159 A 
ATOM      2  C   UNL     1      -0.025  -4.779   1.077  0.00  0.00    +0.049 A 
ATOM      3  C   UNL     1      -0.114  -6.156   1.024  0.00  0.00    +0.010 A 
ATOM      4  C   UNL     1      -0.213  -6.889   2.192  0.00  0.00    -0.017 A 
ATOM      5  C   UNL     1      -0.224  -6.246   3.416  0.00  0.00    +0.042 A 
ATOM      6  C   UNL     1      -0.129  -4.869   3.475  0.00  0.00    +0.168 A 
ENDROOT
BRANCH   6   7
ATOM      7  N   UNL     1      -0.134  -4.181   4.785  0.00  0.00    +0.060 N 
ATOM      8  O   UNL     1      -0.215  -4.825   5.806  0.00  0.00    -0.126 OA
ATOM      9  O   UNL     1      -0.057  -2.975   4.836  0.00  0.00    -0.126 OA
ENDBRANCH   6   7
BRANCH   4  10
ATOM     10  C   UNL     1      -0.310  -8.392   2.132  0.00  0.00    +0.141 C 
ATOM     11  C   UNL     1      -1.748  -8.797   1.800  0.00  0.00    +0.043 C 
BRANCH  10  12
ATOM     12  O   UNL     1       0.569  -8.886   1.119  0.00  0.00    -0.387 OA
ATOM     13  H   UNL     1       0.558  -9.848   1.024  0.00  0.00    +0.210 HD
ENDBRANCH  10  12
ENDBRANCH   4  10
BRANCH   1  14
ATOM     14  O   UNL     1       0.051  -2.776   2.358  0.00  0.00    -0.453 OA
BRANCH  14  20
ATOM     15  C   UNL     1      -2.522  -0.821  -1.299  0.00  0.00    +0.044 C 
ATOM     16  C   UNL     1      -1.208  -1.116  -0.624  0.00  0.00    -0.044 A 
ATOM     17  C   UNL     1      -0.025  -0.685  -1.198  0.00  0.00    +0.004 A 
ATOM     18  C   UNL     1       1.183  -0.955  -0.581  0.00  0.00    +0.004 A 
ATOM     19  C   UNL     1       1.211  -1.655   0.610  0.00  0.00    +0.046 A 
ATOM     20  C   UNL     1       0.026  -2.087   1.187  0.00  0.00    +0.132 A 
ATOM     21  C   UNL     1      -1.185  -1.811   0.569  0.00  0.00    -0.005 A 
ATOM     22  C   UNL     1      -2.475  -2.275   1.196  0.00  0.00    +0.048 C 
ENDBRANCH  14  20
ENDBRANCH   1  14
TORSDOF 5
