REMARK  Name = ZINC21613115
REMARK  10 active torsions:
REMARK  status: ('A' for Active; 'I' for Inactive)
REMARK    1  A    between atoms: C_1  and  C_2
REMARK    2  A    between atoms: C_2  and  C_4
REMARK    3  A    between atoms: C_2  and  O_16
REMARK    4  A    between atoms: N_6  and  C_7
REMARK    5  A    between atoms: O_16  and  C_17
REMARK    6  A    between atoms: C_17  and  C_19
REMARK    7  A    between atoms: C_21  and  C_28
REMARK    8  A    between atoms: C_23  and  N_25
REMARK    9  A    between atoms: C_28  and  O_30
REMARK   10  A    between atoms: O_30  and  C_31
REMARK                            x       y       z     vdW  Elec       q    Type
REMARK                         _______ _______ _______ _____ _____    ______ ____
ROOT
ATOM      1  O   UNL     1       3.507  -2.401   0.148  0.00  0.00    -0.449 OA
ENDROOT
BRANCH   1   3
ATOM      2  C   UNL     1       4.438  -0.592   1.486  0.00  0.00    +0.062 C 
ATOM      3  C   UNL     1       3.742  -0.969   0.176  0.00  0.00    +0.259 C 
BRANCH   3   4
ATOM      4  C   UNL     1       2.426  -0.242   0.079  0.00  0.00    +0.258 C 
ATOM      5  O   UNL     1       1.386  -0.866   0.086  0.00  0.00    -0.271 OA
ATOM      6  N   UNL     1       2.404   1.103  -0.015  0.00  0.00    -0.280 N 
ATOM      7  H   UNL     1       3.345   1.663  -0.113  0.00  0.00    +0.155 HD
BRANCH   6   8
ATOM      8  C   UNL     1       1.181   1.787   0.012  0.00  0.00    +0.072 A 
ATOM      9  C   UNL     1       0.077   1.213   0.627  0.00  0.00    +0.029 A 
ATOM     10  C   UNL     1      -1.130   1.886   0.648  0.00  0.00    +0.043 A 
ATOM     11  C   UNL     1      -1.238   3.137   0.065  0.00  0.00    +0.161 A 
ATOM     12  C   UNL     1      -0.138   3.714  -0.551  0.00  0.00    +0.195 A 
ATOM     13  C   UNL     1       1.072   3.041  -0.578  0.00  0.00    +0.182 A 
ATOM     14  F   UNL     1       2.145   3.602  -1.178  0.00  0.00    -0.200 F 
ATOM     15  F   UNL     1      -0.246   4.932  -1.124  0.00  0.00    -0.199 F 
ATOM     16  F   UNL     1      -2.418   3.794   0.092  0.00  0.00    -0.202 F 
ENDBRANCH   6   8
ENDBRANCH   3   4
ENDBRANCH   1   3
BRANCH   1  17
ATOM     17  C   UNL     1       4.478  -3.170  -0.384  0.00  0.00    +0.340 C 
ATOM     18  O   UNL     1       5.492  -2.657  -0.812  0.00  0.00    -0.245 OA
BRANCH  17  19
ATOM     19  C   UNL     1       4.308  -4.636  -0.446  0.00  0.00    +0.062 A 
ATOM     20  C   UNL     1       5.311  -5.432  -0.996  0.00  0.00    +0.030 A 
ATOM     21  C   UNL     1       5.142  -6.814  -1.051  0.00  0.00    +0.062 A 
ATOM     22  C   UNL     1       3.970  -7.393  -0.555  0.00  0.00    +0.047 A 
ATOM     23  C   UNL     1       2.982  -6.598  -0.011  0.00  0.00    +0.128 A 
ATOM     24  C   UNL     1       3.144  -5.228   0.051  0.00  0.00    +0.047 A 
BRANCH  23  25
ATOM     25  N   UNL     1       1.744  -7.217   0.513  0.00  0.00    +0.056 N 
ATOM     26  O   UNL     1       1.599  -8.426   0.464  0.00  0.00    -0.126 OA
ATOM     27  O   UNL     1       0.869  -6.519   0.994  0.00  0.00    -0.126 OA
ENDBRANCH  23  25
BRANCH  21  28
ATOM     28  C   UNL     1       6.200  -7.667  -1.632  0.00  0.00    +0.339 C 
ATOM     29  O   UNL     1       7.218  -7.163  -2.063  0.00  0.00    -0.245 OA
BRANCH  28  30
ATOM     30  O   UNL     1       6.035  -9.003  -1.684  0.00  0.00    -0.464 OA
ATOM     31  C   UNL     1       7.116  -9.777  -2.268  0.00  0.00    +0.280 C 
ENDBRANCH  28  30
ENDBRANCH  21  28
ENDBRANCH  17  19
ENDBRANCH   1  17
TORSDOF 8
