REMARK  Name = ZINC08677370
REMARK  8 active torsions:
REMARK  status: ('A' for Active; 'I' for Inactive)
REMARK    1  A    between atoms: C_9  and  C_12
REMARK    2  A    between atoms: N_14  and  C_15
REMARK    3  A    between atoms: N_14  and  C_22
REMARK    4  A    between atoms: C_15  and  C_16
REMARK    5  A    between atoms: C_22  and  C_24
REMARK    6  A    between atoms: C_22  and  C_31
REMARK    7  A    between atoms: C_27  and  O_30
REMARK    8  A    between atoms: N_33  and  C_34
REMARK                            x       y       z     vdW  Elec       q    Type
REMARK                         _______ _______ _______ _____ _____    ______ ____
ROOT
ATOM      1  C   UNL     1       7.771  -3.027  -1.155  0.00  0.00    +0.261 C 
ATOM      2  O   UNL     1       8.702  -3.754  -1.432  0.00  0.00    -0.271 OA
ATOM      3  N   UNL     1       6.903  -3.382  -0.187  0.00  0.00    -0.280 N 
ENDROOT
BRANCH   1  12
ATOM      4  C   UNL     1       8.673   1.661  -5.340  0.00  0.00    +0.004 A 
ATOM      5  C   UNL     1       9.872   1.335  -4.734  0.00  0.00    +0.004 A 
ATOM      6  C   UNL     1       9.918   0.336  -3.781  0.00  0.00    +0.049 A 
ATOM      7  C   UNL     1       8.761  -0.343  -3.429  0.00  0.00    +0.163 A 
ATOM      8  C   UNL     1       7.555  -0.014  -4.036  0.00  0.00    +0.162 A 
ATOM      9  C   UNL     1       7.516   0.989  -4.993  0.00  0.00    +0.049 A 
ATOM     10  O   UNL     1       6.407  -0.663  -3.700  0.00  0.00    -0.484 OA
ATOM     11  C   UNL     1       6.550  -1.910  -3.012  0.00  0.00    +0.283 C 
ATOM     12  C   UNL     1       7.585  -1.727  -1.894  0.00  0.00    +0.296 C 
ATOM     13  O   UNL     1       8.823  -1.328  -2.491  0.00  0.00    -0.473 OA
ENDBRANCH   1  12
BRANCH   3  14
ATOM     14  C   UNL     1       5.756  -2.524   0.119  0.00  0.00    +0.140 C 
BRANCH  14  15
ATOM     15  C   UNL     1       6.199  -1.395   1.053  0.00  0.00    +0.136 C 
ATOM     16  C   UNL     1       4.963  -0.674   1.648  0.00  0.00    +0.035 C 
ATOM     17  C   UNL     1       5.564  -0.091   2.956  0.00  0.00    +0.031 C 
ATOM     18  C   UNL     1       6.585  -1.176   3.360  0.00  0.00    +0.160 C 
ATOM     19  O   UNL     1       6.904  -1.931   2.184  0.00  0.00    -0.375 OA
ENDBRANCH  14  15
ENDBRANCH   3  14
BRANCH   3  20
ATOM     20  C   UNL     1       7.107  -4.627   0.559  0.00  0.00    +0.192 C 
BRANCH  20  21
ATOM     21  C   UNL     1       7.362  -4.307   2.009  0.00  0.00    -0.018 A 
ATOM     22  C   UNL     1       6.377  -4.541   2.951  0.00  0.00    +0.009 A 
ATOM     23  C   UNL     1       6.607  -4.248   4.281  0.00  0.00    +0.046 A 
ATOM     24  C   UNL     1       7.829  -3.720   4.672  0.00  0.00    +0.117 A 
ATOM     25  C   UNL     1       8.816  -3.486   3.725  0.00  0.00    +0.046 A 
ATOM     26  C   UNL     1       8.582  -3.785   2.397  0.00  0.00    +0.009 A 
BRANCH  24  27
ATOM     27  O   UNL     1       8.058  -3.430   5.980  0.00  0.00    -0.507 OA
ATOM     28  H   UNL     1       8.438  -4.163   6.484  0.00  0.00    +0.292 HD
ENDBRANCH  24  27
ENDBRANCH  20  21
BRANCH  20  29
ATOM     29  C   UNL     1       5.877  -5.489   0.443  0.00  0.00    +0.238 C 
ATOM     30  O   UNL     1       4.874  -5.048  -0.076  0.00  0.00    -0.273 OA
ATOM     31  N   UNL     1       5.892  -6.751   0.916  0.00  0.00    -0.311 N 
ATOM     32  H   UNL     1       6.694  -7.104   1.331  0.00  0.00    +0.149 HD
BRANCH  31  33
ATOM     33  C   UNL     1       4.696  -7.590   0.803  0.00  0.00    +0.073 C 
ATOM     34  C   UNL     1       3.766  -7.313   1.986  0.00  0.00    +0.022 C 
ATOM     35  C   UNL     1       2.517  -8.189   1.869  0.00  0.00    +0.002 C 
ATOM     36  C   UNL     1       2.925  -9.663   1.875  0.00  0.00    +0.000 C 
ATOM     37  C   UNL     1       3.855  -9.940   0.691  0.00  0.00    +0.002 C 
ATOM     38  C   UNL     1       5.104  -9.064   0.809  0.00  0.00    +0.022 C 
ENDBRANCH  31  33
ENDBRANCH  20  29
ENDBRANCH   3  20
TORSDOF 8
