REMARK  Name = ZINC10054756
REMARK  11 active torsions:
REMARK  status: ('A' for Active; 'I' for Inactive)
REMARK    1  A    between atoms: C_1  and  C_2
REMARK    2  A    between atoms: N_10  and  C_14
REMARK    3  A    between atoms: C_14  and  C_15
REMARK    4  A    between atoms: C_15  and  O_17
REMARK    5  A    between atoms: O_17  and  C_18
REMARK    6  A    between atoms: C_18  and  C_20
REMARK    7  A    between atoms: C_18  and  C_21
REMARK    8  A    between atoms: N_23  and  C_24
REMARK    9  A    between atoms: C_26  and  N_32
REMARK   10  A    between atoms: C_29  and  O_30
REMARK   11  A    between atoms: O_30  and  C_31
REMARK                            x       y       z     vdW  Elec       q    Type
REMARK                         _______ _______ _______ _____ _____    ______ ____
ROOT
ATOM      1  O   UNL     1      -2.324   5.574   0.355  0.00  0.00    -0.451 OA
ENDROOT
BRANCH   1   2
ATOM      2  C   UNL     1      -3.211   6.296   1.058  0.00  0.00    +0.326 C 
ATOM      3  O   UNL     1      -4.161   5.753   1.570  0.00  0.00    -0.249 OA
BRANCH   2   4
ATOM      4  C   UNL     1      -3.021   7.783   1.208  0.00  0.00    +0.238 C 
BRANCH   4  14
ATOM      5  C   UNL     1      -8.661  10.709   6.069  0.00  0.00    +0.007 C 
ATOM      6  C   UNL     1      -7.312  10.086   5.705  0.00  0.00    -0.014 C 
ATOM      7  C   UNL     1      -7.542   8.750   4.997  0.00  0.00    +0.006 C 
ATOM      8  C   UNL     1      -6.191   8.122   4.644  0.00  0.00    +0.035 C 
ATOM      9  C   UNL     1      -5.409   9.068   3.739  0.00  0.00    +0.113 C 
ATOM     10  C   UNL     1      -5.193  10.414   4.421  0.00  0.00    +0.035 C 
ATOM     11  C   UNL     1      -6.548  11.032   4.776  0.00  0.00    +0.006 C 
ATOM     12  C   UNL     1      -4.082   8.453   3.356  0.00  0.00    +0.247 C 
ATOM     13  O   UNL     1      -3.180   8.132   4.099  0.00  0.00    -0.273 OA
ATOM     14  N   UNL     1      -4.114   8.336   2.012  0.00  0.00    -0.213 N 
ATOM     15  C   UNL     1      -5.264   8.794   1.504  0.00  0.00    +0.310 C 
ATOM     16  O   UNL     1      -5.525   8.799   0.317  0.00  0.00    -0.252 OA
ATOM     17  N   UNL     1      -6.103   9.245   2.457  0.00  0.00    -0.285 N 
ATOM     18  H   UNL     1      -6.988   9.618   2.322  0.00  0.00    +0.151 HD
ENDBRANCH   4  14
ENDBRANCH   2   4
ENDBRANCH   1   2
BRANCH   1  19
ATOM     19  C   UNL     1      -2.570   4.146   0.252  0.00  0.00    +0.259 C 
ATOM     20  C   UNL     1      -3.428   3.865  -0.983  0.00  0.00    +0.062 C 
BRANCH  19  21
ATOM     21  C   UNL     1      -1.256   3.418   0.128  0.00  0.00    +0.258 C 
ATOM     22  O   UNL     1      -0.215   4.040   0.127  0.00  0.00    -0.271 OA
ATOM     23  N   UNL     1      -1.239   2.075   0.019  0.00  0.00    -0.279 N 
ATOM     24  H   UNL     1      -2.072   1.582  -0.045  0.00  0.00    +0.155 HD
BRANCH  23  25
ATOM     25  C   UNL     1      -0.016   1.390  -0.002  0.00  0.00    +0.078 A 
ATOM     26  C   UNL     1       1.092   1.963  -0.609  0.00  0.00    +0.059 A 
ATOM     27  C   UNL     1       2.294   1.282  -0.633  0.00  0.00    +0.128 A 
ATOM     28  C   UNL     1       2.397   0.031  -0.054  0.00  0.00    +0.036 A 
ATOM     29  C   UNL     1       1.297  -0.546   0.553  0.00  0.00    +0.050 A 
ATOM     30  C   UNL     1       0.088   0.129   0.582  0.00  0.00    +0.141 A 
BRANCH  27  31
ATOM     31  N   UNL     1       3.476   1.895  -1.282  0.00  0.00    +0.056 N 
ATOM     32  O   UNL     1       4.537   1.297  -1.304  0.00  0.00    -0.126 OA
ATOM     33  O   UNL     1       3.387   2.997  -1.793  0.00  0.00    -0.126 OA
ENDBRANCH  27  31
BRANCH  30  34
ATOM     34  O   UNL     1      -0.995  -0.438   1.177  0.00  0.00    -0.493 OA
ATOM     35  C   UNL     1      -0.815  -1.732   1.755  0.00  0.00    +0.277 C 
ENDBRANCH  30  34
ENDBRANCH  23  25
ENDBRANCH  19  21
ENDBRANCH   1  19
TORSDOF 8
