REMARK  Name = ZINC08774164
REMARK  9 active torsions:
REMARK  status: ('A' for Active; 'I' for Inactive)
REMARK    1  A    between atoms: C_1  and  C_2
REMARK    2  A    between atoms: N_4  and  C_5
REMARK    3  A    between atoms: C_5  and  C_13
REMARK    4  A    between atoms: C_6  and  C_7
REMARK    5  A    between atoms: C_13  and  O_15
REMARK    6  A    between atoms: O_15  and  C_16
REMARK    7  A    between atoms: C_16  and  C_17
REMARK    8  A    between atoms: N_19  and  C_20
REMARK    9  A    between atoms: C_23  and  N_27
REMARK                            x       y       z     vdW  Elec       q    Type
REMARK                         _______ _______ _______ _____ _____    ______ ____
ROOT
ATOM      1  O   UNL     1       2.621   0.281   0.127  0.00  0.00    -0.451 OA
ENDROOT
BRANCH   1   2
ATOM      2  C   UNL     1       3.832   0.861   0.253  0.00  0.00    +0.354 C 
ATOM      3  O   UNL     1       3.914   2.038   0.545  0.00  0.00    -0.244 OA
BRANCH   2   4
ATOM      4  C   UNL     1       5.051   0.071   0.037  0.00  0.00    +0.119 C 
ATOM      5  C   UNL     1       6.266   0.643   0.203  0.00  0.00    +0.038 C 
BRANCH   5   6
ATOM      6  C   UNL     1       7.481  -0.184   0.151  0.00  0.00    -0.023 A 
ATOM      7  C   UNL     1       7.423  -1.541   0.486  0.00  0.00    +0.008 A 
ATOM      8  C   UNL     1       8.566  -2.311   0.429  0.00  0.00    +0.001 A 
ATOM      9  C   UNL     1       9.770  -1.742   0.052  0.00  0.00    +0.000 A 
ATOM     10  C   UNL     1       9.837  -0.399  -0.276  0.00  0.00    +0.001 A 
ATOM     11  C   UNL     1       8.702   0.383  -0.229  0.00  0.00    +0.008 A 
ENDBRANCH   5   6
BRANCH   4  15
ATOM     12  C   UNL     1       4.248  -3.607   0.072  0.00  0.00    +0.109 C 
ATOM     13  C   UNL     1       4.269  -2.142   0.426  0.00  0.00    +0.214 C 
ATOM     14  O   UNL     1       3.669  -1.746   1.403  0.00  0.00    -0.276 OA
ATOM     15  N   UNL     1       4.956  -1.273  -0.342  0.00  0.00    -0.280 N 
ATOM     16  H   UNL     1       5.384  -1.579  -1.157  0.00  0.00    +0.155 HD
ENDBRANCH   4  15
ENDBRANCH   2   4
ENDBRANCH   1   2
BRANCH   1  17
ATOM     17  C   UNL     1       1.460   1.122   0.355  0.00  0.00    +0.328 C 
BRANCH  17  18
ATOM     18  C   UNL     1       0.205   0.307   0.172  0.00  0.00    +0.255 C 
ATOM     19  O   UNL     1       0.282  -0.867  -0.122  0.00  0.00    -0.272 OA
ATOM     20  N   UNL     1      -1.002   0.885   0.329  0.00  0.00    -0.282 N 
ATOM     21  H   UNL     1      -1.064   1.810   0.616  0.00  0.00    +0.155 HD
BRANCH  20  22
ATOM     22  C   UNL     1      -2.167   0.151   0.079  0.00  0.00    +0.048 A 
ATOM     23  C   UNL     1      -2.187  -1.220   0.301  0.00  0.00    +0.026 A 
ATOM     24  C   UNL     1      -3.338  -1.942   0.053  0.00  0.00    +0.034 A 
ATOM     25  C   UNL     1      -4.471  -1.301  -0.417  0.00  0.00    +0.127 A 
ATOM     26  C   UNL     1      -4.455   0.063  -0.639  0.00  0.00    +0.049 A 
ATOM     27  C   UNL     1      -3.308   0.792  -0.388  0.00  0.00    +0.041 A 
ATOM     28 BR   UNL     1      -3.289   2.660  -0.685  0.00  0.00    -0.048 Br
BRANCH  25  29
ATOM     29  N   UNL     1      -5.702  -2.078  -0.681  0.00  0.00    +0.056 N 
ATOM     30  O   UNL     1      -5.718  -3.280  -0.485  0.00  0.00    -0.126 OA
ATOM     31  O   UNL     1      -6.700  -1.515  -1.094  0.00  0.00    -0.126 OA
ENDBRANCH  25  29
ENDBRANCH  20  22
ENDBRANCH  17  18
ENDBRANCH   1  17
TORSDOF 8
