REMARK  Name = ZINC08914015
REMARK  14 active torsions:
REMARK  status: ('A' for Active; 'I' for Inactive)
REMARK    1  A    between atoms: CD1_1  and  CG1_2
REMARK    2  A    between atoms: CG1_2  and  CB_3
REMARK    3  A    between atoms: CB_3  and  CG2_5
REMARK    4  A    between atoms: CB_3  and  CA_6
REMARK    5  A    between atoms: CA_6  and  C_8
REMARK    6  A    between atoms: CA_6  and  N_22
REMARK    7  A    between atoms: N_10  and  CA_11
REMARK    8  A    between atoms: CA_11  and  CB_13
REMARK    9  A    between atoms: CA_11  and  C_20
REMARK   10  A    between atoms: CB_13  and  CG_14
REMARK   11  A    between atoms: C_33  and  O_39
REMARK   12  A    between atoms: C_34  and  C_36
REMARK   13  A    between atoms: C_36  and  C_37
REMARK   14  A    between atoms: C_36  and  C_38
REMARK                            x       y       z     vdW  Elec       q    Type
REMARK                         _______ _______ _______ _____ _____    ______ ____
ROOT
ATOM      1  CA  PHE A   1       3.830   5.804   2.992  0.00  0.00    +0.163 C 
ENDROOT
BRANCH   1   2
ATOM      2  N   PHE A   1       3.489   5.106   1.751  0.00  0.00    -0.287 N 
ATOM      3  C   UNK A   0       2.228   5.149   1.277  0.00  0.00    +0.308 C 
ATOM      4  O   UNK A   0       1.394   5.841   1.830  0.00  0.00    -0.252 OA
ATOM      5  N   UNK A   0       1.890   4.427   0.191  0.00  0.00    -0.241 N 
ATOM      6  C   UNK A   0       0.565   4.368  -0.266  0.00  0.00    +0.064 A 
ATOM      7  C   UNK A   0      -0.503   4.508   0.599  0.00  0.00    +0.026 A 
ATOM      8  C   UNK A   0      -1.796   4.429   0.111  0.00  0.00    +0.002 A 
ATOM      9  C   UNK A   0      -2.022   4.211  -1.237  0.00  0.00    +0.002 A 
ATOM     10  C   UNK A   0      -0.963   4.072  -2.112  0.00  0.00    +0.030 A 
ATOM     11  C   UNK A   0       0.343   4.152  -1.634  0.00  0.00    +0.089 A 
ATOM     12  N   UNK A   0       1.412   4.024  -2.481  0.00  0.00    -0.214 NA
ATOM     13  C   UNK A   0       2.609   3.805  -2.040  0.00  0.00    +0.209 C 
ATOM     14  C   UNK A   0       2.895   3.659  -0.568  0.00  0.00    +0.171 C 
ATOM     15  H   PHE A   1       4.170   4.611   1.269  0.00  0.00    +0.151 HD
BRANCH  14  16
ATOM     16  C   UNK A   0       2.821   2.182  -0.176  0.00  0.00    +0.013 C 
ATOM     17  C   UNK A   0       3.857   1.390  -0.977  0.00  0.00    +0.009 C 
ATOM     18  C   UNK A   0       3.112   2.036   1.319  0.00  0.00    +0.009 C 
ENDBRANCH  14  16
BRANCH  13  19
ATOM     19  O   UNK A   0       3.626   3.701  -2.921  0.00  0.00    -0.494 OA
ATOM     20  H   UNK A   0       3.358   3.803  -3.845  0.00  0.00    +0.293 HD
ENDBRANCH  13  19
ENDBRANCH   1   2
BRANCH   1  21
ATOM     21  C   PHE A   1       5.278   6.219   2.954  0.00  0.00    +0.234 C 
ATOM     22  O   PHE A   1       6.022   5.748   2.120  0.00  0.00    -0.274 OA
ATOM     23  N   PHE A   1       5.747   7.113   3.847  0.00  0.00    -0.300 N 
ATOM     24  H   PHE A   1       5.173   7.432   4.561  0.00  0.00    +0.150 HD
BRANCH  23  25
ATOM     25  CA  PHE A   1       7.123   7.603   3.739  0.00  0.00    +0.191 C 
BRANCH  25  26
ATOM     26  C   PHE A   1       8.055   6.641   4.430  0.00  0.00    +0.376 C 
ATOM     27  O   PHE A   1       7.614   5.648   4.959  0.00  0.00    -0.244 OA
ATOM     28  OXT PHE A   1       9.374   6.887   4.459  0.00  0.00    -0.244 OA
ENDBRANCH  25  26
BRANCH  25  29
ATOM     29  CB  PHE A   1       7.228   8.979   4.400  0.00  0.00    +0.069 C 
BRANCH  29  30
ATOM     30  CG  PHE A   1       6.391   9.970   3.633  0.00  0.00    -0.045 A 
ATOM     31  CD2 PHE A   1       6.951  10.689   2.594  0.00  0.00    +0.004 A 
ATOM     32  CE2 PHE A   1       6.181  11.594   1.887  0.00  0.00    +0.000 A 
ATOM     33  CZ  PHE A   1       4.855  11.788   2.227  0.00  0.00    +0.000 A 
ATOM     34  CE1 PHE A   1       4.298  11.073   3.270  0.00  0.00    +0.000 A 
ATOM     35  CD1 PHE A   1       5.065  10.164   3.973  0.00  0.00    +0.004 A 
ENDBRANCH  29  30
ENDBRANCH  25  29
ENDBRANCH  23  25
ENDBRANCH   1  21
BRANCH   1  36
ATOM     36  CB  PHE A   1       3.597   4.872   4.183  0.00  0.00    +0.015 C 
ATOM     37  CG2 PHE A   1       4.578   3.700   4.112  0.00  0.00    +0.010 C 
BRANCH  36  39
ATOM     38  CD1 PHE A   1       2.725   6.702   5.643  0.00  0.00    +0.004 C 
ATOM     39  CG1 PHE A   1       3.818   5.643   5.486  0.00  0.00    +0.002 C 
ENDBRANCH  36  39
ENDBRANCH   1  36
TORSDOF 10
