REMARK  Name = ZINC39764429
REMARK  6 active torsions:
REMARK  status: ('A' for Active; 'I' for Inactive)
REMARK    1  A    between atoms: C_10  and  C_12
REMARK    2  A    between atoms: C_12  and  C_13
REMARK    3  A    between atoms: C_12  and  C_29
REMARK    4  A    between atoms: C_13  and  C_14
REMARK    5  A    between atoms: C_17  and  C_19
REMARK    6  A    between atoms: C_22  and  N_25
REMARK                            x       y       z     vdW  Elec       q    Type
REMARK                         _______ _______ _______ _____ _____    ______ ____
ROOT
ATOM      1  C   UNL     1       6.017  -1.654  -0.667  0.00  0.00    +0.222 C 
ATOM      2  O   UNL     1       5.884  -0.452  -0.552  0.00  0.00    -0.287 OA
ENDROOT
BRANCH   1   3
ATOM      3  C   UNL     1       7.125  -2.178  -1.366  0.00  0.00    +0.173 A 
ATOM      4  C   UNL     1       8.131  -1.439  -1.962  0.00  0.00    +0.053 A 
ATOM      5  C   UNL     1       9.016  -2.353  -2.536  0.00  0.00    +0.050 A 
ATOM      6  C   UNL     1       8.524  -3.611  -2.273  0.00  0.00    +0.136 A 
ATOM      7  O   UNL     1       7.389  -3.487  -1.564  0.00  0.00    -0.452 OA
BRANCH   6   8
ATOM      8  C   UNL     1       9.142  -4.884  -2.694  0.00  0.00    +0.017 A 
ATOM      9  C   UNL     1      10.334  -4.878  -3.422  0.00  0.00    +0.014 A 
ATOM     10  C   UNL     1      10.905  -6.071  -3.813  0.00  0.00    +0.033 A 
ATOM     11  C   UNL     1      10.301  -7.272  -3.485  0.00  0.00    +0.126 A 
ATOM     12  C   UNL     1       9.120  -7.286  -2.764  0.00  0.00    +0.033 A 
ATOM     13  C   UNL     1       8.540  -6.100  -2.362  0.00  0.00    +0.014 A 
BRANCH  11  14
ATOM     14  N   UNL     1      10.920  -8.548  -3.908  0.00  0.00    +0.056 N 
ATOM     15  O   UNL     1      11.952  -8.540  -4.538  0.00  0.00    -0.126 OA
ATOM     16  O   UNL     1      10.394  -9.599  -3.623  0.00  0.00    -0.126 OA
ENDBRANCH  11  14
ENDBRANCH   6   8
ENDBRANCH   1   3
BRANCH   1  17
ATOM     17  C   UNL     1       4.999  -2.586  -0.061  0.00  0.00    +0.231 C 
BRANCH  17  27
ATOM     18  C   UNL     1      -0.017   1.373   0.010  0.00  0.00    +0.001 A 
ATOM     19  C   UNL     1       1.169   2.096   0.002  0.00  0.00    +0.002 A 
ATOM     20  C   UNL     1       2.387   1.453  -0.013  0.00  0.00    +0.028 A 
ATOM     21  C   UNL     1       2.432   0.058  -0.021  0.00  0.00    +0.078 A 
ATOM     22  C   UNL     1       1.224  -0.674  -0.013  0.00  0.00    +0.065 A 
ATOM     23  C   UNL     1       0.002  -0.004   0.002  0.00  0.00    +0.015 A 
ATOM     24  C   UNL     1       1.306  -2.142  -0.022  0.00  0.00    +0.259 A 
ATOM     25  O   UNL     1       0.302  -2.832  -0.017  0.00  0.00    -0.267 OA
ATOM     26  N   UNL     1       2.540  -2.697  -0.038  0.00  0.00    -0.309 N 
ATOM     27  C   UNL     1       3.650  -1.914  -0.044  0.00  0.00    +0.135 A 
ATOM     28  N   UNL     1       3.609  -0.616  -0.037  0.00  0.00    -0.232 NA
ATOM     29  H   UNL     1       2.633  -3.663  -0.045  0.00  0.00    +0.170 HD
ENDBRANCH  17  27
BRANCH  17  30
ATOM     30  C   UNL     1       5.398  -2.921   1.315  0.00  0.00    +0.082 C 
ATOM     31  N   UNL     1       5.705  -3.180   2.378  0.00  0.00    -0.195 NA
ENDBRANCH  17  30
ENDBRANCH   1  17
TORSDOF 6
