REMARK  Name = ZINC40548295
REMARK  6 active torsions:
REMARK  status: ('A' for Active; 'I' for Inactive)
REMARK    1  A    between atoms: C_2  and  C_3
REMARK    2  A    between atoms: C_3  and  O_4
REMARK    3  A    between atoms: O_4  and  C_5
REMARK    4  A    between atoms: C_9  and  C_11
REMARK    5  A    between atoms: C_14  and  C_30
REMARK    6  A    between atoms: N_21  and  C_22
REMARK                            x       y       z     vdW  Elec       q    Type
REMARK                         _______ _______ _______ _____ _____    ______ ____
ROOT
ATOM      1  C   UNL     1      -3.431  -5.627  -3.082  0.00  0.00    +0.142 C 
ATOM      2  C   UNL     1      -3.204  -6.929  -2.365  0.00  0.00    +0.035 A 
ATOM      3  C   UNL     1      -2.385  -7.684  -1.587  0.00  0.00    +0.075 A 
ATOM      4  N   UNL     1      -3.026  -8.872  -1.382  0.00  0.00    -0.276 N 
ATOM      5  N   UNL     1      -4.162  -8.868  -1.984  0.00  0.00    -0.168 NA
ATOM      6  H   UNL     1      -2.676  -9.611  -0.859  0.00  0.00    +0.189 HD
ATOM      7  C   UNL     1      -4.349  -7.722  -2.608  0.00  0.00    +0.153 A 
ATOM      8  C   UNL     1      -5.270  -6.940  -3.453  0.00  0.00    +0.268 C 
ATOM      9  O   UNL     1      -6.351  -7.332  -3.846  0.00  0.00    -0.268 OA
ATOM     10  N   UNL     1      -4.744  -5.733  -3.729  0.00  0.00    -0.280 N 
ENDROOT
BRANCH   3  11
ATOM     11  C   UNL     1      -1.058  -7.294  -1.064  0.00  0.00    +0.048 A 
ATOM     12  C   UNL     1       0.087  -7.968  -1.486  0.00  0.00    +0.033 A 
ATOM     13  C   UNL     1       1.324  -7.599  -0.995  0.00  0.00    +0.042 A 
ATOM     14  C   UNL     1       1.431  -6.562  -0.083  0.00  0.00    +0.024 A 
ATOM     15  C   UNL     1       0.302  -5.887   0.342  0.00  0.00    +0.053 A 
ATOM     16  C   UNL     1      -0.945  -6.242  -0.147  0.00  0.00    +0.188 A 
ATOM     17  O   UNL     1      -2.054  -5.576   0.266  0.00  0.00    -0.287 OA
ATOM     18 CL   UNL     1       2.749  -8.439  -1.521  0.00  0.00    -0.084 Cl
ENDBRANCH   3  11
BRANCH  10  19
ATOM     19  C   UNL     1      -5.380  -4.693  -4.542  0.00  0.00    +0.100 C 
ATOM     20  C   UNL     1      -5.640  -5.237  -5.956  0.00  0.00    +0.047 C 
ATOM     21  C   UNL     1      -6.583  -4.244  -6.692  0.00  0.00    +0.168 C 
ATOM     22  S   UNL     1      -7.755  -3.823  -5.334  0.00  0.00    -0.029 S 
ATOM     23  O   UNL     1      -7.974  -2.419  -5.330  0.00  0.00    -0.174 OA
ATOM     24  O   UNL     1      -8.869  -4.704  -5.395  0.00  0.00    -0.174 OA
ATOM     25  C   UNL     1      -6.717  -4.273  -3.885  0.00  0.00    +0.188 C 
ENDBRANCH  10  19
BRANCH   1  30
ATOM     26  C   UNL     1      -2.318  -2.629  -1.069  0.00  0.00    +0.121 A 
ATOM     27  C   UNL     1      -3.437  -2.395  -0.283  0.00  0.00    +0.045 A 
ATOM     28  C   UNL     1      -4.548  -3.206  -0.407  0.00  0.00    +0.004 A 
ATOM     29  C   UNL     1      -4.546  -4.251  -1.313  0.00  0.00    +0.006 A 
ATOM     30  C   UNL     1      -3.431  -4.487  -2.096  0.00  0.00    -0.019 A 
ATOM     31  C   UNL     1      -2.319  -3.675  -1.980  0.00  0.00    +0.051 A 
BRANCH  26  32
ATOM     32  O   UNL     1      -1.224  -1.832  -0.949  0.00  0.00    -0.488 OA
BRANCH  32  33
ATOM     33  C   UNL     1      -1.293  -0.775   0.010  0.00  0.00    +0.256 C 
BRANCH  33  35
ATOM     34  C   UNL     1      -0.016   1.306   0.009  0.00  0.00    +0.007 C 
ATOM     35  C   UNL     1       0.002  -0.004   0.002  0.00  0.00    +0.006 C 
ENDBRANCH  33  35
ENDBRANCH  32  33
ENDBRANCH  26  32
ENDBRANCH   1  30
TORSDOF 6
