REMARK  Name = ZINC60372405
REMARK  9 active torsions:
REMARK  status: ('A' for Active; 'I' for Inactive)
REMARK    1  A    between atoms: C_4  and  C_7
REMARK    2  A    between atoms: C_7  and  N_8
REMARK    3  A    between atoms: C_9  and  N_35
REMARK    4  A    between atoms: C_10  and  N_17
REMARK    5  A    between atoms: N_17  and  C_18
REMARK    6  A    between atoms: N_17  and  C_26
REMARK    7  A    between atoms: C_18  and  C_19
REMARK    8  A    between atoms: C_19  and  C_20
REMARK    9  A    between atoms: C_26  and  C_27
REMARK                            x       y       z     vdW  Elec       q    Type
REMARK                         _______ _______ _______ _____ _____    ______ ____
ROOT
ATOM      1  N   UNL     1       5.052  -1.748   1.481  0.00  0.00    -0.276 N 
ATOM      2  C   UNL     1       5.818  -0.824   2.154  0.00  0.00    +0.127 A 
ATOM      3  C   UNL     1       5.331  -0.256   3.299  0.00  0.00    +0.134 A 
ATOM      4  C   UNL     1       4.056  -0.632   3.759  0.00  0.00    +0.277 A 
ATOM      5  O   UNL     1       3.600  -0.139   4.777  0.00  0.00    -0.266 OA
ATOM      6  N   UNL     1       3.341  -1.542   3.067  0.00  0.00    -0.273 N 
ATOM      7  H   UNL     1       2.462  -1.802   3.382  0.00  0.00    +0.173 HD
ATOM      8  C   UNL     1       3.834  -2.087   1.940  0.00  0.00    +0.331 A 
ATOM      9  O   UNL     1       3.169  -2.902   1.330  0.00  0.00    -0.246 OA
ENDROOT
BRANCH   2  10
ATOM     10  N   UNL     1       7.062  -0.475   1.680  0.00  0.00    -0.343 N 
ATOM     11  H   UNL     1       7.433  -0.932   0.909  0.00  0.00    +0.144 HD
ATOM     12  H   UNL     1       7.569   0.227   2.118  0.00  0.00    +0.144 HD
ENDBRANCH   2  10
BRANCH   1  13
ATOM     13  C   UNL     1       5.564  -2.363   0.253  0.00  0.00    +0.163 C 
BRANCH  13  17
ATOM     14  C   UNL     1       4.420   0.006  -3.112  0.00  0.00    +0.000 A 
ATOM     15  C   UNL     1       5.615   0.258  -2.464  0.00  0.00    +0.000 A 
ATOM     16  C   UNL     1       5.985  -0.509  -1.375  0.00  0.00    +0.005 A 
ATOM     17  C   UNL     1       5.160  -1.527  -0.934  0.00  0.00    -0.028 A 
ATOM     18  C   UNL     1       3.966  -1.778  -1.582  0.00  0.00    +0.005 A 
ATOM     19  C   UNL     1       3.596  -1.013  -2.672  0.00  0.00    +0.000 A 
ENDBRANCH  13  17
ENDBRANCH   1  13
BRANCH   3  20
ATOM     20  N   UNL     1       6.098   0.697   4.011  0.00  0.00    -0.317 N 
BRANCH  20  21
ATOM     21  C   UNL     1       6.594   0.382   5.352  0.00  0.00    +0.110 C 
BRANCH  21  22
ATOM     22  C   UNL     1       8.023  -0.155   5.254  0.00  0.00    +0.049 C 
BRANCH  22  23
ATOM     23  C   UNL     1       8.534  -0.479   6.635  0.00  0.00    -0.072 C 
ATOM     24  C   UNL     1       8.426  -1.700   7.051  0.00  0.00    -0.028 C 
ATOM     25  C   UNL     1       8.878  -2.170   8.403  0.00  0.00    +0.027 C 
ATOM     26  C   UNL     1       9.838  -1.151   9.021  0.00  0.00    +0.004 C 
ATOM     27  C   UNL     1       9.202   0.240   8.918  0.00  0.00    +0.005 C 
ATOM     28  C   UNL     1       9.142   0.633   7.438  0.00  0.00    +0.030 C 
ENDBRANCH  22  23
ENDBRANCH  21  22
ENDBRANCH  20  21
BRANCH  20  29
ATOM     29  C   UNL     1       6.395   1.997   3.405  0.00  0.00    +0.162 C 
BRANCH  29  30
ATOM     30  C   UNL     1       5.255   2.947   3.670  0.00  0.00    +0.078 A 
ATOM     31  C   UNL     1       5.189   3.833   4.678  0.00  0.00    +0.118 A 
ATOM     32  N   UNL     1       3.979   4.512   4.565  0.00  0.00    -0.300 N 
ATOM     33  C   UNL     1       3.292   5.506   5.228  0.00  0.00    +0.100 A 
ATOM     34  C   UNL     1       2.097   5.911   4.800  0.00  0.00    +0.067 A 
ATOM     35  S   UNL     1       1.847   4.874   3.368  0.00  0.00    -0.058 S 
ATOM     36  C   UNL     1       3.376   3.973   3.459  0.00  0.00    +0.178 A 
ATOM     37  N   UNL     1       4.137   3.055   2.936  0.00  0.00    -0.225 NA
ENDBRANCH  29  30
ENDBRANCH  20  29
ENDBRANCH   3  20
TORSDOF 9
