REMARK  Name = ZINC33393003
REMARK  11 active torsions:
REMARK  status: ('A' for Active; 'I' for Inactive)
REMARK    1  A    between atoms: C_1  and  C_2
REMARK    2  A    between atoms: C_2  and  O_3
REMARK    3  A    between atoms: O_3  and  C_4
REMARK    4  A    between atoms: C_4  and  C_6
REMARK    5  A    between atoms: C_7  and  C_29
REMARK    6  A    between atoms: C_8  and  C_26
REMARK    7  A    between atoms: C_10  and  N_11
REMARK    8  A    between atoms: C_12  and  C_14
REMARK    9  A    between atoms: C_18  and  N_23
REMARK   10  A    between atoms: C_19  and  C_20
REMARK   11  A    between atoms: C_26  and  C_28
REMARK                            x       y       z     vdW  Elec       q    Type
REMARK                         _______ _______ _______ _____ _____    ______ ____
ROOT
ATOM      1  N   UNL     1       1.252   3.770   2.502  0.00  0.00    -0.275 N 
ATOM      2  C   UNL     1       1.291   4.621   3.546  0.00  0.00    +0.249 C 
ATOM      3  O   UNL     1       1.337   5.820   3.351  0.00  0.00    -0.270 OA
ATOM      4  H   UNL     1       1.210   2.685   2.678  0.00  0.00    +0.156 HD
ENDROOT
BRANCH   1   9
ATOM      5  C   UNL     1       1.232   3.543   0.009  0.00  0.00    +0.091 A 
ATOM      6  C   UNL     1       1.249   4.263  -1.172  0.00  0.00    -0.017 A 
ATOM      7  C   UNL     1       1.303   5.642  -1.076  0.00  0.00    +0.060 A 
ATOM      8  S   UNL     1       1.331   5.909   0.687  0.00  0.00    -0.069 S 
ATOM      9  C   UNL     1       1.266   4.259   1.213  0.00  0.00    +0.087 A 
ATOM     10  C   UNL     1       1.209   3.572  -2.511  0.00  0.00    +0.046 C 
BRANCH   7  11
ATOM     11  C   UNL     1       1.330   6.598  -2.112  0.00  0.00    +0.167 C 
ATOM     12  O   UNL     1       1.304   6.237  -3.272  0.00  0.00    -0.292 OA
ATOM     13  C   UNL     1       1.390   8.067  -1.781  0.00  0.00    +0.092 C 
ENDBRANCH   7  11
BRANCH   5  14
ATOM     14  C   UNL     1       1.175   2.076   0.002  0.00  0.00    +0.342 C 
ATOM     15  O   UNL     1       2.204   1.428  -0.011  0.00  0.00    -0.245 OA
BRANCH  14  16
ATOM     16  O   UNL     1      -0.018   1.448   0.010  0.00  0.00    -0.461 OA
BRANCH  16  18
ATOM     17  C   UNL     1      -1.433  -0.534   0.013  0.00  0.00    +0.048 C 
ATOM     18  C   UNL     1       0.002  -0.004   0.002  0.00  0.00    +0.229 C 
ENDBRANCH  16  18
ENDBRANCH  14  16
ENDBRANCH   5  14
ENDBRANCH   1   9
BRANCH   2  19
ATOM     19  C   UNL     1       1.276   4.097   4.928  0.00  0.00    +0.053 A 
ATOM     20  C   UNL     1       1.224   2.724   5.156  0.00  0.00    +0.014 A 
ATOM     21  C   UNL     1       1.211   2.239   6.450  0.00  0.00    +0.003 A 
ATOM     22  C   UNL     1       1.250   3.109   7.525  0.00  0.00    +0.033 A 
ATOM     23  C   UNL     1       1.304   4.474   7.319  0.00  0.00    +0.141 A 
ATOM     24  C   UNL     1       1.322   4.982   6.022  0.00  0.00    +0.105 A 
BRANCH  24  25
ATOM     25  C   UNL     1       1.385   6.441   5.795  0.00  0.00    +0.389 C 
ATOM     26  O   UNL     1       0.359   7.087   5.709  0.00  0.00    -0.240 OA
ATOM     27  O   UNL     1       2.579   7.055   5.685  0.00  0.00    -0.240 OA
ENDBRANCH  24  25
BRANCH  23  28
ATOM     28  N   UNL     1       1.346   5.397   8.475  0.00  0.00    +0.057 N 
ATOM     29  O   UNL     1       1.334   4.953   9.609  0.00  0.00    -0.126 OA
ATOM     30  O   UNL     1       1.393   6.600   8.293  0.00  0.00    -0.126 OA
ENDBRANCH  23  28
ENDBRANCH   2  19
TORSDOF 8
