REMARK  Name = ZINC28932445
REMARK  9 active torsions:
REMARK  status: ('A' for Active; 'I' for Inactive)
REMARK    1  A    between atoms: C_1  and  C_2
REMARK    2  A    between atoms: C_9  and  C_16
REMARK    3  A    between atoms: C_11  and  O_12
REMARK    4  A    between atoms: C_16  and  O_17
REMARK    5  A    between atoms: O_17  and  C_18
REMARK    6  A    between atoms: C_18  and  C_20
REMARK    7  A    between atoms: C_21  and  C_22
REMARK    8  A    between atoms: C_25  and  O_28
REMARK    9  A    between atoms: O_28  and  C_29
REMARK                            x       y       z     vdW  Elec       q    Type
REMARK                         _______ _______ _______ _____ _____    ______ ____
ROOT
ATOM      1  C   UNL     1      -2.193   1.470   0.609  0.00  0.00    +0.109 C 
ATOM      2  C   UNL     1      -2.168  -0.036   0.609  0.00  0.00    +0.214 C 
ATOM      3  O   UNL     1      -3.058  -0.658   1.150  0.00  0.00    -0.276 OA
ATOM      4  N   UNL     1      -1.156  -0.694   0.009  0.00  0.00    -0.286 N 
ATOM      5  C   UNL     1      -1.081  -2.085   0.091  0.00  0.00    +0.037 A 
ATOM      6  C   UNL     1       0.164  -2.708   0.166  0.00  0.00    +0.024 A 
ATOM      7  C   UNL     1       0.253  -4.066   0.253  0.00  0.00    +0.014 A 
ATOM      8  C   UNL     1      -0.913  -4.841   0.254  0.00  0.00    +0.024 A 
ATOM      9  C   UNL     1      -0.848  -6.301   0.341  0.00  0.00    +0.007 A 
ATOM     10  C   UNL     1      -2.014  -6.998   0.339  0.00  0.00    +0.095 A 
ATOM     11  C   UNL     1      -3.242  -6.309   0.254  0.00  0.00    +0.285 A 
ATOM     12  O   UNL     1      -3.295  -4.971   0.176  0.00  0.00    -0.425 OA
ATOM     13  C   UNL     1      -2.173  -4.219   0.173  0.00  0.00    +0.141 A 
ATOM     14  C   UNL     1      -2.246  -2.837   0.092  0.00  0.00    +0.070 A 
ATOM     15  H   UNL     1      -0.388  -0.134  -0.545  0.00  0.00    +0.155 HD
ENDROOT
BRANCH  11  16
ATOM     16  O   UNL     1      -4.280  -6.946   0.253  0.00  0.00    -0.480 OA
ATOM     17  H   UNL     1      -5.246  -6.423   0.188  0.00  0.00    +0.295 HD
ENDBRANCH  11  16
BRANCH   9  18
ATOM     18  C   UNL     1       0.478  -7.013   0.430  0.00  0.00    +0.268 C 
BRANCH  18  19
ATOM     19  O   UNL     1       0.258  -8.423   0.504  0.00  0.00    -0.457 OA
BRANCH  19  20
ATOM     20  C   UNL     1       1.351  -9.209   0.590  0.00  0.00    +0.332 C 
ATOM     21  O   UNL     1       2.461  -8.710   0.601  0.00  0.00    -0.246 OA
BRANCH  20  22
ATOM     22  C   UNL     1       1.207 -10.618   0.666  0.00  0.00    +0.092 C 
ATOM     23  C   UNL     1       2.301 -11.405   0.751  0.00  0.00    +0.015 C 
BRANCH  23  24
ATOM     24  C   UNL     1       2.151 -12.865   0.830  0.00  0.00    -0.025 A 
ATOM     25  C   UNL     1       0.875 -13.442   0.823  0.00  0.00    +0.011 A 
ATOM     26  C   UNL     1       0.741 -14.810   0.893  0.00  0.00    +0.046 A 
ATOM     27  C   UNL     1       1.869 -15.618   0.981  0.00  0.00    +0.120 A 
ATOM     28  C   UNL     1       3.138 -15.050   0.994  0.00  0.00    +0.046 A 
ATOM     29  C   UNL     1       3.284 -13.684   0.919  0.00  0.00    +0.011 A 
BRANCH  27  30
ATOM     30  O   UNL     1       1.730 -16.966   1.055  0.00  0.00    -0.495 OA
ATOM     31  C   UNL     1       0.398 -17.484   1.036  0.00  0.00    +0.277 C 
ENDBRANCH  27  30
ENDBRANCH  23  24
ENDBRANCH  20  22
ENDBRANCH  19  20
ENDBRANCH  18  19
ENDBRANCH   9  18
TORSDOF 7
