REMARK  Name = ZINC02500828
REMARK  7 active torsions:
REMARK  status: ('A' for Active; 'I' for Inactive)
REMARK    1  A    between atoms: C_1  and  C_2
REMARK    2  A    between atoms: C_2  and  C_3
REMARK    3  A    between atoms: C_3  and  S_4
REMARK    4  A    between atoms: S_4  and  C_5
REMARK    5  A    between atoms: C_18  and  C_20
REMARK    6  A    between atoms: C_18  and  C_21
REMARK    7  A    between atoms: C_21  and  C_22
REMARK                            x       y       z     vdW  Elec       q    Type
REMARK                         _______ _______ _______ _____ _____    ______ ____
ROOT
ATOM      1  C   UNL     1       0.070  -2.656   0.008  0.00  0.00    +0.212 A 
ATOM      2  N   UNL     1       0.856  -2.018   0.872  0.00  0.00    -0.184 NA
ATOM      3  C   UNL     1       0.847  -0.697   0.899  0.00  0.00    +0.248 A 
ATOM      4  C   UNL     1       0.002  -0.004   0.002  0.00  0.00    +0.156 A 
ATOM      5  N   UNL     1      -0.756  -0.700  -0.831  0.00  0.00    -0.141 NA
ATOM      6  N   UNL     1      -0.719  -1.987  -0.823  0.00  0.00    -0.122 NA
ATOM      7  C   UNL     1      -0.018   1.474   0.010  0.00  0.00    +0.028 A 
ATOM      8  C   UNL     1      -1.211   2.186   0.020  0.00  0.00    +0.012 A 
ATOM      9  C   UNL     1      -1.185   3.567   0.015  0.00  0.00    +0.001 A 
ATOM     10  C   UNL     1       0.021   4.245  -0.006  0.00  0.00    +0.002 A 
ATOM     11  C   UNL     1       1.216   3.549  -0.013  0.00  0.00    +0.023 A 
ATOM     12  C   UNL     1       1.207   2.166   0.002  0.00  0.00    +0.039 A 
ATOM     13  N   UNL     1       2.396   1.431   0.022  0.00  0.00    -0.307 N 
ATOM     14  C   UNL     1       2.744   0.691   1.231  0.00  0.00    +0.175 C 
ATOM     15  O   UNL     1       1.623  -0.004   1.766  0.00  0.00    -0.451 OA
ATOM     16  C   UNL     1       3.845  -0.318   0.899  0.00  0.00    +0.078 C 
ATOM     17  H   UNL     1       2.979   1.412  -0.754  0.00  0.00    +0.150 HD
ENDROOT
BRANCH  14  18
ATOM     18  C   UNL     1       3.268   1.674   2.280  0.00  0.00    +0.065 C 
ATOM     19  C   UNL     1       3.805   0.896   3.484  0.00  0.00    +0.009 C 
ENDBRANCH  14  18
BRANCH   1  20
ATOM     20  S   UNL     1       0.077  -4.418  -0.032  0.00  0.00    -0.084 S 
BRANCH  20  21
ATOM     21  C   UNL     1      -1.135  -4.707  -1.345  0.00  0.00    +0.077 C 
BRANCH  21  23
ATOM     22  C   UNL     1      -2.325  -6.457  -2.673  0.00  0.00    +0.004 C 
ATOM     23  C   UNL     1      -1.301  -6.212  -1.563  0.00  0.00    +0.008 C 
ENDBRANCH  21  23
ENDBRANCH  20  21
ENDBRANCH   1  20
TORSDOF 4
