REMARK  Name = ZINC60081823
REMARK  16 active torsions:
REMARK  status: ('A' for Active; 'I' for Inactive)
REMARK    1  A    between atoms: C_1  and  C_2
REMARK    2  A    between atoms: C_2  and  N_3
REMARK    3  A    between atoms: N_3  and  C_4
REMARK    4  A    between atoms: N_3  and  S_6
REMARK    5  A    between atoms: C_4  and  C_5
REMARK    6  A    between atoms: S_6  and  C_9
REMARK    7  A    between atoms: C_12  and  N_18
REMARK    8  A    between atoms: C_13  and  N_15
REMARK    9  A    between atoms: N_18  and  C_19
REMARK   10  A    between atoms: C_19  and  C_20
REMARK   11  A    between atoms: C_20  and  C_22
REMARK   12  A    between atoms: C_20  and  O_32
REMARK   13  A    between atoms: C_22  and  O_23
REMARK   14  A    between atoms: O_23  and  C_24
REMARK   15  A    between atoms: C_25  and  C_31
REMARK   16  A    between atoms: C_29  and  C_30
REMARK                            x       y       z     vdW  Elec       q    Type
REMARK                         _______ _______ _______ _____ _____    ______ ____
ROOT
ATOM      1  C   UNL     1      -0.508   0.490  -3.685  0.00  0.00    +0.108 A 
ATOM      2  C   UNL     1      -1.402   1.477  -3.313  0.00  0.00    +0.030 A 
ATOM      3  C   UNL     1      -1.351   2.719  -3.914  0.00  0.00    +0.027 A 
ATOM      4  C   UNL     1      -0.400   2.976  -4.895  0.00  0.00    +0.058 A 
ATOM      5  C   UNL     1       0.496   1.982  -5.266  0.00  0.00    +0.149 A 
ATOM      6  C   UNL     1       0.443   0.744  -4.657  0.00  0.00    +0.063 A 
ENDROOT
BRANCH   1   7
ATOM      7  S   UNL     1      -0.576  -1.093  -2.915  0.00  0.00    +0.061 S 
ATOM      8  O   UNL     1       0.018  -2.012  -3.822  0.00  0.00    -0.153 OA
ATOM      9  O   UNL     1      -1.902  -1.252  -2.429  0.00  0.00    -0.153 OA
BRANCH   7  10
ATOM     10  N   UNL     1       0.411  -1.034  -1.586  0.00  0.00    -0.177 NA
BRANCH  10  12
ATOM     11  C   UNL     1       0.117   0.875  -0.087  0.00  0.00    +0.022 C 
ATOM     12  C   UNL     1      -0.131  -0.621  -0.289  0.00  0.00    +0.106 C 
ENDBRANCH  10  12
BRANCH  10  13
ATOM     13  C   UNL     1       1.825  -1.395  -1.708  0.00  0.00    +0.106 C 
ATOM     14  C   UNL     1       2.011  -2.865  -1.327  0.00  0.00    +0.022 C 
ENDBRANCH  10  13
ENDBRANCH   7  10
ENDBRANCH   1   7
BRANCH   5  15
ATOM     15  N   UNL     1       1.510   2.251  -6.310  0.00  0.00    +0.058 N 
ATOM     16  O   UNL     1       1.225   2.933  -7.268  0.00  0.00    -0.126 OA
ATOM     17  O   UNL     1       2.622   1.790  -6.206  0.00  0.00    -0.126 OA
ENDBRANCH   5  15
BRANCH   4  18
ATOM     18  N   UNL     1      -0.346   4.231  -5.505  0.00  0.00    -0.339 N 
ATOM     19  H   UNL     1       0.369   4.438  -6.127  0.00  0.00    +0.146 HD
BRANCH  18  20
ATOM     20  C   UNL     1      -1.371   5.236  -5.207  0.00  0.00    +0.136 C 
BRANCH  20  21
ATOM     21  C   UNL     1      -1.081   6.511  -6.001  0.00  0.00    +0.169 C 
BRANCH  21  22
ATOM     22  O   UNL     1       0.204   7.018  -5.636  0.00  0.00    -0.387 OA
ATOM     23  H   UNL     1       0.287   7.240  -4.698  0.00  0.00    +0.210 HD
ENDBRANCH  21  22
BRANCH  21  24
ATOM     24  C   UNL     1      -2.150   7.560  -5.690  0.00  0.00    +0.261 C 
BRANCH  24  25
ATOM     25  O   UNL     1      -1.947   8.707  -6.517  0.00  0.00    -0.489 OA
BRANCH  25  26
ATOM     26  C   UNL     1      -2.818   9.739  -6.365  0.00  0.00    +0.126 A 
ATOM     27  C   UNL     1      -3.980   9.785  -7.122  0.00  0.00    -0.009 A 
ATOM     28  C   UNL     1      -4.864  10.835  -6.965  0.00  0.00    +0.007 A 
ATOM     29  C   UNL     1      -4.591  11.840  -6.055  0.00  0.00    +0.001 A 
ATOM     30  C   UNL     1      -3.434  11.796  -5.300  0.00  0.00    +0.007 A 
ATOM     31  C   UNL     1      -2.550  10.745  -5.448  0.00  0.00    -0.009 A 
ATOM     32  C   UNL     1      -1.292  10.695  -4.620  0.00  0.00    +0.047 C 
ATOM     33  C   UNL     1      -4.277   8.691  -8.115  0.00  0.00    +0.047 C 
ENDBRANCH  25  26
ENDBRANCH  24  25
ENDBRANCH  21  24
ENDBRANCH  20  21
ENDBRANCH  18  20
ENDBRANCH   4  18
TORSDOF 12
