REMARK  Name = ZINC39919715
REMARK  8 active torsions:
REMARK  status: ('A' for Active; 'I' for Inactive)
REMARK    1  A    between atoms: C_1  and  C_2
REMARK    2  A    between atoms: C_2  and  C_4
REMARK    3  A    between atoms: C_2  and  O_22
REMARK    4  A    between atoms: N_6  and  N_7
REMARK    5  A    between atoms: C_8  and  C_19
REMARK    6  A    between atoms: C_19  and  C_20
REMARK    7  A    between atoms: C_19  and  C_21
REMARK    8  A    between atoms: O_22  and  C_23
REMARK                            x       y       z     vdW  Elec       q    Type
REMARK                         _______ _______ _______ _____ _____    ______ ____
ROOT
ATOM      1  N   UNL     1       0.347  -0.925  -4.009  0.00  0.00    -0.195 N 
ATOM      2  C   UNL     1       1.192  -0.110  -4.881  0.00  0.00    +0.183 C 
ATOM      3  N   UNL     1       1.085  -0.572  -6.270  0.00  0.00    -0.324 N 
ATOM      4  C   UNL     1       1.125  -1.939  -6.521  0.00  0.00    +0.041 A 
ATOM      5  C   UNL     1       1.624  -2.453  -7.705  0.00  0.00    +0.024 A 
ATOM      6  C   UNL     1       1.644  -3.821  -7.902  0.00  0.00    +0.002 A 
ATOM      7  C   UNL     1       1.168  -4.680  -6.923  0.00  0.00    +0.001 A 
ATOM      8  C   UNL     1       0.666  -4.184  -5.738  0.00  0.00    +0.015 A 
ATOM      9  C   UNL     1       0.639  -2.808  -5.527  0.00  0.00    +0.059 A 
ATOM     10  C   UNL     1       0.110  -2.225  -4.280  0.00  0.00    +0.266 C 
ATOM     11  O   UNL     1      -0.536  -2.907  -3.508  0.00  0.00    -0.268 OA
ATOM     12  H   UNL     1       0.989   0.063  -6.998  0.00  0.00    +0.148 HD
ENDROOT
BRANCH   1  15
ATOM     13  C   UNL     1       0.279  -0.624  -1.648  0.00  0.00    +0.270 C 
ATOM     14  O   UNL     1       1.282  -1.298  -1.545  0.00  0.00    -0.270 OA
ATOM     15  N   UNL     1      -0.224  -0.346  -2.868  0.00  0.00    -0.227 N 
ATOM     16  H   UNL     1      -0.980   0.255  -2.955  0.00  0.00    +0.173 HD
BRANCH  13  18
ATOM     17  C   UNL     1      -0.324   1.432  -0.400  0.00  0.00    +0.062 C 
ATOM     18  C   UNL     1      -0.404  -0.096  -0.413  0.00  0.00    +0.257 C 
BRANCH  18  19
ATOM     19  O   UNL     1       0.243  -0.617   0.749  0.00  0.00    -0.480 OA
BRANCH  19  20
ATOM     20  C   UNL     1      -0.490  -0.672   1.892  0.00  0.00    +0.122 A 
ATOM     21  C   UNL     1      -1.821  -0.280   1.882  0.00  0.00    +0.047 A 
ATOM     22  C   UNL     1      -2.565  -0.337   3.045  0.00  0.00    +0.023 A 
ATOM     23  C   UNL     1      -1.984  -0.784   4.218  0.00  0.00    +0.041 A 
ATOM     24  C   UNL     1      -0.657  -1.175   4.230  0.00  0.00    +0.023 A 
ATOM     25  C   UNL     1       0.088  -1.126   3.068  0.00  0.00    +0.047 A 
ATOM     26 CL   UNL     1      -2.921  -0.854   5.678  0.00  0.00    -0.084 Cl
ENDBRANCH  19  20
ENDBRANCH  18  19
ENDBRANCH  13  18
ENDBRANCH   1  15
BRANCH   2  27
ATOM     27  C   UNL     1       2.648  -0.223  -4.424  0.00  0.00    +0.023 C 
ATOM     28  C   UNL     1       3.050  -1.698  -4.363  0.00  0.00    +0.011 C 
ATOM     29  C   UNL     1       3.552   0.511  -5.416  0.00  0.00    +0.011 C 
ENDBRANCH   2  27
TORSDOF 5
